data_mof_unit_63937.cif
_audit_creation_date              2013-03-05T17:00:04-0500
_audit_creation_method            fapswitch 2.2
_symmetry_space_group_name_H-M    P1
_symmetry_Int_Tables_number       1
_space_group_crystal_system       triclinic
_cell_length_a                    12.911209
_cell_length_b                    16.137195
_cell_length_c                    16.850053
_cell_angle_alpha                 85.519651
_cell_angle_beta                  92.026466
_cell_angle_gamma                 100.538295
_cell_volume                      3440.16193195

loop_
_atom_site_label
_atom_site_type_symbol
_atom_site_description
_atom_site_fract_x
_atom_site_fract_y
_atom_site_fract_z
_atom_type_partial_charge
O1    O     O_R   0.495390 0.422190 0.612650 -0.578850
O2    O     O_R   0.504610 0.577810 0.387350 -0.578850
O3    O     O_R   0.503660 0.562120 0.618910 -0.610054
O4    O     O_R   0.496340 0.437880 0.381090 -0.610057
C1    C     C_R   0.498871 0.487146 0.652722 1.005402
C2    C     C_R   0.501129 0.512853 0.347278 1.005387
O5    O     O_R   0.650190 0.441600 0.497400 -0.566945
O6    O     O_R   0.349810 0.558400 0.502600 -0.566945
O7    O     O_R   0.658460 0.581530 0.503670 -0.574617
O8    O     O_R   0.341540 0.418470 0.496330 -0.574621
C3    C     C_R   0.703151 0.517777 0.497554 1.004711
C4    C     C_R   0.296849 0.482223 0.502445 1.004701
Zn1   Zn    Zn3+2 0.494480 0.406570 0.495820 1.130215
Zn2   Zn    Zn3+2 0.505520 0.593430 0.504180 1.130216
C5    C     C_R   0.183111 0.468671 0.506123 -0.240151
C6    C     C_R   0.816889 0.531329 0.493875 -0.240153
C7    C     C_R   0.985130 0.598290 0.545426 -0.125041
C8    C     C_R   0.014870 0.401711 0.454572 -0.125040
C9    C     C_R   0.879785 0.600111 0.529804 0.285997
C10   C     C_R   0.120215 0.399889 0.470195 0.285991
C11   C     C_R   0.862971 0.468501 0.463010 0.289505
C12   C     C_R   0.137029 0.531499 0.536989 0.289509
C13   C     C_R   0.969406 0.467599 0.478735 -0.048604
C14   C     C_R   0.030594 0.532402 0.521263 -0.048605
C15   C     C_R   0.500771 0.475773 0.738705 -0.247107
C16   C     C_R   0.499231 0.524226 0.261295 -0.247104
C17   C     C_R   0.579514 0.527527 0.781763 0.237511
C18   C     C_R   0.420495 0.472467 0.218237 0.237515
C19   C     C_R   0.574975 0.522966 0.864131 -0.165349
C20   C     C_R   0.425036 0.477025 0.135870 -0.165347
C21   C     C_R   0.494797 0.466019 0.903908 0.217632
C22   C     C_R   0.505210 0.533974 0.096092 0.217632
C23   C     C_R   0.423432 0.409544 0.861710 -0.176523
C24   C     C_R   0.576570 0.590454 0.138290 -0.176527
C25   C     C_R   0.423814 0.414551 0.778829 0.274340
C26   C     C_R   0.576186 0.585450 0.221171 0.274342
N1    N     N_2   0.482237 0.465284 0.986486 -0.129733
N2    N     N_2   0.517772 0.534709 0.013515 -0.129732
N3    N     N_R   0.512890 0.717880 0.509760 -0.179434
N4    N     N_R   0.487110 0.282120 0.490240 -0.179435
C27   C     C_R   0.467652 0.761535 0.449082 0.343207
C28   C     C_R   0.532348 0.238464 0.550918 0.343206
C29   C     C_R   0.476863 0.850432 0.447144 0.099090
C30   C     C_R   0.523137 0.149568 0.552856 0.099091
C31   C     C_R   0.530508 0.894857 0.510261 0.097655
C32   C     C_R   0.469492 0.105143 0.489739 0.097655
C33   C     C_R   0.579626 0.848237 0.570698 0.183092
C34   C     C_R   0.420374 0.151762 0.429302 0.183092
C35   C     C_R   0.568146 0.759597 0.569278 -0.060645
C36   C     C_R   0.431854 0.240402 0.430722 -0.060644
N5    N     N_2   0.538778 0.984851 0.514041 -0.030609
N6    N     N_2   0.461222 0.015149 0.485959 -0.030609
N7    N     N_R   0.198283 0.593311 0.585211 0.216151
O9    O     O_R   0.241949 0.568948 0.651624 -0.327954
O10   O     O_R   0.222187 0.671932 0.557738 -0.324118
N8    N     N_R   0.801717 0.406689 0.414787 0.216150
O11   O     O_R   0.758049 0.431053 0.348375 -0.327961
O12   O     O_R   0.777813 0.328068 0.442260 -0.324118
N9    N     N_R   0.642533 0.889807 0.633145 0.270464
O13   O     O_R   0.652865 0.849353 0.702034 -0.259279
O14   O     O_R   0.700591 0.963900 0.618480 -0.233162
N10   N     N_R   0.357468 0.110192 0.366855 0.270464
O15   O     O_R   0.347137 0.150646 0.297965 -0.259267
O16   O     O_R   0.299409 0.036100 0.381520 -0.233163
H1    H     H_    0.606409 0.723970 0.614761 0.229713
H2    H     H_    0.393591 0.276030 0.385239 0.229719
N11   N     N_R   0.160904 0.327374 0.449831 0.240810
O17   O     O_R   0.136980 0.297096 0.380848 -0.261303
O18   O     O_R   0.197272 0.279929 0.506151 -0.293291
N12   N     N_R   0.839096 0.672626 0.550167 0.240812
O19   O     O_R   0.863020 0.702904 0.619150 -0.261303
O20   O     O_R   0.802728 0.720072 0.493848 -0.293291
H3    H     H_    0.030864 0.649818 0.575849 0.233782
H4    H     H_    0.969136 0.350183 0.424149 0.233782
N13   N     N_R   0.334040 0.417223 0.257140 0.226739
O21   O     O_R   0.293584 0.345584 0.228341 -0.277900
O22   O     O_R   0.285320 0.444034 0.313534 -0.373432
N14   N     N_R   0.665972 0.582767 0.742860 0.226747
O23   O     O_R   0.706453 0.654393 0.771673 -0.277896
O24   O     O_R   0.714673 0.555961 0.686453 -0.373449
H5    H     H_    0.365442 0.436604 0.102661 0.210396
H6    H     H_    0.634572 0.563381 0.897341 0.210399
H7    H     H_    0.363058 0.365058 0.893487 0.209648
H8    H     H_    0.636943 0.634941 0.106512 0.209649
N15   N     N_R   0.343062 0.359996 0.736934 0.247064
O25   O     O_R   0.309196 0.283171 0.766250 -0.265311
O26   O     O_R   0.292099 0.390217 0.676775 -0.351212
N16   N     N_R   0.656934 0.640008 0.263065 0.247066
O27   O     O_R   0.690796 0.716834 0.233748 -0.265310
O28   O     O_R   0.707899 0.609791 0.323225 -0.351209
N17   N     N_R   0.583893 0.282261 0.615984 0.249026
O29   O     O_R   0.681870 0.319228 0.609968 -0.290997
O30   O     O_R   0.542330 0.268091 0.686083 -0.298373
N18   N     N_R   0.416107 0.717739 0.384016 0.249026
O31   O     O_R   0.318130 0.680771 0.390032 -0.290998
O32   O     O_R   0.457669 0.731909 0.313917 -0.298370
N19   N     N_R   0.561797 0.105021 0.621476 0.266529
O33   O     O_R   0.498708 0.044720 0.660637 -0.267784
O34   O     O_R   0.656831 0.129573 0.649320 -0.210897
N20   N     N_R   0.438203 0.894979 0.378524 0.266529
O35   O     O_R   0.501292 0.955279 0.339363 -0.267783
O36   O     O_R   0.343169 0.870427 0.350680 -0.210898

loop_
_geom_bond_atom_site_label_1
_geom_bond_atom_site_label_2
_geom_bond_distance
_ccdc_geom_bond_type
C6    C11   1.406181 A    
C17   C19   1.386839 A    
C10   N11   1.436463 S    
O7    Zn2   2.018989 S    
C17   N14   1.437672 S    
N19   O33   1.301379 A    
N3    C27   1.370593 A    
N7    O9    1.300946 A    
C26   N16   1.438648 S    
O5    C3    1.292903 A    
N1    N2    1.244979 D    
C35   H1    1.081770 S    
O1    C1    1.283703 A    
N14   O24   1.300714 A    
C31   N5    1.442823 S    
C24   H8    1.083715 S    
C32   N6    1.442822 S    
N8    O11   1.300948 A    
C28   N17   1.428933 S    
C3    C6    1.447412 S    
O4    Zn1   1.959437 S    
Zn1   N4    2.002505 S    
N10   O16   1.300626 A    
C7    C9    1.381374 A    
Zn2   N3    2.002506 S    
C5    C12   1.406182 A    
C13   C14   1.416355 A    
C21   C23   1.390285 A    
N12   O19   1.301299 A    
C22   N2    1.405422 S    
C24   C26   1.392704 A    
N4    C28   1.370593 A    
N9    O13   1.301497 A    
C8    H4    1.080954 S    
C7    H3    1.080955 S    
C27   C29   1.415507 A    
O2    C2    1.283704 A    
C28   C30   1.415508 A    
N19   O34   1.301204 A    
C30   C32   1.417796 A    
C12   N7    1.439888 S    
C31   C33   1.419288 A    
C5    C10   1.413665 A    
C32   C34   1.419290 A    
N9    O14   1.300626 A    
C7    C14   1.397729 A    
N15   O26   1.300500 A    
C8    C13   1.397729 A    
C29   N20   1.436459 S    
C33   C35   1.412851 A    
N17   O29   1.299988 A    
N14   O23   1.301387 A    
N15   O25   1.301336 A    
N11   O17   1.301299 A    
N11   O18   1.301429 A    
C22   C24   1.390286 A    
N13   O21   1.301395 A    
N10   O15   1.301495 A    
N17   O30   1.301211 A    
C23   H7    1.083715 S    
C30   N19   1.436457 S    
C34   N10   1.437850 S    
C27   N18   1.428935 S    
C4    C5    1.447411 S    
O5    Zn1   1.986165 S    
O6    C4    1.292905 A    
N20   O36   1.301202 A    
N18   O32   1.301210 A    
C34   C36   1.412849 A    
N13   O22   1.300721 A    
O3    Zn2   1.959434 S    
O8    C4    1.280586 A    
C15   C25   1.415807 A    
C1    C15   1.446005 S    
O4    C2    1.288264 A    
N3    C35   1.359094 A    
N16   O28   1.300500 A    
O7    C3    1.280587 A    
C12   C14   1.392774 A    
O1    Zn1   2.003453 S    
N7    O10   1.301657 A    
C16   C26   1.415805 A    
O6    Zn2   1.986165 S    
O3    C1    1.288268 A    
O8    Zn1   2.018989 S    
C11   N8    1.439888 S    
C36   H2    1.081769 S    
C15   C17   1.410465 A    
C16   C18   1.410460 A    
C20   H5    1.083326 S    
C11   C13   1.392776 A    
N5    N6    1.255009 D    
C29   C31   1.417797 A    
C20   C22   1.403640 A    
C25   N15   1.438648 S    
C2    C16   1.446006 S    
C6    C9    1.413665 A    
N4    C36   1.359097 A    
C18   C20   1.386835 A    
N20   O35   1.301378 A    
C23   C25   1.392702 A    
N8    O12   1.301656 A    
C8    C10   1.381375 A    
N18   O31   1.299989 A    
O2    Zn2   2.003457 S    
C33   N9    1.437850 S    
C21   N1    1.405420 S    
C19   H6    1.083325 S    
N16   O27   1.301337 A    
C19   C21   1.403638 A    
C9    N12   1.436462 S    
N12   O20   1.301429 A    
C18   N13   1.437665 S    
