data_mof_unit_65121.cif
_audit_creation_date              2012-12-10T19:18:36-0500
_audit_creation_method            fapswitch 2.2
_symmetry_space_group_name_H-M    P1
_symmetry_Int_Tables_number       1
_space_group_crystal_system       triclinic
_cell_length_a                    24.454369
_cell_length_b                    24.453176
_cell_length_c                    36.237839
_cell_angle_alpha                 89.993512
_cell_angle_beta                  89.993033
_cell_angle_gamma                 90.06015
_cell_volume                      21669.7439953

loop_
_atom_site_label
_atom_site_type_symbol
_atom_type_description
_atom_site_fract_x
_atom_site_fract_y
_atom_site_fract_z
_atom_type_partial_charge
C1    C     C_R   0.728652 0.228652 0.249999 0.099514
C2    C     C_R   0.271350 0.228650 0.250000 0.099354
C3    C     C_R   0.742802 0.826013 0.242172 0.451662
C4    C     C_R   0.825951 0.257216 0.757793 0.451380
C5    C     C_R   0.199557 0.717291 0.217334 0.452095
C6    C     C_R   0.717330 0.800516 0.782645 0.452071
C7    C     C_R   0.257200 0.173988 0.242175 0.451645
C8    C     C_R   0.199484 0.282667 0.217355 0.452072
C9    C     C_R   0.826008 0.742804 0.757826 0.451640
C10   C     C_R   0.257201 0.825996 0.242259 0.451653
C11   C     C_R   0.717216 0.199595 0.782685 0.451975
C12   C     C_R   0.800524 0.717341 0.217354 0.452085
C13   C     C_R   0.771319 0.271374 0.750021 0.099430
C14   C     C_R   0.191037 0.275396 0.781202 0.475576
C15   C     C_R   0.742803 0.174007 0.242254 0.451673
C16   C     C_R   0.282688 0.800465 0.782654 0.451948
C17   C     C_R   0.633879 0.201758 0.258223 -0.321183
C18   C     C_R   0.341520 0.822836 0.717776 -0.318761
C19   C     C_R   0.822727 0.658417 0.282195 -0.318326
C20   C     C_R   0.197956 0.363015 0.732277 -0.332254
C21   C     C_R   0.366118 0.798237 0.258231 -0.321216
C22   C     C_R   0.658481 0.177194 0.717785 -0.319646
C23   C     C_R   0.177262 0.341575 0.282194 -0.318349
C24   C     C_R   0.228661 0.728665 0.250000 0.099900
C25   C     C_R   0.798226 0.633888 0.741691 -0.321239
C26   C     C_R   0.658423 0.822733 0.717805 -0.318314
C27   C     C_R   0.366108 0.201778 0.258312 -0.321169
C28   C     C_R   0.798240 0.366137 0.741767 -0.321244
C29   C     C_R   0.177173 0.658473 0.282217 -0.318349
C30   C     C_R   0.351834 0.186791 0.721371 -0.328485
C31   C     C_R   0.633890 0.798219 0.258314 -0.321185
C32   C     C_R   0.201753 0.633892 0.741761 -0.321227
C33   C     C_R   0.822805 0.341524 0.282218 -0.318347
C34   C     C_R   0.133867 0.701763 0.758216 -0.321185
C35   C     C_R   0.267730 0.225042 0.746475 0.035144
C36   C     C_R   0.841528 0.322823 0.217782 -0.318361
C37   C     C_R   0.302062 0.137010 0.767747 -0.329192
C38   C     C_R   0.701777 0.866113 0.241687 -0.321178
C39   C     C_R   0.866087 0.298254 0.758272 -0.319784
C40   C     C_R   0.158475 0.677198 0.217781 -0.318379
C41   C     C_R   0.677263 0.841575 0.782194 -0.318335
C42   C     C_R   0.298226 0.133888 0.241691 -0.321158
C43   C     C_R   0.158424 0.322733 0.217805 -0.318398
C44   C     C_R   0.866108 0.701778 0.758311 -0.321281
C45   C     C_R   0.298246 0.866124 0.241780 -0.321188
C46   C     C_R   0.728649 0.771350 0.250000 0.099342
C47   C     C_R   0.677132 0.158506 0.782232 -0.318068
C48   C     C_R   0.841585 0.677276 0.217805 -0.318326
C49   C     C_R   0.148165 0.313219 0.778638 -0.332158
C50   C     C_R   0.701759 0.133878 0.241771 -0.321195
C51   C     C_R   0.322787 0.841540 0.782210 -0.321192
C52   C     C_R   0.647572 0.147570 0.249997 -0.080508
C53   C     C_R   0.352409 0.852434 0.749995 -0.081712
C54   C     C_R   0.852411 0.647591 0.250000 -0.081919
C55   C     C_R   0.150073 0.355214 0.752579 -0.093703
C56   C     C_R   0.352430 0.852427 0.250006 -0.080506
C57   C     C_R   0.228635 0.728669 0.749986 0.099635
C58   C     C_R   0.647562 0.147593 0.750005 -0.081880
C59   C     C_R   0.147588 0.352409 0.250000 -0.081837
C60   C     C_R   0.852419 0.647582 0.750001 -0.080597
C61   C     C_R   0.647587 0.852409 0.750000 -0.081861
C62   C     C_R   0.352419 0.147582 0.250001 -0.080645
C63   C     C_R   0.852417 0.352438 0.750016 -0.081827
C64   C     C_R   0.147573 0.647585 0.249999 -0.081721
C65   C     C_R   0.349934 0.144797 0.747431 -0.095362
C66   C     C_R   0.647582 0.852417 0.250001 -0.080684
C67   C     C_R   0.147566 0.647577 0.749991 -0.080775
C68   C     C_R   0.771336 0.271338 0.250000 0.099896
C69   C     C_R   0.852417 0.352424 0.250001 -0.081728
C70   C     C_1   0.500009 0.999996 0.111534 -0.122898
C71   C     C_1   0.499993 0.999991 0.888465 -0.129173
C72   C     C_1   0.000003 0.500007 0.111535 -0.130185
C73   C     C_R   0.271316 0.771359 0.749988 0.100168
C74   C     C_1   0.000007 0.499991 0.888466 -0.124758
C75   C     C_1   0.000008 0.500001 0.611534 -0.123894
C76   C     C_1   0.999992 0.500000 0.388464 -0.130118
C77   C     C_1   0.500001 0.000008 0.611535 -0.130011
C78   C     C_1   0.500001 0.999992 0.388466 -0.122969
C79   C     C_R   0.049592 0.499749 0.480702 -0.170995
C80   C     C_R   0.950409 0.500253 0.519295 -0.168517
C81   C     C_R   0.500536 0.049592 0.480706 -0.168653
C82   C     C_R   0.499471 0.950407 0.519297 -0.171008
C83   C     C_R   0.950405 0.500253 0.480715 -0.171037
C84   C     C_R   0.771338 0.728661 0.249999 0.099721
C85   C     C_R   0.049596 0.499749 0.519282 -0.169254
C86   C     C_R   0.499470 0.950403 0.480718 -0.168628
C87   C     C_R   0.500536 0.049596 0.519285 -0.170817
C88   C     C_R   0.549594 0.000308 0.980703 -0.171033
C89   C     C_R   0.450411 0.999659 0.019295 -0.168604
C90   C     C_R   0.999867 0.549592 0.980705 -0.168478
C91   C     C_R   0.000159 0.450403 0.019297 -0.171034
C92   C     C_R   0.450407 0.999657 0.980716 -0.169914
C93   C     C_R   0.549598 0.000309 0.019282 -0.168475
C94   C     C_R   0.000160 0.450399 0.980718 -0.170154
C95   C     C_R   0.232287 0.274985 0.753553 0.035963
C96   C     C_R   0.999865 0.549596 0.019284 -0.171183
C97   C     C_R   0.999996 0.500001 0.461362 0.157212
C98   C     C_R   0.000005 0.500001 0.538636 0.156242
C99   C     C_R   0.500003 0.999996 0.461364 0.155995
C100  C     C_R   0.500003 0.000004 0.538638 0.157195
C101  C     C_R   0.499998 0.999982 0.961362 0.156923
C102  C     C_R   0.500006 0.999986 0.038636 0.155876
C103  C     C_R   0.000014 0.499993 0.961364 0.156535
C104  C     C_R   0.000010 0.500002 0.038638 0.157337
C105  C     C_R   0.500000 0.999997 0.348938 0.826425
C106  C     C_R   0.271348 0.771348 0.250001 0.099512
C107  C     C_R   0.500000 0.000003 0.651063 0.822041
C108  C     C_R   0.999997 0.500000 0.348936 0.821395
C109  C     C_R   0.000003 0.500000 0.651063 0.827006
C110  C     C_R   0.000002 0.499997 0.848937 0.825857
C111  C     C_R   0.000000 0.500003 0.151063 0.821419
C112  C     C_R   0.499997 0.999997 0.848937 0.823339
C113  C     C_R   0.500003 1.000000 0.151063 0.826406
C114  C     C_R   0.605243 0.894756 0.250000 0.850118
C115  C     C_R   0.394404 0.104859 0.749641 0.862842
C116  C     C_R   0.105233 0.605237 0.249999 0.852868
C117  C     C_R   0.728629 0.228694 0.750017 0.100032
C118  C     C_R   0.894766 0.394769 0.750004 0.851959
C119  C     C_R   0.394758 0.105242 0.250001 0.850035
C120  C     C_R   0.605244 0.894755 0.750000 0.852906
C121  C     C_R   0.894764 0.394766 0.250001 0.852892
C122  C     C_R   0.105232 0.605232 0.749998 0.850576
C123  C     C_R   0.605231 0.105237 0.749999 0.853436
C124  C     C_R   0.394769 0.894767 0.250002 0.849970
C125  C     C_R   0.105596 0.395143 0.750360 0.859785
C126  C     C_R   0.894754 0.605247 0.250000 0.853061
C127  C     C_R   0.394762 0.894768 0.749999 0.852034
C128  C     C_R   0.228661 0.271338 0.250000 0.099750
C129  C     C_R   0.605233 0.105231 0.249999 0.849995
C130  C     C_R   0.894758 0.605242 0.750000 0.849915
C131  C     C_R   0.105244 0.394755 0.250000 0.852931
C132  C     C_1   0.999992 0.500000 0.421700 -0.068091
C133  C     C_1   0.000009 0.500001 0.578298 -0.063955
C134  C     C_1   0.500002 0.999992 0.421702 -0.063569
C135  C     C_1   0.500002 0.000007 0.578300 -0.067934
C136  C     C_1   0.499994 0.999986 0.921700 -0.067059
C137  C     C_1   0.500009 0.999991 0.078298 -0.063431
C138  C     C_1   0.000011 0.499990 0.921702 -0.064806
C139  C     C_R   0.771350 0.728649 0.750000 0.099382
C140  C     C_1   0.000006 0.500006 0.078300 -0.068220
C141  C     C_R   0.674007 0.242803 0.257742 0.451668
C142  C     C_R   0.300436 0.782746 0.717325 0.451717
C143  C     C_R   0.782660 0.699476 0.282645 0.452081
C144  C     C_R   0.240928 0.325288 0.734746 0.475534
C145  C     C_R   0.325989 0.757193 0.257747 0.451668
C146  C     C_R   0.699553 0.217296 0.717343 0.452295
C147  C     C_R   0.217329 0.300516 0.282645 0.452060
C148  C     C_R   0.757200 0.673988 0.742176 0.451645
C149  C     C_R   0.699484 0.782667 0.717355 0.452050
C150  C     C_R   0.728661 0.771338 0.750000 0.099735
C151  C     C_R   0.326008 0.242804 0.257827 0.451649
C152  C     C_R   0.757187 0.326017 0.742251 0.451799
C153  C     C_R   0.217270 0.699550 0.282665 0.452078
C154  C     C_R   0.308970 0.224626 0.718819 0.475849
C155  C     C_R   0.673990 0.757194 0.257828 0.451670
C156  C     C_R   0.242792 0.674026 0.742241 0.451657
C157  C     C_R   0.782712 0.300443 0.282665 0.452094
C158  C     C_R   0.173990 0.742814 0.757732 0.451497
C159  C     C_R   0.800450 0.282727 0.217335 0.452091
C160  C     C_R   0.259094 0.174741 0.765285 0.475056
H1    H     H_    0.588167 0.000564 0.033993 0.149876
H2    H     H_    0.911836 0.500449 0.466004 0.148084
H3    H     H_    0.500950 0.088165 0.533997 0.147929
H4    H     H_    0.499056 0.911834 0.466006 0.149861
H5    H     H_    0.911844 0.500449 0.534016 0.149868
H6    H     H_    0.088157 0.499553 0.465981 0.147921
H7    H     H_    0.499056 0.911841 0.534018 0.148053
H8    H     H_    0.500950 0.088158 0.465985 0.149816
H9    H     H_    0.591770 0.212259 0.264242 0.164999
H10   H     H_    0.364211 0.831757 0.692797 0.166932
H11   H     H_    0.831568 0.635696 0.307164 0.167030
H12   H     H_    0.411838 0.999404 0.966004 0.148613
H13   H     H_    0.203082 0.399689 0.715851 0.176395
H14   H     H_    0.408225 0.787733 0.264251 0.164993
H15   H     H_    0.635826 0.168262 0.692798 0.166567
H16   H     H_    0.168414 0.364288 0.307163 0.167003
H17   H     H_    0.787695 0.591787 0.735604 0.164974
H18   H     H_    0.635710 0.831579 0.692837 0.167028
H19   H     H_    0.408207 0.212312 0.264399 0.165029
H20   H     H_    0.787754 0.408244 0.735726 0.164963
H21   H     H_    0.168248 0.635787 0.307197 0.166988
H22   H     H_    0.385324 0.188745 0.701836 0.178122
H23   H     H_    0.999750 0.588167 0.033996 0.148065
H24   H     H_    0.591789 0.787684 0.264404 0.165021
H25   H     H_    0.212258 0.591784 0.735741 0.165562
H26   H     H_    0.831720 0.364201 0.307198 0.166999
H27   H     H_    0.091757 0.712260 0.764238 0.164888
H28   H     H_    0.864214 0.331747 0.192802 0.166979
H29   H     H_    0.296940 0.100340 0.784179 0.178717
H30   H     H_    0.712309 0.908216 0.235598 0.165022
H31   H     H_    0.908186 0.287747 0.764312 0.167873
H32   H     H_    0.135798 0.668284 0.192801 0.166982
H33   H     H_    0.668415 0.864289 0.807163 0.167003
H34   H     H_    0.000275 0.411828 0.966006 0.148547
H35   H     H_    0.287695 0.091787 0.235603 0.165030
H36   H     H_    0.135711 0.331581 0.192836 0.166969
H37   H     H_    0.908207 0.712312 0.764398 0.164944
H38   H     H_    0.287748 0.908236 0.235761 0.165001
H39   H     H_    0.668191 0.135831 0.807214 0.167030
H40   H     H_    0.864305 0.668436 0.192835 0.167031
H41   H     H_    0.114665 0.311258 0.798165 0.177077
H42   H     H_    0.712260 0.091769 0.235751 0.164993
H43   H     H_    0.331700 0.864217 0.807190 0.166597
H44   H     H_    0.621047 0.299749 0.269149 0.340016
H45   H     H_    0.411845 0.999407 0.034016 0.149972
H46   H     H_    0.311611 0.767606 0.665118 0.339542
H47   H     H_    0.767440 0.688203 0.334836 0.339651
H48   H     H_    0.291614 0.376815 0.711736 0.339587
H49   H     H_    0.378943 0.700240 0.269155 0.340014
H50   H     H_    0.688443 0.232426 0.665128 0.339374
H51   H     H_    0.232539 0.311779 0.334834 0.339604
H52   H     H_    0.700248 0.620976 0.730651 0.339948
H53   H     H_    0.688221 0.767453 0.665166 0.339640
H54   H     H_    0.379014 0.299761 0.269352 0.340005
H55   H     H_    0.700264 0.378983 0.730803 0.339857
H56   H     H_    0.588160 0.000561 0.965981 0.148085
H57   H     H_    0.232407 0.688380 0.334873 0.339629
H58   H     H_    0.334732 0.249564 0.670641 0.339705
H59   H     H_    0.620980 0.700233 0.269358 0.340012
H60   H     H_    0.299744 0.621072 0.730830 0.340191
H61   H     H_    0.767552 0.311594 0.334873 0.339654
H62   H     H_    0.121023 0.799755 0.769139 0.339615
H63   H     H_    0.811620 0.267587 0.165127 0.339628
H64   H     H_    0.208413 0.123220 0.788308 0.341234
H65   H     H_    0.799757 0.879027 0.230642 0.340011
H66   H     H_    0.878886 0.200266 0.769245 0.341456
H67   H     H_    0.000272 0.411835 0.034018 0.147755
H68   H     H_    0.188407 0.732452 0.165128 0.339637
H69   H     H_    0.732540 0.811781 0.834834 0.339634
H70   H     H_    0.200249 0.120976 0.230650 0.340004
H71   H     H_    0.188223 0.267455 0.165166 0.339573
H72   H     H_    0.879014 0.799762 0.769351 0.339890
H73   H     H_    0.200260 0.878963 0.230853 0.340015
H74   H     H_    0.732311 0.188457 0.834902 0.339676
H75   H     H_    0.811803 0.732570 0.165164 0.339655
H76   H     H_    0.165266 0.250468 0.829380 0.339362
H77   H     H_    0.799750 0.121047 0.230846 0.340014
H78   H     H_    0.999752 0.588159 0.965984 0.149831
H79   H     H_    0.267520 0.811620 0.834859 0.339202
H80   H     H_    0.088165 0.499553 0.533993 0.149259
O1    O     O_3   0.500000 0.000000 0.250000 -0.489847
O2    O     O_R   0.500000 0.045450 0.668550 -0.637424
O3    O     O_R   0.045450 0.500000 0.331450 -0.637376
O4    O     O_R   0.954550 0.500000 0.668550 -0.631839
O5    O     O_R   1.000000 0.545450 0.831450 -0.631586
O6    O     O_R   0.000000 0.454550 0.168550 -0.637404
O7    O     O_R   0.454550 0.000000 0.831450 -0.635286
O8    O     O_R   0.545450 0.000000 0.168550 -0.632289
O9    O     O_R   0.000000 0.454550 0.831450 -0.635635
O10   O     O_R   1.000000 0.545450 0.168550 -0.637371
O11   O     O_R   0.545450 0.000000 0.831450 -0.637683
O12   O     O_3   0.500000 0.000000 0.750000 -0.488522
O13   O     O_R   0.454550 0.000000 0.168550 -0.632235
O14   O     O_R   0.564020 0.890520 0.271340 -0.642433
O15   O     O_R   0.435980 0.109480 0.728660 -0.645041
O16   O     O_R   0.109480 0.564020 0.271340 -0.640205
O17   O     O_R   0.890520 0.435980 0.728660 -0.642467
O18   O     O_R   0.435980 0.109480 0.271340 -0.642439
O19   O     O_R   0.564020 0.890520 0.728660 -0.640114
O20   O     O_R   0.890520 0.435980 0.271340 -0.640218
O21   O     O_R   0.109480 0.564020 0.728660 -0.642708
O22   O     O_R   0.564020 0.109480 0.728660 -0.641389
O23   O     O_3   0.000000 0.500000 0.250000 -0.489412
O24   O     O_R   0.435980 0.890520 0.271340 -0.642506
O25   O     O_R   0.109480 0.435980 0.728660 -0.647211
O26   O     O_R   0.890520 0.564020 0.271340 -0.640148
O27   O     O_R   0.435980 0.890520 0.728660 -0.639628
O28   O     O_R   0.564020 0.109480 0.271340 -0.642481
O29   O     O_R   0.890520 0.564020 0.728660 -0.642539
O30   O     O_R   0.109480 0.435980 0.271340 -0.640152
O31   O     O_R   0.064020 0.390520 0.771340 -0.647539
O32   O     O_R   0.935980 0.609480 0.228660 -0.640156
O33   O     O_R   0.609480 0.064020 0.771340 -0.639829
O34   O     O_3   0.000000 0.500000 0.750000 -0.488808
O35   O     O_R   0.390520 0.935980 0.228660 -0.642467
O36   O     O_R   0.935980 0.609480 0.771340 -0.642434
O37   O     O_R   0.064020 0.390520 0.228660 -0.640174
O38   O     O_R   0.390520 0.935980 0.771340 -0.643498
O39   O     O_R   0.609480 0.064020 0.228660 -0.642485
O40   O     O_R   0.064020 0.609480 0.228660 -0.640235
O41   O     O_R   0.935980 0.390520 0.771340 -0.641099
O42   O     O_R   0.609480 0.935980 0.228660 -0.642431
O43   O     O_R   0.390520 0.064020 0.771340 -0.645161
O44   O     O_R   0.935980 0.390520 0.228660 -0.640217
O45   O     O_R   0.500000 0.045450 0.331450 -0.632267
O46   O     O_R   0.064020 0.609480 0.771340 -0.642515
O47   O     O_R   0.390520 0.064020 0.228660 -0.642408
O48   O     O_R   0.609480 0.935980 0.771340 -0.640225
O49   O     O_3   0.660835 0.296900 0.264228 -0.729917
O50   O     O_3   0.287511 0.754760 0.685358 -0.732061
O51   O     O_3   0.754645 0.712321 0.314607 -0.731361
O52   O     O_3   0.292769 0.340066 0.723302 -0.709000
O53   O     O_3   0.339157 0.703092 0.264231 -0.729938
O54   O     O_3   0.712514 0.245280 0.685377 -0.731660
O55   O     O_3   0.245335 0.287662 0.314606 -0.731412
O56   O     O_R   0.500000 0.954550 0.668550 -0.637452
O57   O     O_3   0.703112 0.660755 0.735623 -0.729736
O58   O     O_3   0.712338 0.754659 0.685394 -0.731410
O59   O     O_3   0.339237 0.296895 0.264379 -0.729695
O60   O     O_3   0.703100 0.339197 0.735742 -0.730518
O61   O     O_3   0.245257 0.712475 0.314630 -0.731650
O62   O     O_3   0.303235 0.255965 0.687335 -0.710565
O63   O     O_3   0.660758 0.703100 0.264384 -0.729669
O64   O     O_3   0.296890 0.660860 0.735754 -0.729784
O65   O     O_3   0.754713 0.287504 0.314630 -0.731634
O66   O     O_3   0.160811 0.796910 0.764216 -0.731607
O67   O     O_R   0.954550 0.500000 0.331450 -0.637373
O68   O     O_3   0.787524 0.254739 0.185370 -0.731627
O69   O     O_3   0.207256 0.159965 0.776739 -0.709153
O70   O     O_3   0.796892 0.839247 0.235616 -0.729679
O71   O     O_3   0.839105 0.203120 0.764304 -0.729268
O72   O     O_3   0.212497 0.745290 0.185370 -0.731643
O73   O     O_3   0.745336 0.787664 0.814606 -0.731405
O74   O     O_3   0.203112 0.160755 0.235622 -0.729698
O75   O     O_3   0.212339 0.254661 0.185394 -0.731399
O76   O     O_3   0.839237 0.796896 0.764378 -0.729759
O77   O     O_3   0.203107 0.839173 0.235774 -0.729927
O78   O     O_R   0.045450 0.500000 0.668550 -0.633538
O79   O     O_3   0.745172 0.212545 0.814658 -0.731787
O80   O     O_3   0.787679 0.745357 0.185392 -0.731365
O81   O     O_3   0.196771 0.244071 0.812692 -0.710682
O82   O     O_3   0.796900 0.160835 0.235769 -0.729937
O83   O     O_3   0.254682 0.787530 0.814616 -0.731994
O84   O     O_R   0.500000 0.954550 0.331450 -0.632289
Zn1   Zn    Zn3+2 0.564990 0.000000 0.219470 0.981673
Zn2   Zn    Zn3+2 0.935010 0.500000 0.280530 0.981344
Zn3   Zn    Zn3+2 0.500000 0.064990 0.719470 0.979073
Zn4   Zn    Zn3+2 0.500000 0.935010 0.280530 0.981651
Zn5   Zn    Zn3+2 0.935010 0.500000 0.719470 0.982652
Zn6   Zn    Zn3+2 0.064990 0.500000 0.280530 0.981277
Zn7   Zn    Zn3+2 0.500000 0.935010 0.719470 0.981276
Zn8   Zn    Zn3+2 0.500000 0.064990 0.280530 0.981643
Zn9   Zn    Zn3+2 0.435010 0.000000 0.780530 0.979000
Zn10  Zn    Zn3+2 0.000000 0.564990 0.219470 0.981326
Zn11  Zn    Zn3+2 0.000000 0.435010 0.780530 0.978918
Zn12  Zn    Zn3+2 0.435010 0.000000 0.219470 0.981677
Zn13  Zn    Zn3+2 0.564990 0.000000 0.780530 0.982323
Zn14  Zn    Zn3+2 0.000000 0.435010 0.219470 0.981250
Zn15  Zn    Zn3+2 0.000000 0.564990 0.780530 0.981615
Zn16  Zn    Zn3+2 0.064990 0.500000 0.719470 0.979263

loop_
_geom_bond_atom_site_label_1
_geom_bond_atom_site_label_2
_ccdc_geom_bond_type
O39   Zn1   S    
C35   C154  A    
C41   C61   A    
O16   Zn6   S    
C46   C155  A    
C59   C131  S    
C127  O27   A    
C125  O31   A    
C37   C160  A    
C126  O32   A    
C124  O24   A    
C149  O58   S    
C1    C68   S    
C12   C84   A    
C7    C42   A    
O10   Zn10  S    
C41   H33   S    
C114  O42   A    
C89   H45   S    
C45   C56   A    
O34   Zn11  S    
C38   H30   S    
O15   Zn3   S    
C50   C52   A    
C1    C15   A    
C25   C60   A    
H58   O62   S    
C100  C135  S    
C33   C69   A    
C159  O68   S    
C9    O76   S    
C91   H67   S    
C29   C64   A    
C95   C144  A    
C157  O65   S    
C30   H22   S    
C80   C83   A    
C17   C52   A    
C14   O81   S    
C73   C142  A    
C18   H10   S    
C110  O9    A    
C114  O14   A    
O24   Zn4   S    
C90   H78   S    
O1    Zn12  S    
H73   O77   S    
H63   O68   S    
C151  O59   S    
C97   C132  S    
H52   O57   S    
C63   C118  S    
C107  O56   A    
C23   H16   S    
C81   C99   A    
C104  C140  S    
H79   O83   S    
C117  C146  A    
C36   H28   S    
C93   C102  A    
C74   C110  S    
C39   H31   S    
C5    O72   S    
C13   C117  S    
C40   H32   S    
C93   H1    S    
O34   Zn15  S    
H77   O82   S    
C86   C99   A    
C78   C134  T    
O12   Zn3   S    
C62   C119  S    
O23   Zn10  S    
C46   C84   S    
O26   Zn2   S    
O40   Zn10  S    
C96   C104  A    
O30   Zn6   S    
C14   C95   A    
C79   C85   A    
O18   Zn8   S    
C116  O16   A    
C139  C150  S    
C125  O25   A    
C94   H34   S    
C79   C97   A    
C26   C149  A    
C22   C58   A    
C20   C144  A    
C128  C147  A    
C3    C46   A    
O6    Zn14  S    
O17   Zn5   S    
H76   O81   S    
C91   C94   A    
C74   C138  T    
C6    O73   S    
C92   H12   S    
C111  O6    A    
O33   Zn13  S    
C127  O38   A    
C42   H35   S    
C121  O20   A    
C28   C63   A    
C160  O69   S    
C30   C154  A    
C119  O18   A    
O36   Zn15  S    
C155  O63   S    
C156  O64   S    
H51   O55   S    
C2    C7    A    
C16   C51   A    
H64   O69   S    
C22   H15   S    
C146  O54   S    
C23   C59   A    
O48   Zn13  S    
C32   H25   S    
C4    O71   S    
C57   C73   S    
C32   C156  A    
C8    C128  A    
C22   C146  A    
C37   C65   A    
C105  O84   A    
C33   H26   S    
O67   Zn2   S    
C42   C62   A    
H53   O58   S    
C36   C159  A    
C43   C59   A    
C61   C120  S    
C65   C115  S    
C47   H39   S    
C70   C113  S    
O22   Zn3   S    
H72   O76   S    
C57   C156  A    
C49   H41   S    
C139  C148  A    
C37   H29   S    
C116  O40   A    
C71   C136  T    
O25   Zn16  S    
C109  O4    A    
C115  O43   A    
C49   C55   A    
C105  O45   A    
C99   C134  S    
C51   C53   A    
C102  C137  S    
C27   C62   A    
O12   Zn9   S    
C71   C112  S    
O23   Zn14  S    
C10   C45   A    
O4    Zn5   S    
C158  O66   S    
C129  O28   A    
C32   C67   A    
C19   C54   A    
C121  O44   A    
C83   H2    S    
O29   Zn5   S    
C3    O70   S    
C10   C106  A    
C24   C106  S    
C96   H23   S    
C130  O36   A    
C110  O5    A    
C112  O11   A    
C119  O47   A    
C87   C100  A    
O14   Zn4   S    
C120  O48   A    
O41   Zn11  S    
O43   Zn9   S    
C90   C96   A    
C7    O74   S    
C85   H80   S    
C76   C132  T    
C131  O30   A    
C108  O3    A    
O32   Zn10  S    
C34   H27   S    
C30   C65   A    
H54   O59   S    
C153  O61   S    
C72   C140  T    
C126  O26   A    
O13   Zn12  S    
O12   Zn7   S    
C123  O33   A    
C142  O50   S    
C112  O7    A    
C57   C158  A    
C64   C116  S    
C31   H24   S    
C11   C47   A    
C8    C43   A    
H57   O61   S    
C12   C48   A    
H65   O70   S    
C144  O52   S    
C111  O10   A    
C54   C126  S    
C98   C133  S    
C58   C123  S    
C106  C145  A    
C48   H40   S    
C52   C129  S    
C56   C124  S    
C26   C61   A    
C27   H19   S    
H46   O50   S    
C124  O35   A    
C25   H17   S    
C10   O77   S    
C123  O22   A    
C17   C141  A    
H50   O54   S    
C35   C160  A    
H48   O52   S    
C53   C127  S    
C18   C53   A    
O31   Zn11  S    
C55   C125  S    
C33   C157  A    
C9    C44   A    
O34   Zn16  S    
C82   H7    S    
C50   H42   S    
C148  O57   S    
C72   C111  S    
C76   C108  S    
H44   O49   S    
H69   O73   S    
C51   H43   S    
C88   C101  A    
C113  O13   A    
C118  O41   A    
C103  C138  S    
C118  O17   A    
C130  O29   A    
H61   O65   S    
O1    Zn1   S    
C82   C86   A    
C23   C147  A    
C21   C145  A    
O84   Zn4   S    
H70   O74   S    
C92   C101  A    
C94   C103  A    
C11   O79   S    
C8    O75   S    
C86   H4    S    
O9    Zn11  S    
C68   C157  A    
O3    Zn6   S    
C80   H5    S    
C24   C153  A    
H62   O66   S    
C2    C151  A    
O21   Zn16  S    
O78   Zn16  S    
C27   C151  A    
C66   C114  S    
C80   C98   A    
C13   C152  A    
C34   C67   A    
C21   C56   A    
C31   C155  A    
C75   C133  T    
C122  O21   A    
O7    Zn9   S    
C35   C95   S    
C120  O19   A    
C149  C150  A    
O45   Zn8   S    
C9    C139  A    
C147  O55   S    
C44   C60   A    
H55   O60   S    
C81   H8    S    
C25   C148  A    
O35   Zn12  S    
C152  O60   S    
C90   C103  A    
C131  O37   A    
C1    C141  A    
C6    C150  A    
H71   O75   S    
O37   Zn14  S    
C70   C137  T    
C21   H14   S    
C83   C97   A    
C5    C40   A    
O42   Zn1   S    
O5    Zn15  S    
O27   Zn7   S    
C15   O82   S    
C2    C128  S    
C31   C66   A    
C87   H3    S    
C89   C102  A    
C91   C104  A    
O23   Zn2   S    
O20   Zn2   S    
O8    Zn1   S    
H59   O63   S    
O47   Zn12  S    
C16   O83   S    
H60   O64   S    
C48   C54   A    
C29   H21   S    
C78   C105  S    
C19   H11   S    
C17   H9    S    
C15   C50   A    
C14   C49   A    
C154  O62   S    
O46   Zn15  S    
O1    Zn8   S    
C4    C13   A    
C85   C98   A    
C38   C66   A    
C3    C38   A    
C6    C41   A    
C107  O2    A    
C68   C159  A    
O19   Zn7   S    
C44   H37   S    
H74   O79   S    
C20   C55   A    
O11   Zn13  S    
O23   Zn6   S    
C26   H18   S    
C75   C109  S    
O44   Zn14  S    
C16   C73   A    
C77   C107  S    
C108  O67   A    
C60   C130  S    
C84   C143  A    
C45   H38   S    
C43   H36   S    
C28   H20   S    
C20   H13   S    
C4    C39   A    
C69   C121  S    
C81   C87   A    
C89   C92   A    
C34   C158  A    
C143  O51   S    
C28   C152  A    
O34   Zn5   S    
O2    Zn3   S    
O28   Zn8   S    
C12   O80   S    
O12   Zn13  S    
C11   C117  A    
C67   C122  S    
C36   C69   A    
C29   C153  A    
C101  C136  S    
H66   O71   S    
C88   C93   A    
C18   C142  A    
C19   C143  A    
C88   H56   S    
C82   C100  A    
O1    Zn4   S    
O38   Zn9   S    
H47   O51   S    
H75   O80   S    
C141  O49   S    
C113  O8    A    
C39   C63   A    
C40   C64   A    
O56   Zn7   S    
C109  O78   A    
C122  O46   A    
C145  O53   S    
C47   C58   A    
C5    C24   A    
C129  O39   A    
C79   H6    S    
H68   O72   S    
C115  O15   A    
H49   O53   S    
C77   C135  T    
