data_mof_unit_58919.cif
_audit_creation_date              2012-12-10T17:45:35-0500
_audit_creation_method            fapswitch 2.2
_symmetry_space_group_name_H-M    P1
_symmetry_Int_Tables_number       1
_space_group_crystal_system       triclinic
_cell_length_a                    11.53477
_cell_length_b                    10.590549
_cell_length_c                    9.948198
_cell_angle_alpha                 91.648497
_cell_angle_beta                  89.964242
_cell_angle_gamma                 91.661759
_cell_volume                      1214.25347805

loop_
_atom_site_label
_atom_site_type_symbol
_atom_type_description
_atom_site_fract_x
_atom_site_fract_y
_atom_site_fract_z
_atom_type_partial_charge
C1    C     C_R   0.519894 0.263220 0.497901 0.896429
C2    C     C_R   0.501769 0.878907 0.509002 -0.178155
C3    C     C_R   0.347083 0.336377 0.135126 -0.145121
C4    C     C_R   0.282131 0.499483 0.500038 0.886338
C5    C     C_R   0.270317 0.256321 0.063538 -0.287889
C6    C     C_R   0.266978 0.257732 0.922842 0.535986
C7    C     C_R   0.345515 0.336679 0.856285 -0.212072
C8    C     C_R   0.424018 0.419599 0.925734 0.077217
C9    C     C_R   0.424262 0.419661 0.069902 0.194845
C10   C     C_R   0.572621 0.576951 0.073686 -0.102095
C11   C     C_R   0.572730 0.576766 0.930825 -0.060861
C12   C     C_R   0.657895 0.076600 0.839693 0.565519
C13   C     C_R   0.496077 0.741735 0.502958 0.904764
C14   C     C_R   0.717889 0.500227 0.499986 0.888153
C15   C     C_1   0.161590 0.498767 0.500152 -0.178102
C16   C     C_1   0.059340 0.498405 0.500178 0.000020
C17   C     C_1   0.940607 0.498579 0.500082 -0.003259
C18   C     C_1   0.838384 0.499233 0.499973 -0.176126
C19   C     C_R   0.641606 0.134401 0.715852 -0.311684
C20   C     C_3   0.082577 0.165904 0.899337 -0.300611
C21   C     C_3   0.763568 0.251609 0.931309 -0.165324
C22   C     C_3   0.331196 0.863996 0.794764 -0.212089
C23   C     C_R   0.594642 0.964705 0.863146 -0.220158
C24   C     C_R   0.523645 0.907092 0.763722 0.433122
C25   C     C_R   0.530727 0.950518 0.629381 -0.032266
C26   C     C_R   0.574490 0.073732 0.614007 -0.049919
C27   C     C_R   0.554516 0.133125 0.493351 -0.187523
C28   C     C_R   0.542117 0.061228 0.374947 0.393234
C29   C     C_R   0.509446 0.936156 0.383631 -0.300661
H1    H     H_    0.341340 0.330758 0.749534 0.224676
H2    H     H_    0.050035 0.258342 0.937338 0.154951
H3    H     H_    0.079624 0.095047 0.979502 0.177501
H4    H     H_    0.022632 0.130858 0.818526 0.203020
H5    H     H_    0.684818 0.309316 0.923739 0.168163
H6    H     H_    0.824590 0.268719 0.846878 0.102113
H7    H     H_    0.809598 0.282843 0.024819 0.205284
H8    H     H_    0.306277 0.876601 0.688137 0.154357
H9    H     H_    0.323423 0.954345 0.853753 0.195915
H10   H     H_    0.268651 0.794460 0.837496 0.178451
H11   H     H_    0.632158 0.639724 0.879269 0.148293
H12   H     H_    0.685673 0.222878 0.693647 0.161524
H13   H     H_    0.597172 0.923212 0.961012 0.233939
H14   H     H_    0.499375 0.881842 0.290133 0.216230
H15   H     H_    0.631946 0.640107 0.128914 0.153373
H16   H     H_    0.345144 0.328461 0.241532 0.214557
H17   H     H_    0.215086 0.191951 0.118891 0.156588
H18   H     H_    0.757903 0.997883 0.245519 0.350757
N1    N     N_R   0.498930 0.498800 0.142780 -0.104889
N2    N     N_R   0.498900 0.498720 0.857170 -0.103147
O1    O     O_R   0.500000 0.316780 0.614690 -0.643976
O2    O     O_2   0.671502 0.233004 0.238305 -0.298223
O3    O     O_3   0.697911 0.996828 0.174267 -0.548366
O4    O     O_3   0.195360 0.177063 0.844872 -0.631282
O5    O     O_3   0.734585 0.121655 0.939537 -0.535185
O6    O     O_3   0.443643 0.816307 0.804839 -0.590417
O7    O     O_R   0.499990 0.316750 0.385360 -0.581834
O8    O     O_R   0.334450 0.500030 0.614670 -0.620264
O9    O     O_R   0.334440 0.500000 0.385330 -0.639562
O10   O     O_R   0.500010 0.683250 0.614640 -0.552285
O11   O     O_R   0.500000 0.683220 0.385310 -0.628698
O12   O     O_R   0.665560 0.500000 0.614670 -0.640697
O13   O     O_R   0.665550 0.499970 0.385330 -0.583631
O14   O     O_2   0.512513 0.118777 0.118299 -0.303911
S1    S     S_3+6 0.605323 0.109083 0.222876 0.014114
Zn1   Zn    Zn3+2 0.500010 0.500020 0.653130 0.956245
Zn2   Zn    Zn3+2 0.499990 0.499980 0.346870 0.984603

loop_
_geom_bond_atom_site_label_1
_geom_bond_atom_site_label_2
_ccdc_geom_bond_type
C4    O8    A    
C22   H9    S    
C23   C24   A    
H18   O3    S    
C21   H6    S    
O3    S1    S    
C1    O1    A    
C14   C18   S    
C20   O4    S    
O8    Zn1   S    
C4    C15   S    
C17   C18   T    
C25   C26   A    
C22   O6    S    
O11   Zn2   S    
C7    C8    A    
C21   H7    S    
C12   O5    S    
C29   H14   S    
C24   O6    S    
C5    C6    A    
C14   O12   A    
C12   C23   A    
C11   H11   S    
C26   C27   A    
C6    C7    A    
C23   H13   S    
N2    Zn1   S    
C2    C29   A    
C3    C9    A    
C20   H4    S    
C28   S1    S    
C12   C19   A    
C28   C29   A    
C1    O7    A    
C20   H3    S    
C2    C25   A    
C10   N1    A    
C21   O5    S    
O1    Zn1   S    
O7    Zn2   S    
C10   C11   A    
C22   H10   S    
C6    O4    S    
C10   H15   S    
O14   S1    D    
C14   O13   A    
O12   Zn1   S    
C24   C25   A    
C19   C26   A    
C9    N1    A    
C1    C27   S    
C5    H17   S    
C4    O9    A    
C27   C28   A    
C7    H1    S    
C2    C13   S    
O13   Zn2   S    
C16   C17   S    
C11   N2    A    
C21   H5    S    
N1    Zn2   S    
C13   O10   A    
C22   H8    S    
C8    N2    A    
C3    H16   S    
C15   C16   T    
O10   Zn1   S    
O2    S1    D    
C19   H12   S    
C13   O11   A    
C8    C9    A    
C3    C5    A    
C20   H2    S    
O9    Zn2   S    
