data_mof_unit_58937.cif
_audit_creation_date              2012-12-10T18:53:17-0500
_audit_creation_method            fapswitch 2.2
_symmetry_space_group_name_H-M    P1
_symmetry_Int_Tables_number       1
_space_group_crystal_system       triclinic
_cell_length_a                    27.510072
_cell_length_b                    27.384411
_cell_length_c                    18.147795
_cell_angle_alpha                 89.866245
_cell_angle_beta                  89.937267
_cell_angle_gamma                 90.022884
_cell_volume                      13671.5425141

loop_
_atom_site_label
_atom_site_type_symbol
_atom_type_description
_atom_site_fract_x
_atom_site_fract_y
_atom_site_fract_z
_atom_type_partial_charge
C1    C     C_R   0.066453 0.433962 0.500026 0.791740
C2    C     C_R   0.933527 0.565987 0.499970 0.791130
C3    C     C_R   0.934417 0.433046 0.500094 0.791420
C4    C     C_R   0.065935 0.566477 0.499884 0.791885
C5    C     C_R   0.566985 0.934435 0.499998 0.792840
C6    C     C_R   0.433530 0.066007 0.499976 0.792374
C7    C     C_R   0.433976 0.933462 0.500124 0.793922
C8    C     C_R   0.565578 0.066961 0.499912 0.791646
C9    C     C_R   0.258791 0.702129 0.521348 -0.052295
C10   C     C_R   0.744230 0.296938 0.470096 -0.051368
C11   C     C_R   0.795766 0.235307 0.528984 -0.055959
C12   C     C_R   0.201188 0.764275 0.478735 -0.052707
C13   C     C_R   0.738239 0.705108 0.483273 -0.054340
C14   C     C_R   0.204367 0.241990 0.535129 -0.053022
C15   C     C_R   0.260018 0.294655 0.465489 -0.054033
C16   C     C_R   0.802151 0.762424 0.519790 -0.050387
C17   C     C_R   0.756454 0.202389 0.529446 -0.051333
C18   C     C_R   0.238339 0.799687 0.480872 -0.051285
C19   C     C_R   0.295967 0.737350 0.523047 -0.054135
C20   C     C_R   0.704897 0.264095 0.470695 -0.055906
C21   C     C_R   0.294818 0.257059 0.464790 -0.053177
C22   C     C_R   0.768224 0.801015 0.518632 -0.054171
C23   C     C_R   0.704505 0.743735 0.481019 -0.051001
C24   C     C_R   0.239222 0.204419 0.534498 -0.054638
C25   C     C_R   0.789467 0.282600 0.499766 -0.047388
C26   C     C_R   0.211602 0.715697 0.499214 -0.048129
C27   C     C_R   0.214821 0.286967 0.500380 -0.047817
C28   C     C_R   0.787023 0.714646 0.501925 -0.048097
C29   C     C_R   0.285764 0.785959 0.502383 -0.046992
C30   C     C_R   0.711115 0.216859 0.500139 -0.047392
C31   C     C_R   0.719490 0.791550 0.499225 -0.046893
C32   C     C_R   0.284425 0.212147 0.499683 -0.047876
C33   C     C_R   0.999998 0.499986 0.078718 0.121360
C34   C     C_R   0.999998 0.499980 0.921275 0.121289
C35   C     C_R   0.500007 0.000021 0.078719 0.121070
C36   C     C_R   0.500003 0.000015 0.921276 0.121136
C37   C     C_R   0.999996 0.456817 0.721083 0.078841
C38   C     C_R   0.999917 0.543176 0.278904 0.083957
C39   C     C_R   0.000009 0.543175 0.720801 0.083269
C40   C     C_R   0.000079 0.456819 0.279215 0.082732
C41   C     C_R   0.499965 0.956824 0.721096 0.079641
C42   C     C_R   0.500000 0.043183 0.278917 0.079837
C43   C     C_R   0.500029 0.043181 0.720784 0.083404
C44   C     C_R   0.500008 0.956825 0.279199 0.079113
C45   C     C_R   0.000028 0.455984 0.798432 -0.290702
C46   C     C_R   0.999892 0.543997 0.201555 -0.290469
C47   C     C_R   0.999983 0.543991 0.798142 -0.290948
C48   C     C_R   0.000102 0.455991 0.201873 -0.290135
C49   C     C_R   0.499993 0.956003 0.798445 -0.290414
C50   C     C_R   0.499974 0.044016 0.201568 -0.290401
C51   C     C_R   0.500005 0.044010 0.798126 -0.290064
C52   C     C_R   0.500033 0.956009 0.201858 -0.290402
C53   C     C_R   0.107955 0.635972 0.560495 -0.188902
C54   C     C_R   0.875889 0.379119 0.566442 -0.193606
C55   C     C_R   0.887430 0.368418 0.434849 -0.186562
C56   C     C_R   0.132807 0.611494 0.437552 -0.187906
C57   C     C_R   0.888513 0.633212 0.437936 -0.186235
C58   C     C_R   0.129890 0.385618 0.565390 -0.187652
C59   C     C_R   0.117137 0.372520 0.434562 -0.190956
C60   C     C_R   0.864960 0.608903 0.561672 -0.192957
C61   C     C_R   0.614029 0.130236 0.565713 -0.186700
C62   C     C_R   0.379424 0.876109 0.567802 -0.190009
C63   C     C_R   0.378083 0.876855 0.434048 -0.190221
C64   C     C_R   0.622829 0.122096 0.433213 -0.193747
C65   C     C_R   0.383953 0.128593 0.564812 -0.189998
C66   C     C_R   0.625831 0.881479 0.432792 -0.186231
C67   C     C_R   0.627951 0.883247 0.566456 -0.194459
C68   C     C_R   0.368561 0.112670 0.435366 -0.187876
C69   C     C_R   0.142688 0.672969 0.559575 -0.156192
C70   C     C_R   0.841461 0.341837 0.566518 -0.164458
C71   C     C_R   0.853327 0.330795 0.435201 -0.144403
C72   C     C_R   0.168141 0.647877 0.437325 -0.157392
C73   C     C_R   0.852838 0.669268 0.438499 -0.158476
C74   C     C_R   0.166455 0.350475 0.565215 -0.146982
C75   C     C_R   0.153320 0.337026 0.434698 -0.158980
C76   C     C_R   0.828649 0.644372 0.561567 -0.159146
C77   C     C_R   0.648312 0.167679 0.565453 -0.144803
C78   C     C_R   0.343730 0.840054 0.568351 -0.158305
C79   C     C_R   0.342407 0.840777 0.434739 -0.152713
C80   C     C_R   0.657377 0.159264 0.433174 -0.164182
C81   C     C_R   0.347567 0.163879 0.564718 -0.159627
C82   C     C_R   0.663794 0.847866 0.432523 -0.153369
C83   C     C_R   0.665939 0.849596 0.566052 -0.162285
C84   C     C_R   0.331731 0.147541 0.435659 -0.146279
C85   C     C_R   0.172992 0.678695 0.498219 0.151143
C86   C     C_R   0.829880 0.317824 0.500872 0.147444
C87   C     C_R   0.822950 0.674941 0.500324 0.148838
C88   C     C_R   0.178026 0.325933 0.499969 0.146070
C89   C     C_R   0.670514 0.181823 0.499331 0.145601
C90   C     C_R   0.324983 0.822520 0.501860 0.143334
C91   C     C_R   0.321344 0.173335 0.500243 0.148210
C92   C     C_R   0.683494 0.831361 0.499147 0.141657
C93   C     C_R   0.973905 0.535412 0.961210 -0.183548
C94   C     C_R   0.026092 0.464553 0.038780 -0.183363
C95   C     C_R   0.026089 0.464548 0.961379 -0.183217
C96   C     C_R   0.973901 0.535414 0.038610 -0.182952
C97   C     C_R   0.473955 0.035481 0.961214 -0.183153
C98   C     C_R   0.526060 0.964558 0.038780 -0.183169
C99   C     C_R   0.526057 0.964555 0.961380 -0.182881
C100  C     C_R   0.473956 0.035484 0.038615 -0.183101
C101  C     C_R   0.000004 0.499984 0.838433 0.113832
C102  C     C_R   0.999998 0.499992 0.161565 0.114286
C103  C     C_R   0.500001 0.000009 0.838433 0.114641
C104  C     C_R   0.500003 0.000016 0.161565 0.114060
C105  C     C_R   0.102780 0.605046 0.499417 -0.027366
C106  C     C_R   0.898680 0.393170 0.500403 -0.032427
C107  C     C_R   0.895180 0.603148 0.499863 -0.027270
C108  C     C_R   0.104922 0.396876 0.500031 -0.031732
C109  C     C_R   0.601364 0.106799 0.499650 -0.033076
C110  C     C_R   0.396710 0.895019 0.500618 -0.034342
C111  C     C_R   0.394936 0.102936 0.499995 -0.031216
C112  C     C_R   0.607196 0.899061 0.499814 -0.034227
Cu1   Cu    Cu3+1 0.000000 0.500000 0.573360 0.934048
Cu2   Cu    Cu3+1 1.000000 0.500000 0.426640 0.936159
Cu3   Cu    Cu3+1 0.500000 1.000000 0.573360 0.935670
Cu4   Cu    Cu3+1 0.500000 1.000000 0.426640 0.934151
H1    H     H_    0.999840 0.422789 0.690924 0.118648
H2    H     H_    0.999998 0.577209 0.309053 0.113728
H3    H     H_    0.000169 0.577212 0.690423 0.113671
H4    H     H_    0.999991 0.422787 0.309607 0.109394
H5    H     H_    0.499785 0.922792 0.690948 0.113813
H6    H     H_    0.500152 0.077211 0.309076 0.118450
H7    H     H_    0.500201 0.077213 0.690392 0.109321
H8    H     H_    0.499865 0.922789 0.309578 0.114861
H9    H     H_    0.999349 0.421098 0.826573 0.125148
H10   H     H_    0.000509 0.578881 0.173408 0.124036
H11   H     H_    0.000666 0.578871 0.826051 0.123916
H12   H     H_    0.999481 0.421104 0.173982 0.123483
H13   H     H_    0.499287 0.921122 0.826597 0.124447
H14   H     H_    0.500653 0.078903 0.173432 0.125014
H15   H     H_    0.500710 0.078894 0.826021 0.123415
H16   H     H_    0.499355 0.921128 0.173954 0.124593
H17   H     H_    0.084912 0.631801 0.608538 0.137338
H18   H     H_    0.883929 0.397549 0.617740 0.146953
H19   H     H_    0.904767 0.378258 0.383304 0.142357
H20   H     H_    0.129507 0.587909 0.389988 0.146172
H21   H     H_    0.911489 0.629486 0.389769 0.137910
H22   H     H_    0.121308 0.404050 0.616507 0.147459
H23   H     H_    0.098324 0.380409 0.383512 0.142282
H24   H     H_    0.869261 0.585856 0.609806 0.144514
H25   H     H_    0.597733 0.119447 0.617607 0.143382
H26   H     H_    0.393231 0.889337 0.619932 0.147037
H27   H     H_    0.390845 0.890658 0.381507 0.146663
H28   H     H_    0.613640 0.104757 0.381494 0.147524
H29   H     H_    0.403924 0.121913 0.615236 0.141103
H30   H     H_    0.610782 0.893267 0.380586 0.146017
H31   H     H_    0.614558 0.896468 0.618875 0.147735
H32   H     H_    0.376208 0.093199 0.384791 0.147264
H33   H     H_    0.146554 0.696640 0.606951 0.117233
H34   H     H_    0.822838 0.332583 0.617274 0.116717
H35   H     H_    0.844231 0.312602 0.384100 0.119783
H36   H     H_    0.191840 0.651981 0.390003 0.117024
H37   H     H_    0.848655 0.693004 0.391093 0.117291
H38   H     H_    0.185436 0.342003 0.615920 0.120707
H39   H     H_    0.161727 0.317758 0.384214 0.117453
H40   H     H_    0.805637 0.648714 0.609576 0.118286
H41   H     H_    0.658532 0.184804 0.616907 0.120650
H42   H     H_    0.330228 0.826224 0.620468 0.121475
H43   H     H_    0.328033 0.827300 0.383087 0.121392
H44   H     H_    0.674935 0.169502 0.381973 0.118083
H45   H     H_    0.340174 0.184244 0.614572 0.115623
H46   H     H_    0.677121 0.833789 0.380557 0.120930
H47   H     H_    0.680800 0.836722 0.617821 0.122225
H48   H     H_    0.311650 0.154856 0.385526 0.119860
H49   H     H_    0.952670 0.562797 0.932639 0.124124
H50   H     H_    0.047333 0.437171 0.067347 0.124116
H51   H     H_    0.047324 0.437161 0.932934 0.124425
H52   H     H_    0.952660 0.562798 0.067048 0.124389
H53   H     H_    0.452750 0.062890 0.932644 0.124169
H54   H     H_    0.547266 0.937149 0.067346 0.124334
H55   H     H_    0.547260 0.937143 0.932936 0.124404
H56   H     H_    0.452751 0.062894 0.067057 0.124425
N1    N     N_R   1.000000 0.500000 0.683620 -0.168808
N2    N     N_R   1.000000 0.500000 0.316380 -0.167311
N3    N     N_R   0.500000 1.000000 0.683620 -0.166980
N4    N     N_R   0.500000 1.000000 0.316380 -0.168595
O1    O     O_R   0.049900 0.450090 0.561980 -0.586712
O2    O     O_R   0.950100 0.549910 0.438020 -0.584309
O3    O     O_R   0.950100 0.549910 0.561980 -0.588322
O4    O     O_R   0.049900 0.450090 0.438020 -0.588555
O5    O     O_R   0.950100 0.450090 0.438020 -0.585593
O6    O     O_R   0.049900 0.549910 0.561980 -0.585180
O7    O     O_R   0.049900 0.549910 0.438020 -0.587506
O8    O     O_R   0.950100 0.450090 0.561980 -0.588572
O9    O     O_R   0.549900 0.950090 0.561980 -0.586793
O10   O     O_R   0.450100 0.049910 0.438020 -0.587048
O11   O     O_R   0.450100 0.049910 0.561980 -0.587030
O12   O     O_R   0.549900 0.950090 0.438020 -0.588073
O13   O     O_R   0.450100 0.950090 0.438020 -0.587452
O14   O     O_R   0.549900 0.049910 0.561980 -0.586953
O15   O     O_R   0.549900 0.049910 0.438020 -0.587708
O16   O     O_R   0.450100 0.950090 0.561980 -0.586820
C113  C     C_R   0.269511 0.650608 0.540824 0.138666
C114  C     C_R   0.293863 0.620428 0.490477 -0.133032
C115  C     C_R   0.303404 0.571690 0.508394 -0.133867
C116  C     C_R   0.288698 0.552895 0.576564 -0.107932
C117  C     C_R   0.264508 0.582847 0.626955 -0.130348
C118  C     C_R   0.254947 0.631616 0.609255 -0.138802
H57   H     H_    0.305204 0.634634 0.437427 0.111577
H58   H     H_    0.322130 0.548502 0.469392 0.115511
H59   H     H_    0.296056 0.515157 0.590396 0.113143
H60   H     H_    0.253163 0.568267 0.679721 0.121494
H61   H     H_    0.236235 0.654564 0.648660 0.111490
C119  C     C_R   0.738418 0.346359 0.437715 0.140862
C120  C     C_R   0.738477 0.352360 0.360899 -0.145515
C121  C     C_R   0.736084 0.399104 0.330120 -0.134327
C122  C     C_R   0.733881 0.440035 0.375804 -0.110194
C123  C     C_R   0.733559 0.434284 0.452390 -0.135935
C124  C     C_R   0.735712 0.387553 0.483385 -0.129040
H62   H     H_    0.741225 0.320922 0.325052 0.108648
H63   H     H_    0.736452 0.403632 0.270865 0.120354
H64   H     H_    0.732675 0.476162 0.351726 0.116880
H65   H     H_    0.732020 0.466018 0.487738 0.131480
H66   H     H_    0.735988 0.383433 0.542749 0.114395
C125  C     C_R   0.844332 0.218840 0.553823 0.141139
C126  C     C_R   0.859318 0.226268 0.626817 -0.143628
C127  C     C_R   0.904396 0.208653 0.650464 -0.133266
C128  C     C_R   0.934553 0.183526 0.601443 -0.119490
C129  C     C_R   0.919947 0.176430 0.528523 -0.140929
C130  C     C_R   0.874920 0.193987 0.504690 -0.135424
H67   H     H_    0.835889 0.245086 0.665412 0.103883
H68   H     H_    0.915780 0.214127 0.706913 0.116727
H69   H     H_    0.969109 0.169286 0.619984 0.116868
H70   H     H_    0.943365 0.157020 0.490638 0.119629
H71   H     H_    0.863644 0.187858 0.448295 0.112221
C131  C     C_R   0.151492 0.777914 0.454603 0.133472
C132  C     C_R   0.121950 0.807236 0.499471 -0.132511
C133  C     C_R   0.075611 0.820960 0.475564 -0.140269
C134  C     C_R   0.058525 0.805353 0.407010 -0.106742
C135  C     C_R   0.087714 0.776012 0.362267 -0.135216
C136  C     C_R   0.134122 0.762406 0.385810 -0.145994
H72   H     H_    0.134935 0.819587 0.552577 0.114303
H73   H     H_    0.053038 0.843850 0.510022 0.115841
H74   H     H_    0.022792 0.816144 0.388283 0.111015
H75   H     H_    0.074493 0.764066 0.309132 0.119065
H76   H     H_    0.156701 0.740216 0.350259 0.112547
C137  C     C_R   0.721952 0.654633 0.467146 0.134450
C138  C     C_R   0.691874 0.629891 0.517398 -0.135775
C139  C     C_R   0.673801 0.583588 0.500351 -0.135414
C140  C     C_R   0.685555 0.561837 0.433096 -0.124942
C141  C     C_R   0.715952 0.586061 0.383173 -0.136729
C142  C     C_R   0.734148 0.632368 0.400058 -0.135412
H77   H     H_    0.681982 0.646779 0.569198 0.112669
H78   H     H_    0.650304 0.564766 0.538952 0.121109
H79   H     H_    0.670856 0.526332 0.419593 0.122894
H80   H     H_    0.724966 0.569217 0.331041 0.116859
H81   H     H_    0.756856 0.651268 0.360418 0.112039
C143  C     C_R   0.156927 0.234467 0.572424 0.138297
C144  C     C_R   0.114273 0.228789 0.530925 -0.132131
C145  C     C_R   0.069358 0.224158 0.566432 -0.135429
C146  C     C_R   0.066863 0.225131 0.643379 -0.112513
C147  C     C_R   0.109262 0.230435 0.684927 -0.137158
C148  C     C_R   0.154193 0.235166 0.649642 -0.145580
H82   H     H_    0.115841 0.228441 0.471294 0.113710
H83   H     H_    0.036480 0.220112 0.534313 0.127806
H84   H     H_    0.032111 0.222016 0.670926 0.115007
H85   H     H_    0.107259 0.231285 0.744472 0.118532
H86   H     H_    0.186736 0.240107 0.682313 0.109019
C149  C     C_R   0.272081 0.343168 0.434133 0.142096
C150  C     C_R   0.290542 0.379922 0.479983 -0.134838
C151  C     C_R   0.301718 0.425873 0.450851 -0.134086
C152  C     C_R   0.294378 0.435371 0.375970 -0.106483
C153  C     C_R   0.275946 0.398855 0.330068 -0.130397
C154  C     C_R   0.264818 0.352811 0.358987 -0.145993
H87   H     H_    0.296242 0.372919 0.538101 0.111678
H88   H     H_    0.316106 0.454075 0.486307 0.114463
H89   H     H_    0.302984 0.471000 0.353539 0.114187
H90   H     H_    0.270251 0.406241 0.272107 0.119167
H91   H     H_    0.250405 0.324798 0.323094 0.104290
C155  C     C_R   0.853797 0.772116 0.538596 0.134675
C156  C     C_R   0.883505 0.798611 0.489895 -0.130740
C157  C     C_R   0.931888 0.808295 0.508201 -0.131329
C158  C     C_R   0.951026 0.791178 0.574733 -0.105913
C159  C     C_R   0.921662 0.764684 0.623371 -0.138894
C160  C     C_R   0.873120 0.755332 0.605603 -0.141942
H92   H     H_    0.869106 0.811861 0.438057 0.114289
H93   H     H_    0.954459 0.829205 0.470901 0.114290
H94   H     H_    0.988530 0.798571 0.588754 0.117550
H95   H     H_    0.936451 0.751595 0.675002 0.118862
H96   H     H_    0.850530 0.735270 0.644076 0.112934
C161  C     C_R   0.762436 0.152719 0.561068 0.138450
C162  C     C_R   0.762075 0.111593 0.515054 -0.130873
C163  C     C_R   0.763969 0.064721 0.545530 -0.135929
C164  C     C_R   0.766712 0.058669 0.621929 -0.113441
C165  C     C_R   0.767768 0.099495 0.667938 -0.137580
C166  C     C_R   0.765477 0.146422 0.637707 -0.142412
H97   H     H_    0.759488 0.115889 0.455851 0.115101
H98   H     H_    0.762877 0.033128 0.509922 0.129770
H99   H     H_    0.767791 0.022374 0.645565 0.127223
H100  H     H_    0.769777 0.094764 0.727077 0.121121
H101  H     H_    0.765136 0.177783 0.673938 0.110423
C167  C     C_R   0.227697 0.851250 0.461043 0.130655
C168  C     C_R   0.216769 0.864031 0.387948 -0.136872
C169  C     C_R   0.207483 0.912729 0.369422 -0.133771
C170  C     C_R   0.209202 0.948894 0.423606 -0.111264
C171  C     C_R   0.220079 0.936389 0.496455 -0.135143
C172  C     C_R   0.229207 0.887732 0.515247 -0.138718
H102  H     H_    0.215757 0.836356 0.345445 0.115555
H103  H     H_    0.199122 0.922459 0.313011 0.120567
H104  H     H_    0.202167 0.986594 0.409120 0.115157
H105  H     H_    0.221503 0.964372 0.538376 0.125329
H106  H     H_    0.237526 0.878436 0.571884 0.116212
C173  C     C_R   0.345645 0.723032 0.545920 0.136731
C174  C     C_R   0.355971 0.714362 0.620528 -0.143303
C175  C     C_R   0.402552 0.699679 0.641845 -0.133544
C176  C     C_R   0.438860 0.693291 0.588799 -0.115197
C177  C     C_R   0.428639 0.701719 0.514416 -0.139228
C178  C     C_R   0.382242 0.716786 0.492925 -0.137064
H107  H     H_    0.327952 0.718915 0.661917 0.111795
H108  H     H_    0.410440 0.693038 0.699412 0.119220
H109  H     H_    0.474841 0.681647 0.605283 0.114791
H110  H     H_    0.456545 0.696248 0.473356 0.116611
H111  H     H_    0.374619 0.723014 0.435121 0.112278
C179  C     C_R   0.656416 0.280495 0.445374 0.141424
C180  C     C_R   0.624163 0.302094 0.495558 -0.135311
C181  C     C_R   0.579116 0.319481 0.471499 -0.140499
C182  C     C_R   0.566149 0.315432 0.397330 -0.117831
C183  C     C_R   0.597960 0.293479 0.347241 -0.132367
C184  C     C_R   0.643047 0.276032 0.371113 -0.143373
H112  H     H_    0.634152 0.305838 0.552982 0.112215
H113  H     H_    0.554402 0.336402 0.510215 0.118492
H114  H     H_    0.531567 0.329546 0.378673 0.115769
H115  H     H_    0.587815 0.290301 0.289852 0.116996
H116  H     H_    0.667674 0.259517 0.331825 0.103718
C185  C     C_R   0.342301 0.264555 0.427726 0.140775
C186  C     C_R   0.345726 0.260879 0.350787 -0.147381
C187  C     C_R   0.390804 0.265613 0.315936 -0.136735
C188  C     C_R   0.432650 0.273870 0.357676 -0.111142
C189  C     C_R   0.429445 0.277740 0.434352 -0.134828
C190  C     C_R   0.384378 0.273098 0.469413 -0.131470
H117  H     H_    0.313628 0.253673 0.318072 0.107333
H118  H     H_    0.393360 0.262498 0.256619 0.118277
H119  H     H_    0.467526 0.277018 0.330509 0.115277
H120  H     H_    0.461900 0.284037 0.466627 0.125245
H121  H     H_    0.382257 0.275666 0.528875 0.112658
C191  C     C_R   0.784340 0.851494 0.535316 0.131329
C192  C     C_R   0.799317 0.863947 0.606783 -0.133056
C193  C     C_R   0.818080 0.910425 0.620961 -0.136157
C194  C     C_R   0.822029 0.944605 0.563961 -0.126015
C195  C     C_R   0.806432 0.932684 0.492975 -0.144256
C196  C     C_R   0.787562 0.886290 0.478598 -0.139206
H122  H     H_    0.797128 0.837430 0.651036 0.113483
H123  H     H_    0.830033 0.919780 0.675943 0.120068
H124  H     H_    0.837299 0.980290 0.574754 0.126775
H125  H     H_    0.809470 0.959212 0.448913 0.118235
H126  H     H_    0.776495 0.877076 0.423086 0.114386
C197  C     C_R   0.653789 0.734440 0.456817 0.134950
C198  C     C_R   0.644240 0.723284 0.382763 -0.140359
C199  C     C_R   0.596465 0.716330 0.358982 -0.135503
C200  C     C_R   0.557991 0.720611 0.408847 -0.112690
C201  C     C_R   0.567255 0.731459 0.482774 -0.139054
C202  C     C_R   0.615029 0.738216 0.506862 -0.133243
H127  H     H_    0.673755 0.720561 0.343444 0.113388
H128  H     H_    0.589236 0.707970 0.301775 0.119279
H129  H     H_    0.521053 0.715666 0.389960 0.110782
H130  H     H_    0.537454 0.734883 0.521355 0.124452
H131  H     H_    0.621844 0.746768 0.564159 0.115496
C203  C     C_R   0.227157 0.155919 0.565878 0.142978
C204  C     C_R   0.238047 0.144989 0.639598 -0.145728
C205  C     C_R   0.226515 0.099097 0.668686 -0.126746
C206  C     C_R   0.203966 0.064054 0.624428 -0.112412
C207  C     C_R   0.192918 0.074861 0.551006 -0.142254
C208  C     C_R   0.204524 0.120655 0.521682 -0.132638
H132  H     H_    0.255386 0.171953 0.674327 0.103344
H133  H     H_    0.234996 0.090718 0.725542 0.118971
H134  H     H_    0.194997 0.028567 0.647043 0.113013
H135  H     H_    0.175309 0.047792 0.516851 0.117440
H136  H     H_    0.195866 0.128714 0.464730 0.111454

loop_
_geom_bond_atom_site_label_1
_geom_bond_atom_site_label_2
_ccdc_geom_bond_type
Cu1   O1    S    
C154  H91   S    
C70   H34   S    
C53   C69   A    
C192  C193  A    
C77   C89   A    
C162  C163  A    
C183  H115  S    
C164  C165  A    
C205  H133  S    
C9    C113  S    
Cu1   O8    S    
C20   C179  S    
C156  C157  A    
C54   H18   S    
C159  C160  A    
C134  H74   S    
C79   C90   A    
C138  C139  A    
C43   N3    A    
C148  H86   S    
C9    C19   A    
C11   C17   A    
C8    O14   A    
C157  C158  A    
C56   C72   A    
C172  H106  S    
C96   H52   S    
C36   C97   A    
C84   C91   A    
C3    O8    A    
C17   C30   A    
C167  C172  A    
C30   C89   S    
C41   C49   A    
C133  C134  A    
C9    C26   A    
C24   C203  S    
C33   C102  S    
C52   H16   S    
C153  C154  A    
C53   H17   S    
C195  C196  A    
C35   C104  S    
C51   H15   S    
C201  H130  S    
C191  C192  A    
C13   C137  S    
C179  C180  A    
C18   C167  S    
C60   C76   A    
C181  C182  A    
C23   C31   A    
C125  C126  A    
C24   C32   A    
C188  H119  S    
C66   C82   A    
C15   C27   A    
C173  C174  A    
C54   C70   A    
C12   C18   A    
C176  C177  A    
C60   C107  A    
C137  C142  A    
C171  C172  A    
Cu1   O3    S    
Cu2   O4    S    
C67   H31   S    
C140  H79   S    
C7    O16   A    
C37   C45   A    
C39   C47   A    
C161  C166  A    
C40   C48   A    
C163  H98   S    
C116  C117  A    
Cu2   O5    S    
C6    O10   A    
C158  H94   S    
C160  H96   S    
C151  H88   S    
C42   N4    A    
C125  C130  A    
C40   N2    A    
C146  H84   S    
C198  C199  A    
C36   C99   A    
C200  C201  A    
C66   H30   S    
C178  H111  S    
C115  C116  A    
C75   H39   S    
C67   C112  A    
Cu2   N2    S    
C37   H1    S    
C98   C99   A    
C204  C205  A    
C5    O12   A    
C55   C71   A    
C175  H108  S    
C147  C148  A    
Cu2   O7    S    
C206  H134  S    
C67   C83   A    
C123  H65   S    
C100  H56   S    
C208  H136  S    
C201  C202  A    
C33   C94   A    
C72   C85   A    
C128  H69   S    
C20   C30   A    
C144  C145  A    
C191  C196  A    
C27   C88   S    
C151  C152  A    
C38   N2    A    
C207  C208  A    
C11   C25   A    
C193  H123  S    
C74   H38   S    
C177  H110  S    
C14   C24   A    
C168  H102  S    
Cu3   N3    S    
C197  C202  A    
C182  H114  S    
C78   H42   S    
Cu1   O6    S    
C61   C77   A    
Cu2   O2    S    
C204  H132  S    
C192  H122  S    
C68   H32   S    
C58   H22   S    
C194  H124  S    
C162  H97   S    
C137  C138  A    
C185  C186  A    
C62   H26   S    
C205  C206  A    
C56   H20   S    
C156  H92   S    
C159  H95   S    
C10   C20   A    
C152  H89   S    
C143  C148  A    
C82   H46   S    
C127  C128  A    
C138  H77   S    
C12   C26   A    
C38   H2    S    
C168  C169  A    
C71   C86   A    
Cu3   O11   S    
C141  H80   S    
C12   C131  S    
C189  H120  S    
C28   C87   S    
C57   H21   S    
C117  H60   S    
C18   C29   A    
C76   C87   A    
C21   C185  S    
C133  H73   S    
C136  H76   S    
C60   H24   S    
C10   C25   A    
C61   H25   S    
C42   C50   A    
C113  C114  A    
C190  H121  S    
C195  H125  S    
C35   C100  A    
C33   C96   A    
C43   H7    S    
C97   C100  A    
C69   C85   A    
C58   C74   A    
C166  H101  S    
C179  C184  A    
C155  C160  A    
C62   C78   A    
C44   N4    A    
C188  C189  A    
C95   H51   S    
C16   C155  S    
C47   H11   S    
C173  C178  A    
C5    C112  S    
C176  H109  S    
C7    C110  S    
C74   C88   A    
C169  H103  S    
C170  C171  A    
C64   C109  A    
C120  H62   S    
C26   C85   S    
C39   H3    S    
C140  C141  A    
C4    O7    A    
C117  C118  A    
C38   C46   A    
C98   H54   S    
C53   C105  A    
C144  H82   S    
C119  C120  A    
C131  C132  A    
C163  C164  A    
C63   H27   S    
C2    O2    A    
C116  H59   S    
C199  H128  S    
C11   C125  S    
Cu4   O13   S    
C50   C104  A    
C139  C140  A    
C5    O9    A    
C39   N1    A    
C94   H50   S    
C146  C147  A    
C78   C90   A    
C199  C200  A    
C36   C103  S    
C79   H43   S    
C169  C170  A    
Cu3   O9    S    
C1    O4    A    
C23   C197  S    
C80   H44   S    
C51   C103  A    
C113  C118  A    
C82   C92   A    
C6    C111  S    
C80   C89   A    
C126  H67   S    
C73   C87   A    
C71   H35   S    
C123  C124  A    
C72   H36   S    
C119  C124  A    
C13   C28   A    
C14   C27   A    
C35   C98   A    
C17   C161  S    
C114  C115  A    
C41   N3    A    
C22   C191  S    
C180  C181  A    
C64   C80   A    
C174  H107  S    
C29   C90   S    
C147  H85   S    
C207  H135  S    
C3    C106  S    
C153  H90   S    
C34   C101  S    
C54   C106  A    
C55   C106  A    
C177  C178  A    
C68   C84   A    
C34   C95   A    
C149  C154  A    
C197  C198  A    
C150  C151  A    
C145  C146  A    
Cu4   O10   S    
C6    O11   A    
C76   H40   S    
C122  C123  A    
C165  C166  A    
C48   H12   S    
C46   C102  A    
C65   C81   A    
C194  C195  A    
C59   H23   S    
C48   C102  A    
C180  H112  S    
C135  H75   S    
C3    O5    A    
C152  C153  A    
C45   C101  A    
Cu3   O16   S    
C40   H4    S    
Cu4   O15   S    
C164  H99   S    
C19   C173  S    
C19   C29   A    
C129  C130  A    
C143  C144  A    
Cu1   Cu2   S    
C206  C207  A    
C127  H68   S    
C83   H47   S    
C184  H116  S    
C52   C104  A    
C16   C22   A    
C121  C122  A    
C81   H45   S    
C59   C108  A    
C49   C103  A    
C196  H126  S    
C170  H104  S    
C124  H66   S    
C69   H33   S    
C187  C188  A    
C43   C51   A    
C44   H8    S    
C58   C108  A    
C94   C95   A    
C56   C105  A    
C81   C91   A    
C175  C176  A    
C118  H61   S    
C155  C156  A    
C7    O13   A    
C4    O6    A    
C150  H87   S    
Cu3   Cu4   S    
C16   C28   A    
C157  H93   S    
C47   C101  A    
C189  C190  A    
C34   C93   A    
C61   C109  A    
C63   C79   A    
C120  C121  A    
C83   C92   A    
Cu4   O12   S    
C13   C23   A    
C134  C135  A    
C200  H129  S    
C167  C168  A    
C141  C142  A    
C187  H118  S    
C32   C91   S    
C99   H55   S    
C8    O15   A    
C57   C73   A    
C131  C136  A    
C2    C107  S    
C97   H53   S    
C41   H5    S    
C65   C111  A    
C50   H14   S    
Cu3   O14   S    
C1    O1    A    
C121  H63   S    
C132  C133  A    
C45   H9    S    
C139  H78   S    
C84   H48   S    
C132  H72   S    
C129  H70   S    
C93   H49   S    
C202  H131  S    
C203  C204  A    
C198  H127  S    
C14   C143  S    
C171  H105  S    
C21   C32   A    
C22   C31   A    
Cu4   N4    S    
C185  C190  A    
C126  C127  A    
C64   H28   S    
C161  C162  A    
C49   H13   S    
C165  H100  S    
C135  C136  A    
C186  C187  A    
C68   C111  A    
C183  C184  A    
C114  H57   S    
C62   C110  A    
C158  C159  A    
C203  C208  A    
C174  C175  A    
C57   C107  A    
C31   C92   S    
C93   C96   A    
C122  H64   S    
C2    O3    A    
C65   H29   S    
C149  C150  A    
C70   C86   A    
C59   C75   A    
C15   C149  S    
C42   H6    S    
Cu1   N1    S    
C115  H58   S    
C145  H83   S    
C46   H10   S    
C181  H113  S    
C4    C105  S    
C142  H81   S    
C63   C110  A    
C8    C109  S    
C44   C52   A    
C128  C129  A    
C55   H19   S    
C25   C86   S    
C130  H71   S    
C182  C183  A    
C1    C108  S    
C37   N1    A    
C75   C88   A    
C15   C21   A    
C193  C194  A    
C73   H37   S    
C186  H117  S    
C66   C112  A    
C10   C119  S    
C77   H41   S    
