data_mof_unit_14975.cif
_audit_creation_date              2012-12-10T18:10:56-0500
_audit_creation_method            fapswitch 2.2
_symmetry_space_group_name_H-M    P1
_symmetry_Int_Tables_number       1
_space_group_crystal_system       triclinic
_cell_length_a                    12.647697
_cell_length_b                    13.172616
_cell_length_c                    15.743618
_cell_angle_alpha                 90.703666
_cell_angle_beta                  103.032488
_cell_angle_gamma                 82.883557
_cell_volume                      2535.35924525

loop_
_atom_site_label
_atom_site_type_symbol
_atom_type_description
_atom_site_fract_x
_atom_site_fract_y
_atom_site_fract_z
_atom_type_partial_charge
C1    C     C_R   0.439201 0.690786 0.484615 0.882847
C2    C     C_R   0.597352 0.198255 0.509148 -0.153352
C3    C     C_R   0.293831 0.836441 0.474375 -0.215435
C4    C     C_R   0.501342 0.500138 0.661635 0.917443
C5    C     C_R   0.259096 0.941802 0.471604 0.292733
C6    C     C_R   0.335693 0.009081 0.468472 -0.268338
C7    C     C_R   0.444403 0.972329 0.463443 0.074901
C8    C     C_R   0.470500 0.867442 0.449950 0.089079
C9    C     C_R   0.529044 0.035470 0.472915 0.107858
C10   C     C_R   0.631864 0.996447 0.456429 0.121918
C11   C     C_R   0.647700 0.897246 0.426175 -0.224213
C12   C     C_3   0.478579 0.609494 0.046436 -0.412281
C13   C     C_R   0.567319 0.833642 0.421897 -0.163706
C14   C     C_R   0.515688 0.134855 0.502408 -0.256363
C15   C     C_R   0.704018 0.156792 0.502364 0.219971
C16   C     C_R   0.561138 0.308344 0.510938 0.871395
C17   C     C_R   0.400019 0.799284 0.466757 -0.167501
C18   C     C_R   0.084102 0.346887 0.380560 -0.335929
C19   C     C_R   0.805470 0.625956 0.606910 0.298044
C20   C     C_R   0.913891 0.640041 0.638787 -0.339149
C21   C     C_R   0.995985 0.584420 0.606313 0.183387
C22   C     C_R   0.966858 0.521361 0.532941 -0.016457
C23   C     C_3   0.500310 0.498129 0.082829 0.285674
C24   C     C_R   0.855134 0.502744 0.506691 0.120897
C25   C     C_R   0.043371 0.473445 0.486371 0.000365
C26   C     C_R   0.010063 0.398648 0.423916 0.125286
C27   C     C_R   0.902685 0.376747 0.403945 -0.250398
C28   C     C_R   0.498751 0.499666 0.338442 0.895133
C29   C     C_R   0.826390 0.428703 0.444193 -0.126514
C30   C     C_R   0.150752 0.499013 0.496327 -0.075574
C31   C     C_R   0.190592 0.369817 0.397721 0.305014
C32   C     C_3   0.483143 0.609870 0.949321 -0.391820
C33   C     C_3   0.615989 0.448259 0.972486 -0.438557
C34   C     C_3   0.409774 0.437960 0.030631 -0.439293
C35   C     C_3   0.613242 0.445203 0.070619 0.078338
C36   C     C_1   0.496378 0.498602 0.249056 -0.148592
C37   C     C_3   0.504493 0.498812 0.918289 0.320464
C38   C     C_3   0.903727 0.170162 0.526331 -0.826023
C39   C     C_3   0.076474 0.916490 0.496719 -0.816923
C40   C     C_3   0.151088 0.496007 0.708168 -0.778709
C41   C     C_3   0.807140 0.428117 0.148176 -0.797793
C42   C     C_3   0.412672 0.438001 0.933108 -0.410921
C43   C     C_1   0.496872 0.498113 0.173787 -0.076184
C44   C     C_1   0.505525 0.499483 0.826875 -0.101346
C45   C     C_1   0.504477 0.499983 0.751267 -0.168310
C46   C     C_R   0.718525 0.055941 0.472414 -0.213136
H1    H     H_    0.539041 0.657195 0.084035 0.168068
H2    H     H_    0.549233 0.654369 0.940297 0.177744
H3    H     H_    0.582295 0.757684 0.396888 0.168216
H4    H     H_    0.877113 0.319345 0.356303 0.158230
H5    H     H_    0.059217 0.289139 0.333068 0.170195
H6    H     H_    0.179212 0.563376 0.533120 0.179443
H7    H     H_    0.935159 0.690829 0.692946 0.172493
H8    H     H_    0.745872 0.407129 0.426630 0.220360
H9    H     H_    0.633893 0.368849 0.949971 0.156839
H10   H     H_    0.682470 0.491299 0.961904 0.182847
H11   H     H_    0.620454 0.363492 0.091466 0.139701
H12   H     H_    0.404493 0.648639 0.909824 0.175267
H13   H     H_    0.331982 0.472935 0.894108 0.177034
H14   H     H_    0.426737 0.357786 0.911188 0.174665
H15   H     H_    0.327918 0.473282 0.038434 0.191301
H16   H     H_    0.791954 0.257383 0.583541 0.247537
H17   H     H_    0.961674 0.227242 0.547437 0.252021
H18   H     H_    0.908519 0.147252 0.459055 0.249453
H19   H     H_    0.928873 0.103655 0.572207 0.241985
H20   H     H_    0.137905 0.057186 0.492707 0.225437
H21   H     H_    0.995560 0.960709 0.494691 0.234344
H22   H     H_    0.110579 0.884901 0.563768 0.241148
H23   H     H_    0.396442 0.645334 0.053139 0.178322
H24   H     H_    0.062937 0.853780 0.449238 0.246892
H25   H     H_    0.120733 0.652832 0.686380 0.224056
H26   H     H_    0.239142 0.499963 0.736559 0.239274
H27   H     H_    0.143982 0.425222 0.669299 0.252170
H28   H     H_    0.107844 0.492417 0.761968 0.237620
H29   H     H_    0.710591 0.565373 0.104426 0.235728
H30   H     H_    0.867224 0.469955 0.193112 0.252361
H31   H     H_    0.838949 0.406905 0.089275 0.240833
H32   H     H_    0.797788 0.357801 0.182596 0.240165
H33   H     H_    0.421696 0.357704 0.055667 0.177270
H34   H     H_    0.723717 0.867550 0.408786 0.146274
H35   H     H_    0.797114 0.022017 0.462664 0.144068
H36   H     H_    0.440804 0.165452 0.520195 0.174377
H37   H     H_    0.239579 0.782629 0.484129 0.168822
H38   H     H_    0.307124 0.089786 0.467294 0.147348
I1    I     I_    0.293314 0.287183 0.324680 -0.389708
I2    I     I_    0.696807 0.715607 0.671395 -0.364054
N1    N     N_R   0.222200 0.444690 0.455710 -0.126182
N2    N     N_R   0.776960 0.554780 0.543830 -0.149655
N3    N     N_2   0.793960 0.215532 0.528030 -0.290971
N4    N     N_2   0.149024 0.982450 0.472836 -0.299503
N5    N     N_2   0.105883 0.585763 0.653815 -0.322849
N6    N     N_2   0.703418 0.492624 0.124038 -0.296034
O1    O     O_R   0.366740 0.627160 0.478850 -0.627898
O2    O     O_R   0.544830 0.662520 0.507140 -0.588290
O3    O     O_R   0.410920 0.482310 0.608710 -0.615906
O4    O     O_R   0.589010 0.517670 0.637000 -0.582842
O5    O     O_R   0.455170 0.337480 0.492860 -0.587563
O6    O     O_R   0.633260 0.372840 0.521150 -0.642830
O7    O     O_R   0.410990 0.482330 0.363000 -0.578332
O8    O     O_R   0.589080 0.517690 0.391290 -0.646717
Zn1   Zn    Zn3+2 0.381090 0.476390 0.481110 0.967313
Zn2   Zn    Zn3+2 0.618910 0.523610 0.518890 0.954185

loop_
_geom_bond_atom_site_label_1
_geom_bond_atom_site_label_2
_ccdc_geom_bond_type
C33   H9    S    
C12   H23   S    
C8    C13   A    
C31   I1    S    
O4    Zn2   S    
C27   C29   A    
C39   H22   S    
C19   C20   A    
C18   C26   A    
C32   H12   S    
C19   I2    S    
C7    C8    A    
H20   N4    S    
C38   N3    S    
C26   C27   A    
C41   H31   S    
C5    C6    A    
C16   O5    A    
C29   H8    S    
C46   H35   S    
H16   N3    S    
C23   C43   S    
C40   H27   S    
C37   C42   S    
C24   C29   A    
C4    O4    A    
C1    O2    A    
C22   C25   A    
C34   C42   S    
C10   C46   A    
C2    C16   S    
C9    C10   A    
C39   N4    S    
C5    N4    S    
C27   H4    S    
C35   N6    S    
C28   O8    A    
C33   H10   S    
N1    Zn1   S    
C21   C22   A    
C12   C32   S    
C32   H2    S    
C12   H1    S    
C18   H5    S    
C38   H18   S    
C4    C45   S    
C31   N1    A    
C6    H38   S    
C19   N2    A    
C11   H34   S    
O1    Zn1   S    
C41   H32   S    
C25   C26   A    
O6    Zn2   S    
C34   H15   S    
C33   C37   S    
C9    C14   A    
C34   H33   S    
C15   N3    S    
C4    O3    A    
C12   C23   S    
C38   H19   S    
C23   C34   S    
O8    Zn2   S    
C32   C37   S    
C2    C15   A    
C24   N2    A    
O2    Zn2   S    
H29   N6    S    
C13   H3    S    
C28   O7    A    
O7    Zn1   S    
C23   C35   S    
C3    H37   S    
C22   C24   A    
C14   H36   S    
C42   H14   S    
C44   C45   T    
C38   H17   S    
C21   N5    S    
C25   C30   A    
C7    C9    A    
C30   H6    S    
C40   H26   S    
C39   H21   S    
C20   H7    S    
C3    C5    A    
C42   H13   S    
N2    Zn2   S    
C6    C7    A    
C1    C17   S    
C8    C17   A    
C35   H11   S    
C37   C44   S    
C41   H30   S    
C11   C13   A    
C16   O6    A    
C33   C35   S    
C39   H24   S    
C40   H28   S    
C3    C17   A    
C40   N5    S    
C2    C14   A    
C10   C11   A    
C41   N6    S    
H25   N5    S    
C20   C21   A    
C28   C36   S    
C1    O1    A    
C36   C43   T    
C18   C31   A    
C15   C46   A    
C30   N1    A    
O5    Zn1   S    
O3    Zn1   S    
