data_mof_unit_7091.cif
_audit_creation_date              2012-12-10T17:56:18-0500
_audit_creation_method            fapswitch 2.2
_symmetry_space_group_name_H-M    P1
_symmetry_Int_Tables_number       1
_space_group_crystal_system       triclinic
_cell_length_a                    12.982132
_cell_length_b                    10.83023
_cell_length_c                    9.53502
_cell_angle_alpha                 90.273795
_cell_angle_beta                  96.504271
_cell_angle_gamma                 90.506408
_cell_volume                      1331.91523778

loop_
_atom_site_label
_atom_site_type_symbol
_atom_type_description
_atom_site_fract_x
_atom_site_fract_y
_atom_site_fract_z
_atom_type_partial_charge
C1    C     C_R   0.499868 0.262126 0.499742 0.787416
C2    C     C_R   0.500132 0.737874 0.500258 0.787411
C3    C     C_R   0.500148 0.871748 0.500298 -0.015283
C4    C     C_R   0.499851 0.128251 0.499702 -0.015285
C5    C     C_R   0.436105 0.421295 0.063663 0.358461
C6    C     C_R   0.563897 0.578702 0.936336 0.358460
C7    C     C_R   0.437374 0.420943 0.914755 -0.147081
C8    C     C_R   0.562628 0.579056 0.085245 -0.147075
C9    C     C_R   0.300475 0.500710 0.473458 0.809324
C10   C     C_R   0.699525 0.499293 0.526542 0.809324
C11   C     C_R   0.812316 0.495305 0.541573 -0.048088
C12   C     C_R   0.187684 0.504703 0.458429 -0.048086
C13   C     C_R   0.024921 0.555892 0.322791 -0.217294
C14   C     C_R   0.975080 0.444125 0.677215 -0.217300
C15   C     C_R   0.132379 0.547779 0.333692 -0.199445
C16   C     C_R   0.867622 0.452240 0.666315 -0.199442
C17   C     C_R   0.135089 0.469823 0.572612 -0.266159
C18   C     C_R   0.864911 0.530184 0.427390 -0.266164
C19   C     C_R   0.027757 0.478311 0.562974 0.175845
C20   C     C_R   0.972243 0.521700 0.437030 0.175845
C21   C     C_R   0.510636 0.063380 0.374892 -0.184637
C22   C     C_R   0.489363 0.936620 0.625108 -0.184640
C23   C     C_R   0.510750 0.935635 0.375162 -0.187636
C24   C     C_R   0.489249 0.064365 0.624838 -0.187634
Cu1   Cu    Cu3+1 0.500000 0.500020 0.640660 0.958748
Cu2   Cu    Cu3+1 0.500000 0.499980 0.359340 0.958749
H1    H     H_    0.822361 0.563719 0.330769 0.145706
H2    H     H_    0.177638 0.436283 0.669231 0.145703
H3    H     H_    0.827708 0.422023 0.753875 0.151267
H4    H     H_    0.172293 0.578007 0.246136 0.151249
H5    H     H_    0.983215 0.589836 0.225915 0.134693
H6    H     H_    0.016786 0.410187 0.774093 0.134693
H7    H     H_    0.519565 0.111027 0.277351 0.140536
H8    H     H_    0.480434 0.888973 0.722649 0.140532
H9    H     H_    0.519547 0.887184 0.277633 0.144754
H10   H     H_    0.480452 0.112816 0.722367 0.144754
H11   H     H_    0.388111 0.357319 0.849400 0.144369
H12   H     H_    0.611892 0.642678 0.150600 0.144375
N1    N     N_R   0.500030 0.500030 0.852080 -0.186115
N2    N     N_R   0.499970 0.499970 0.147920 -0.186115
O1    O     O_R   0.499990 0.319660 0.618740 -0.595511
O2    O     O_R   0.500010 0.680340 0.381260 -0.595511
O3    O     O_R   0.499990 0.319630 0.381170 -0.569385
O4    O     O_R   0.500010 0.680370 0.618830 -0.569397
O5    O     O_R   0.349000 0.499990 0.599490 -0.590486
O6    O     O_R   0.651000 0.500010 0.400510 -0.590487
O7    O     O_R   0.348990 0.499960 0.361920 -0.549932
O8    O     O_R   0.651010 0.500040 0.638080 -0.549925
N3    N     N_2   0.370136 0.337826 0.126233 -0.373894
H13   H     H_    0.394379 0.247647 0.121863 0.226539
C25   C     C_3   0.260618 0.349844 0.079962 -0.708762
H14   H     H_    0.215281 0.299673 0.154008 0.237563
H15   H     H_    0.241556 0.309634 0.972658 0.193744
H16   H     H_    0.237790 0.448397 0.078479 0.230771
N4    N     N_2   0.629871 0.662165 0.873765 -0.373896
H17   H     H_    0.605624 0.752341 0.878107 0.226560
C26   C     C_3   0.739387 0.650159 0.920057 -0.708828
H18   H     H_    0.784730 0.700292 0.845992 0.237581
H19   H     H_    0.762214 0.551607 0.921599 0.230764
H20   H     H_    0.758441 0.690416 0.027337 0.193760

loop_
_geom_bond_atom_site_label_1
_geom_bond_atom_site_label_2
_ccdc_geom_bond_type
C12   C17   A    
C10   O6    A    
C2    O4    A    
N4    H17   S    
C11   C18   A    
C9    O5    A    
C11   C16   A    
C18   C20   A    
C19   C20   A    
C12   C15   A    
C6    N4    S    
C1    C4    S    
C5    N3    S    
C25   H16   S    
C22   C24   A    
C21   C23   A    
C2    C3    S    
C7    H11   S    
Cu1   N1    S    
C4    C21   A    
Cu1   O8    S    
Cu2   N2    S    
C26   H18   S    
C24   H10   S    
C8    H12   S    
Cu2   O7    S    
C2    O2    A    
C4    C24   A    
Cu1   O4    S    
C1    O1    A    
C17   C19   A    
C1    O3    A    
Cu2   O3    S    
C9    O7    A    
C23   H9    S    
N4    C26   S    
C13   C15   A    
C10   O8    A    
C22   H8    S    
C9    C12   S    
C14   C16   A    
C26   H19   S    
C16   H3    S    
C21   H7    S    
C10   C11   S    
Cu2   O6    S    
C25   H14   S    
Cu1   O5    S    
Cu2   O2    S    
C15   H4    S    
N3    H13   S    
C5    N2    A    
Cu1   O1    S    
C5    C7    A    
C7    N1    A    
C6    N1    A    
C3    C22   A    
C6    C8    A    
C8    N2    A    
C13   C20   A    
C25   H15   S    
Cu1   Cu2   S    
C17   H2    S    
C3    C23   A    
C14   C19   A    
C13   H5    S    
C18   H1    S    
N3    C25   S    
C14   H6    S    
C26   H20   S    
