data_mof_unit_22710.cif
_audit_creation_date              2013-03-05T16:18:34-0500
_audit_creation_method            fapswitch 2.2
_symmetry_space_group_name_H-M    P1
_symmetry_Int_Tables_number       1
_space_group_crystal_system       triclinic
_cell_length_a                    8.358556
_cell_length_b                    18.827155
_cell_length_c                    22.934552
_cell_angle_alpha                 99.735384
_cell_angle_beta                  89.689223
_cell_angle_gamma                 91.733274
_cell_volume                      3555.55824595

loop_
_atom_site_label
_atom_site_type_symbol
_atom_site_description
_atom_site_fract_x
_atom_site_fract_y
_atom_site_fract_z
_atom_type_partial_charge
P1    P     P_3+3 0.935930 0.665430 0.555670 0.502882
O1    O     O_2   0.110690 0.676100 0.539200 -0.366771
O2    O     O_3   0.863220 0.586720 0.534720 -0.369155
O3    O     O_3   0.368310 0.629070 0.432760 -0.382461
O4    O     O_2   0.246364 0.752637 0.475134 -0.355253
O5    O     O_3   0.897364 0.694670 0.632417 -0.584581
O6    O     O_3   0.345167 0.738270 0.365777 -0.453961
H1    H     H_    0.373693 0.636499 0.317534 0.127987
C1    C     C_3   0.440614 0.718313 0.266275 -0.903988
H2    H     H_    0.318183 0.720710 0.248609 0.302848
H3    H     H_    0.498338 0.772972 0.272645 0.245826
P2    P     P_3+3 0.382700 0.439650 0.365620 0.468929
P3    P     P_3+3 0.944744 0.590137 0.325289 0.556634
O7    O     O_2   0.210480 0.460990 0.358130 -0.309924
O8    O     O_3   0.959520 0.592090 0.401630 -0.351347
O9    O     O_2   0.066569 0.534607 0.296949 -0.268477
O10   O     O_3   0.376333 0.345966 0.343193 -0.626515
O11   O     O_3   0.026476 0.670718 0.307009 -0.478233
C2    C     C_3   0.906349 0.719668 0.299708 0.416843
H4    H     H_    0.787387 0.693532 0.289359 -0.114503
C3    C     C_3   0.952882 0.759104 0.248469 -0.725245
H5    H     H_    0.072059 0.786643 0.257336 0.244406
C4    C     C_3   0.751093 0.332020 0.336731 0.495255
H6    H     H_    0.670156 0.367833 0.365360 0.088771
C5    C     C_3   0.665984 0.260331 0.311424 -1.028236
H7    H     H_    0.601633 0.237953 0.346681 0.282010
H8    H     H_    0.575586 0.267478 0.277662 0.243196
H9    H     H_    0.753869 0.220868 0.290227 0.255264
Ba1   Ba    Ba6+2 0.157800 0.534120 0.474430 1.649093
C6    C     C_3   0.970626 0.658518 0.673633 0.771064
C7    C     C_3   0.894445 0.679610 0.735905 -0.687026
H10   H     H_    0.889111 0.739363 0.747225 0.234833
H11   H     H_    0.971902 0.662107 0.769919 0.101754
C8    C     C_3   0.283147 0.310930 0.381148 0.952143
H12   H     H_    0.183233 0.344101 0.401014 0.065037
C9    C     C_3   0.212931 0.241721 0.344953 -0.879994
H13   H     H_    0.136812 0.254647 0.308851 0.245490
H14   H     H_    0.139468 0.211406 0.373333 0.207560
H15   H     H_    0.310160 0.206665 0.324918 0.242714
P4    P     P_3+3 0.874370 0.334570 0.444280 0.524964
O12   O     O_2   0.699610 0.323860 0.460780 -0.364716
O13   O     O_3   0.947090 0.413280 0.465240 -0.305757
O14   O     O_3   0.442000 0.370930 0.567190 -0.371908
O15   O     O_3   0.890047 0.318033 0.366543 -0.585304
P5    P     P_3+3 0.868518 0.413659 0.675432 0.506643
O16   O     O_3   0.359410 0.538600 0.570730 -0.383415
O17   O     O_3   0.850780 0.407910 0.598320 -0.327334
O18   O     O_2   0.719818 0.454840 0.700758 -0.357747
O19   O     O_3   0.821846 0.328435 0.693409 -0.551603
Ba2   Ba    Ba6+2 0.652390 0.465870 0.525520 1.631941
P6    P     P_3+3 0.387763 0.721405 0.436655 0.486671
C10   C     C_3   0.433370 0.690783 0.324832 0.518239
H16   H     H_    0.558003 0.686553 0.340096 -0.049931
H17   H     H_    0.511148 0.681579 0.233634 0.202756
O20   O     O_3   0.450900 0.461390 0.429220 -0.407870
C11   C     C_3   0.505142 0.689683 0.611318 0.404007
H18   H     H_    0.607562 0.659247 0.590412 0.008490
H19   H     H_    0.406647 0.685221 0.578478 0.048182
C12   C     C_3   0.558168 0.769859 0.628974 1.001805
H20   H     H_    0.616549 0.787455 0.590002 -0.352811
P7    P     P_3+3 0.424514 0.567161 0.644090 0.438376
O21   O     O_2   0.599830 0.538970 0.641850 -0.328933
O22   O     O_3   0.454377 0.661332 0.661408 -0.552015
H21   H     H_    0.864495 0.801093 0.244710 0.133519
C13   C     C_3   0.955557 0.283924 0.685126 0.756000
H22   H     H_    0.027151 0.293655 0.645993 -0.186407
C14   C     C_3   0.897523 0.203574 0.673667 0.024834
P8    P     P_3+3 0.421763 0.277217 0.563763 0.478581
C15   C     C_3   0.415331 0.315208 0.676591 0.411593
H23   H     H_    0.289839 0.329342 0.669742 0.052539
O23   O     O_2   0.559931 0.243175 0.524616 -0.348876
O24   O     O_3   0.461715 0.256865 0.633875 -0.518480
H24   H     H_    0.494348 0.363085 0.674693 0.161208
H25   H     H_    0.386624 0.340374 0.771621 0.214239
C16   C     C_3   0.429360 0.295478 0.737929 -0.740227
H26   H     H_    0.555887 0.285726 0.747599 0.283992
H27   H     H_    0.355915 0.246012 0.740669 0.263611
C17   C     C_R   0.999750 0.951076 0.524847 -0.032564
C18   C     C_R   0.064272 0.906567 0.562458 0.480164
C19   C     C_R   0.224369 0.043543 0.538868 -0.123133
C20   C     C_R   0.067286 0.020985 0.520042 0.068371
C21   C     C_R   0.279490 0.114671 0.540886 -0.132286
C22   C     C_R   0.181639 0.166109 0.522742 -0.100200
C23   C     C_R   0.034400 0.142344 0.494941 -0.014864
C24   C     C_R   0.978408 0.069302 0.492709 0.074534
C25   C     C_R   0.224723 0.240505 0.532033 0.070204
C26   C     C_R   0.116889 0.289822 0.515175 0.174761
C27   C     C_R   0.984916 0.266315 0.479163 0.145234
C28   C     C_R   0.942466 0.191555 0.469456 -0.140664
C29   C     C_R   0.854103 0.927038 0.495023 -0.009079
C30   C     C_R   0.790515 0.855281 0.495379 0.071709
C31   C     C_R   0.879693 0.806281 0.522385 0.004509
C32   C     C_R   0.009336 0.834543 0.558323 -0.272230
H28   H     H_    0.398089 0.129007 0.558362 0.211762
H29   H     H_    0.066947 0.801737 0.585483 0.216628
C33   C     C_R   0.809172 0.164413 0.435734 -0.023814
C34   C     C_R   0.756692 0.093249 0.432059 -0.192240
C35   C     C_R   0.832770 0.045621 0.463797 0.085769
C36   C     C_R   0.768811 0.975257 0.466494 0.077303
C37   C     C_R   0.613879 0.954522 0.446292 -0.213522
C38   C     C_R   0.636585 0.833533 0.470481 -0.058923
C39   C     C_R   0.545347 0.887123 0.449711 -0.124047
C40   C     C_R   0.585087 0.759549 0.466804 0.102359
C41   C     C_R   0.688439 0.709852 0.485496 -0.496153
C42   C     C_R   0.831761 0.731730 0.515663 0.326215
H30   H     H_    0.741537 0.197992 0.412468 0.162838
H31   H     H_    0.649844 0.653836 0.481067 0.160827
H32   H     H_    0.309243 0.006592 0.551034 0.183819
H33   H     H_    0.655765 0.077247 0.403300 0.127380
H34   H     H_    0.536112 0.992889 0.431981 0.144418
H35   H     H_    0.050893 0.477683 0.093796 0.214914
H36   H     H_    0.977845 0.462441 0.989487 0.165967
C43   C     C_R   0.643381 0.525058 0.337113 -0.459055
C44   C     C_R   0.489482 0.510290 0.932672 -0.066635
C45   C     C_R   0.443553 0.501614 0.872672 0.526832
O25   O     O_2   0.547602 0.498390 0.834789 -0.583002
N1    N     N_R   0.282549 0.495604 0.856687 -0.162160
C46   C     C_R   0.167507 0.493065 0.900594 0.524820
O26   O     O_2   0.025430 0.494868 0.889225 -0.621163
C47   C     C_R   0.212333 0.491353 0.959398 -0.036048
C48   C     C_R   0.373146 0.503368 0.975977 -0.012626
C49   C     C_R   0.648958 0.526285 0.950555 -0.079178
C50   C     C_R   0.692017 0.532126 0.009983 -0.143054
C51   C     C_R   0.578668 0.519447 0.052736 -0.041478
C52   C     C_R   0.417781 0.508243 0.036162 -0.009961
C53   C     C_R   0.099045 0.479154 0.002332 -0.146969
C54   C     C_R   0.141794 0.486441 0.061856 -0.064478
C55   C     C_R   0.301259 0.502381 0.079572 -0.064745
C56   C     C_R   0.346967 0.512298 0.139588 0.540795
N2    N     N_R   0.508065 0.515539 0.155500 -0.166887
C57   C     C_R   0.623207 0.516461 0.111388 0.512253
C58   C     C_2   0.101287 0.457213 0.771307 -0.191282
C59   C     C_3   0.047935 0.467286 0.710874 0.275751
C60   C     C_1   0.306634 0.522509 0.696265 0.194114
C61   C     C_2   0.333983 0.533973 0.754230 -0.188651
C62   C     C_2   0.235381 0.494099 0.794805 0.110198
C63   C     C_R   0.696117 0.555806 0.240698 -0.219012
C64   C     C_R   0.743660 0.556303 0.299025 0.185987
C65   C     C_R   0.503050 0.487564 0.315911 0.220491
C66   C     C_R   0.463557 0.481114 0.255866 -0.220353
C67   C     C_R   0.555307 0.517892 0.217434 0.115947
O27   O     O_2   0.242788 0.519401 0.177497 -0.539315
O28   O     O_2   0.764815 0.512141 0.122397 -0.609287
C68   C     C_2   0.188766 0.478806 0.672214 -0.466279
H37   H     H_    0.813285 0.548487 0.022988 0.167508
H38   H     H_    0.770847 0.585189 0.214162 0.166344
H39   H     H_    0.739935 0.535748 0.918822 0.210774
H40   H     H_    0.419619 0.575857 0.772911 0.177322
H41   H     H_    0.027046 0.424565 0.795749 0.200138
H42   H     H_    0.362226 0.446568 0.239531 0.194373
H43   H     H_    0.679444 0.526319 0.382516 0.173391
H44   H     H_    0.168800 0.471535 0.625261 0.182150
C69   C     C_2   0.137528 0.686292 0.683661 0.452487
H45   H     H_    0.211218 0.665169 0.715162 0.029316
O29   O     O_2   0.183931 0.738340 0.662472 -0.526377
O30   O     O_3   0.959753 0.583866 0.655713 -0.788943
H46   H     H_    0.034611 0.571426 0.622259 0.305625
C70   C     C_2   0.733551 0.646764 0.744649 0.827674
H47   H     H_    0.717830 0.588913 0.738639 0.064404
O31   O     O_2   0.623162 0.684841 0.763878 -0.543112
O32   O     O_3   0.380563 0.292578 0.425168 -0.761799
H48   H     H_    0.398621 0.337475 0.453983 0.358198
O33   O     O_3   0.664569 0.778471 0.677086 -0.694346
H49   H     H_    0.738143 0.820445 0.673329 0.312836
O34   O     O_3   0.426536 0.813591 0.644116 -0.709349
H50   H     H_    0.467978 0.864254 0.649995 0.321910
O35   O     O_3   0.054712 0.297640 0.735270 -0.830418
H51   H     H_    0.985310 0.299556 0.770693 0.324932
C71   C     C_2   0.811140 0.187123 0.615345 0.666047
H52   H     H_    0.814623 0.225729 0.585216 -0.021707
O36   O     O_2   0.737835 0.129758 0.600971 -0.537453
C72   C     C_2   0.039668 0.155045 0.670547 0.540579
H53   H     H_    0.147515 0.168452 0.647623 -0.014094
O37   O     O_2   0.035579 0.101068 0.693933 -0.476958
O38   O     O_3   0.789192 0.189784 0.718087 -0.651021
H54   H     H_    0.848836 0.192868 0.755796 0.344798
C73   C     C_2   0.892121 0.774572 0.354911 0.536344
H55   H     H_    0.792848 0.810978 0.359611 -0.047691
O39   O     O_2   0.992984 0.779955 0.393885 -0.506260
O40   O     O_3   0.139088 0.362146 0.534147 -0.692152
H56   H     H_    0.157971 0.366613 0.576959 0.293554
C74   C     C_2   0.372199 0.881899 0.437577 0.661422
H57   H     H_    0.289550 0.875402 0.472691 0.026923
O41   O     O_2   0.320603 0.891081 0.389767 -0.553174
O42   O     O_3   0.171242 0.935433 0.606460 -0.737030
H58   H     H_    0.193280 0.899109 0.631861 0.363814
C75   C     C_2   0.955793 0.708254 0.190562 0.753045
H59   H     H_    0.844706 0.684143 0.171143 -0.026619
O43   O     O_2   0.081925 0.694931 0.164330 -0.558090
C76   C     C_2   0.799190 0.369154 0.285991 0.441957
H60   H     H_    0.715504 0.369336 0.248962 -0.002979
O44   O     O_2   0.930454 0.401574 0.286704 -0.503556

loop_
_geom_bond_atom_site_label_1
_geom_bond_atom_site_label_2
_geom_bond_distance
_ccdc_geom_bond_type
C26   C27   1.396982 A    
C37   H34   1.078403 S    
O34   H50   0.992475 S    
C21   H28   1.080628 S    
P2    Ba1   3.402216 S    
P8    C25   1.869174 S    
C71   H52   1.083967 S    
C43   H43   1.081832 S    
O33   H49   1.001579 S    
C8    O32   1.394837 S    
C55   C56   1.410633 A    
C34   C35   1.413710 A    
O42   H58   0.992225 S    
C61   C62   1.516351 S    
C43   C64   1.395572 A    
O40   H56   0.984373 S    
C5    H9    1.111288 S    
C38   C39   1.428125 A    
O19   C13   1.409949 S    
P3    O11   1.758793 S    
C53   C54   1.396113 A    
O1    Ba1   2.867310 S    
C9    H13   1.110309 S    
C2    C3    1.534992 S    
O6    C10   1.404686 S    
C18   C32   1.406372 A    
C6    C7    1.554494 S    
Ba1   O13   2.814565 S    
C47   C53   1.404362 A    
C13   C14   1.554140 S    
P6    C40   1.867334 S    
C45   O25   1.221517 D    
O11   C2    1.412642 S    
C11   H18   1.106085 S    
O2    Ba1   2.933062 S    
P1    O1    1.522737 D    
P7    O22   1.760567 S    
N2    C67   1.469433 S    
C46   O26   1.219930 D    
C3    H21   1.112307 S    
C33   H30   1.069094 S    
C24   C35   1.412889 A    
C26   O40   1.364957 S    
C74   H57   1.078387 S    
C44   C48   1.405199 A    
C6    C69   1.480263 S    
C2    H4    1.104840 S    
C14   O38   1.410817 S    
O14   P8    1.755826 S    
C73   O39   1.221631 D    
P2    O10   1.751059 S    
C52   C55   1.404320 A    
C4    H6    1.102936 S    
C43   C65   1.396639 A    
O8    Ba1   2.735205 S    
C69   O29   1.217727 D    
C1    H2    1.107658 S    
H1    C10   1.110660 S    
H36   C53   1.079212 S    
O3    Ba1   2.752144 S    
C12   O34   1.401075 S    
C58   C62   1.364503 D    
O16   Ba2   2.939776 S    
C6    O30   1.396390 S    
C12   H20   1.110134 S    
C38   C40   1.434217 A    
C3    H5    1.112556 S    
C70   O31   1.220015 D    
C58   H41   1.080188 S    
C71   O36   1.221594 D    
C15   H23   1.108398 S    
C1    C10   1.519377 S    
C30   C38   1.430445 A    
C8    H12   1.107357 S    
P1    Ba1   3.421192 S    
C41   C42   1.402219 A    
O2    Ba2   2.815302 S    
C72   O37   1.226221 D    
P7    C60   1.840306 S    
O32   H48   0.989170 S    
O17   Ba2   2.735676 S    
C74   O41   1.221456 D    
Ba1   Ba2   4.582311 S    
P5    O17   1.760270 S    
C11   O22   1.404654 S    
H25   C16   1.110638 S    
O16   P7    1.761330 S    
P1    O5    1.783824 S    
C39   C74   1.472479 S    
C50   H37   1.079167 S    
C63   H38   1.074900 S    
C50   C51   1.404078 A    
C66   C67   1.418261 A    
C19   C21   1.396298 A    
O35   H51   0.992008 S    
C17   C18   1.419164 A    
C58   C59   1.502187 S    
C56   O27   1.221295 D    
O3    P6    1.728287 S    
C45   N1    1.392979 Am   
C5    H7    1.103380 S    
C14   C71   1.504403 S    
C4    O15   1.404921 S    
C51   C57   1.408362 A    
P1    O2    1.582433 S    
C15   O24   1.405105 S    
C16   H26   1.108800 S    
C76   H60   1.103669 S    
C48   C52   1.418998 A    
C34   H33   1.077462 S    
C7    H10   1.113154 S    
P5    O19   1.755222 S    
C7    C70   1.489950 S    
P8    O24   1.750985 S    
C33   C34   1.386103 A    
C22   C25   1.416460 A    
C37   C39   1.390550 A    
C19   H32   1.078318 S    
P2    C65   1.845504 S    
C49   H39   1.081348 S    
C23   C24   1.431884 A    
C15   H24   1.107953 S    
C1    H3    1.110400 S    
C41   H31   1.081747 S    
O13   Ba2   2.933763 S    
P4    O12   1.523030 D    
O5    C6    1.407437 S    
P2    O7    1.524510 D    
C21   C22   1.402797 A    
P3    O8    1.749968 S    
H35   C54   1.080886 S    
C70   H47   1.078576 S    
Ba2   O21   2.826174 S    
C22   C23   1.414238 A    
C5    H8    1.111917 S    
O10   C8    1.398315 S    
O7    Ba1   2.825939 S    
C72   H53   1.085687 S    
C66   H42   1.080945 S    
O12   Ba2   2.867689 S    
C30   C31   1.424824 A    
C57   O28   1.219579 D    
C10   H16   1.110207 S    
C3    C75   1.500646 S    
C56   N2    1.393886 Am   
P5    O18   1.543210 D    
C29   C36   1.416205 A    
C63   C67   1.416553 A    
O30   H46   0.988895 S    
C7    H11   1.114285 S    
C76   O44   1.238116 D    
C61   H40   1.082892 S    
C18   O42   1.381350 S    
C25   C26   1.414146 A    
C9    H15   1.110425 S    
C19   C20   1.414607 A    
C65   C66   1.402176 A    
C11   C12   1.547172 S    
O14   Ba2   2.751391 S    
C44   C45   1.411918 A    
C60   C61   1.330204 D    
C14   C72   1.514661 S    
C59   C68   1.502376 S    
Ba1   O20   2.940623 S    
C63   C64   1.396005 A    
C13   O35   1.404672 S    
P5    C59   1.890281 S    
Ba2   O20   2.773119 S    
C36   C37   1.399594 A    
Ba1   O16   2.773731 S    
C2    C73   1.499580 S    
P3    C64   1.846632 S    
P4    C27   1.890160 S    
C28   C33   1.393497 A    
C9    H14   1.107508 S    
N2    C57   1.394437 Am   
P3    O9    1.542653 D    
O6    P6    1.748630 S    
C75   H59   1.084987 S    
C68   H44   1.075582 S    
O38   H54   0.992872 S    
N1    C46   1.394253 Am   
C17   C20   1.437561 A    
C29   C30   1.438037 A    
C17   C29   1.423287 A    
P8    O23   1.545804 D    
P4    Ba2   3.421585 S    
P4    O13   1.582496 S    
C31   C32   1.401142 A    
C11   H19   1.110509 S    
C15   C16   1.520474 S    
C8    C9    1.524665 S    
C13   H22   1.113703 S    
P7    O21   1.571215 D    
C46   C47   1.407541 A    
C75   O43   1.222474 D    
P2    O20   1.553420 S    
C12   O33   1.405777 S    
C73   H55   1.085536 S    
C60   C68   1.324861 D    
C44   C49   1.405579 A    
C31   C42   1.431016 A    
P4    O15   1.762074 S    
C4    C5    1.531702 S    
C27   C28   1.421716 A    
C32   H29   1.073657 S    
C35   C36   1.424451 A    
C23   C28   1.421825 A    
C16   H27   1.110372 S    
C40   C41   1.412118 A    
C47   C48   1.400209 A    
O4    P6    1.541636 D    
C1    H17   1.109548 S    
C49   C50   1.396954 A    
N1    C62   1.470468 S    
C4    C76   1.502546 S    
C20   C24   1.418158 A    
C54   C55   1.404352 A    
P1    C42   1.902595 S    
C51   C52   1.399530 A    
C69   H45   1.084580 S    
