data_mof_unit_6331.cif
_audit_creation_date              2012-12-10T20:34:54-0500
_audit_creation_method            fapswitch 2.2
_symmetry_space_group_name_H-M    P1
_symmetry_Int_Tables_number       1
_space_group_crystal_system       triclinic
_cell_length_a                    10.63186
_cell_length_b                    10.728809
_cell_length_c                    9.850204
_cell_angle_alpha                 89.178812
_cell_angle_beta                  90.214086
_cell_angle_gamma                 90.11586
_cell_volume                      1123.45972225

loop_
_atom_site_label
_atom_site_type_symbol
_atom_type_description
_atom_site_fract_x
_atom_site_fract_y
_atom_site_fract_z
_atom_type_partial_charge
C1    C     C_R   0.503197 0.260275 0.500707 0.897722
C2    C     C_R   0.470307 0.933237 0.608813 0.107520
C3    C     C_3   0.520040 0.921772 0.750629 -0.459338
C4    C     C_R   0.257625 0.501925 0.499632 0.847422
C5    C     C_3   0.518890 0.062237 0.754437 -0.477212
C6    C     C_R   0.392601 0.473160 0.071166 0.221675
C7    C     C_R   0.602677 0.538324 0.071803 -0.153552
C8    C     C_R   0.602804 0.538014 0.927767 -0.147653
C9    C     C_R   0.392072 0.475062 0.928504 0.220622
C10   C     C_3   0.316584 0.358537 0.922137 -0.521817
C11   C     C_3   0.320382 0.353818 0.076098 -0.514978
C12   C     C_3   0.878623 0.507720 0.499465 0.154469
C13   C     C_R   0.506740 0.739726 0.498427 0.862352
C14   C     C_R   0.742241 0.503035 0.499916 0.816661
C15   C     C_3   0.071104 0.380085 0.558057 -0.416895
C16   C     C_3   0.927104 0.382494 0.560474 -0.440445
C17   C     C_3   0.074717 0.614234 0.587038 -0.412902
C18   C     C_3   0.070769 0.523621 0.352146 -0.397703
C19   C     C_3   0.121224 0.504895 0.499168 0.159570
C20   C     C_3   0.879407 0.748188 0.540883 -0.418335
C21   C     C_3   0.902581 0.847827 0.648846 -0.356663
C22   C     C_3   0.861144 0.976568 0.598259 -0.898901
C23   C     C_3   0.929105 0.618102 0.587293 -0.051230
C24   C     C_3   0.611444 0.875532 0.253993 -0.359612
C25   C     C_3   0.682603 0.959426 0.152059 -0.375356
C26   C     C_3   0.748541 0.881625 0.045006 -0.923888
C27   C     C_3   0.928050 0.521062 0.351537 -0.403726
C28   C     C_R   0.468485 0.060403 0.612371 0.113247
C29   C     C_R   0.508119 0.128495 0.499856 -0.147635
C30   C     C_R   0.546805 0.069203 0.381439 -0.245005
C31   C     C_R   0.554181 0.939947 0.377081 0.068693
C32   C     C_R   0.512859 0.872136 0.494088 -0.163622
H1    H     H_    0.891328 0.607187 0.301281 0.158631
H2    H     H_    0.686430 0.566853 0.873521 0.142756
H3    H     H_    0.220812 0.375798 0.880567 0.190551
H4    H     H_    0.368397 0.281922 0.873702 0.213406
H5    H     H_    0.226052 0.364459 0.121791 0.189709
H6    H     H_    0.376753 0.274827 0.117940 0.214468
H7    H     H_    0.889659 0.302617 0.501510 0.169590
H8    H     H_    0.894219 0.370175 0.667049 0.173427
H9    H     H_    0.108831 0.602809 0.693518 0.160481
H10   H     H_    0.896979 0.601733 0.693703 0.146288
H11   H     H_    0.104480 0.614052 0.308680 0.170107
H12   H     H_    0.115848 0.702855 0.546935 0.158366
H13   H     H_    0.104867 0.447901 0.286138 0.173501
H14   H     H_    0.107331 0.364013 0.662933 0.171475
H15   H     H_    0.916501 0.005336 0.507583 0.259275
H16   H     H_    0.759818 0.975837 0.571366 0.278117
H17   H     H_    0.876522 0.045918 0.679330 0.244729
H18   H     H_    0.849158 0.823154 0.742259 0.213236
H19   H     H_    0.004019 0.852341 0.675747 0.224757
H20   H     H_    0.925062 0.777497 0.444169 0.212084
H21   H     H_    0.776618 0.743567 0.521948 0.185501
H22   H     H_    0.821633 0.821582 0.093175 0.252117
H23   H     H_    0.575485 0.125130 0.294883 0.168010
H24   H     H_    0.679501 0.821727 0.991624 0.263088
H25   H     H_    0.794422 0.944314 0.969309 0.255558
H26   H     H_    0.615442 0.023003 0.099077 0.224844
H27   H     H_    0.754661 0.015498 0.206122 0.225339
H28   H     H_    0.679722 0.804703 0.292127 0.204358
H29   H     H_    0.535084 0.827670 0.197504 0.222375
H30   H     H_    0.895632 0.440806 0.289789 0.181276
H31   H     H_    0.450933 0.877473 0.820805 0.202831
H32   H     H_    0.616190 0.881435 0.755247 0.211199
H33   H     H_    0.449583 0.097217 0.828275 0.192311
H34   H     H_    0.614416 0.104235 0.761512 0.210308
H35   H     H_    0.686126 0.567649 0.125801 0.148452
H36   H     H_    0.103685 0.301148 0.495039 0.164778
N1    N     N_R   0.499150 0.499140 0.142800 -0.106773
N2    N     N_R   0.499150 0.499180 0.857150 -0.104154
O1    O     O_R   0.500020 0.316790 0.614690 -0.612483
O2    O     O_R   0.500000 0.316760 0.385350 -0.623112
O3    O     O_R   0.314800 0.500000 0.614670 -0.624266
O4    O     O_R   0.314790 0.499960 0.385330 -0.623801
O5    O     O_R   0.500000 0.683240 0.614650 -0.611028
O6    O     O_R   0.499980 0.683210 0.385310 -0.634410
O7    O     O_R   0.685210 0.500040 0.614670 -0.636721
O8    O     O_R   0.685200 0.500000 0.385330 -0.636633
Zn1   Zn    Zn3+2 0.500010 0.500020 0.653130 0.930586
Zn2   Zn    Zn3+2 0.499990 0.499980 0.346870 0.922010

loop_
_geom_bond_atom_site_label_1
_geom_bond_atom_site_label_2
_ccdc_geom_bond_type
C6    N1    A    
C22   H16   S    
C24   H29   S    
C13   C32   S    
C6    C9    A    
O1    Zn1   S    
C7    C8    A    
C3    H32   S    
C27   H1    S    
C15   C19   S    
C12   C23   S    
C1    O1    A    
C23   H10   S    
C28   C29   A    
C30   C31   A    
O8    Zn2   S    
C15   C16   S    
C2    C32   A    
C18   C19   S    
C14   O7    A    
C11   H5    S    
C4    C19   S    
C13   O5    A    
C20   C23   S    
C10   H3    S    
C9    C10   S    
C4    O4    A    
C22   H15   S    
O4    Zn2   S    
C21   C22   S    
C26   H22   S    
C21   H18   S    
O7    Zn1   S    
C1    O2    A    
C12   C27   S    
C12   C16   S    
C24   C25   S    
C5    H33   S    
C6    C11   S    
C20   H21   S    
C8    H2    S    
C25   C26   S    
C11   H6    S    
C29   C30   A    
C27   H30   S    
C5    C28   S    
C31   C32   A    
C13   O6    A    
C24   H28   S    
C1    C29   S    
O3    Zn1   S    
C17   C23   S    
C9    N2    A    
C4    O3    A    
C16   H8    S    
C22   H17   S    
C12   C14   S    
C25   H26   S    
C18   H13   S    
C21   H19   S    
N2    Zn1   S    
C18   C27   S    
O6    Zn2   S    
C5    H34   S    
C3    C5    S    
C26   H24   S    
C7    N1    A    
C2    C28   A    
C3    H31   S    
C30   H23   S    
C8    N2    A    
C2    C3    S    
C24   C31   S    
C20   H20   S    
C18   H11   S    
C15   H36   S    
C17   C19   S    
C14   O8    A    
C26   H25   S    
C17   H9    S    
C17   H12   S    
C10   C11   S    
C16   H7    S    
C7    H35   S    
C20   C21   S    
O2    Zn2   S    
N1    Zn2   S    
C10   H4    S    
C25   H27   S    
C15   H14   S    
O5    Zn1   S    
