data_mof_unit_66136.cif
_audit_creation_date              2012-12-10T17:48:41-0500
_audit_creation_method            fapswitch 2.2
_symmetry_space_group_name_H-M    P1
_symmetry_Int_Tables_number       1
_space_group_crystal_system       triclinic
_cell_length_a                    39.003336
_cell_length_b                    39.017087
_cell_length_c                    21.902638
_cell_angle_alpha                 89.969081
_cell_angle_beta                  90.155911
_cell_angle_gamma                 89.980421
_cell_volume                      33331.2288114

loop_
_atom_site_label
_atom_site_type_symbol
_atom_type_description
_atom_site_fract_x
_atom_site_fract_y
_atom_site_fract_z
_atom_type_partial_charge
C1    C     C_R   0.999990 0.566264 0.499926 0.849265
C2    C     C_R   0.566266 1.000000 0.499988 0.842305
C3    C     C_R   0.999998 0.433736 0.499560 0.855369
C4    C     C_R   0.433734 0.000000 0.499768 0.842103
C5    C     C_R   0.499982 0.066264 0.999868 0.842010
C6    C     C_R   0.066265 0.500002 0.999955 0.838457
C7    C     C_R   0.500017 0.933735 0.999884 0.842004
C8    C     C_R   0.933747 0.499970 0.001115 0.840368
C9    C     C_R   0.999129 0.896163 0.499741 -0.026630
C10   C     C_R   0.896249 0.999804 0.499943 -0.013210
C11   C     C_R   0.000827 0.103833 0.499638 -0.026595
C12   C     C_R   0.103751 0.000271 0.500393 -0.013203
C13   C     C_R   0.500827 0.396159 0.000331 -0.026714
C14   C     C_R   0.396250 0.500261 0.999584 -0.013205
C15   C     C_R   0.499218 0.603836 0.000217 -0.026499
C16   C     C_R   0.603768 0.499548 0.000170 -0.013308
C17   C     C_R   0.010143 0.767892 0.554864 -0.015640
C18   C     C_R   0.768084 0.990517 0.552843 -0.015362
C19   C     C_R   0.989787 0.232098 0.554412 -0.016063
C20   C     C_R   0.232194 0.009513 0.552919 -0.015287
C21   C     C_R   0.988862 0.768092 0.448900 -0.016616
C22   C     C_R   0.231712 0.991576 0.445109 -0.017004
C23   C     C_R   0.010900 0.231904 0.448547 -0.016631
C24   C     C_R   0.768006 0.008373 0.444954 -0.016930
C25   C     C_R   0.510958 0.267931 0.050485 -0.015356
C26   C     C_R   0.268182 0.491821 0.054348 -0.015774
C27   C     C_R   0.489212 0.732016 0.050437 -0.015372
C28   C     C_R   0.731808 0.508425 0.056430 -0.015289
C29   C     C_R   0.489265 0.268058 0.944781 -0.016874
C30   C     C_R   0.732160 0.489128 0.949367 -0.016852
C31   C     C_R   0.510624 0.731988 0.944761 -0.016897
C32   C     C_R   0.267906 0.509432 0.946333 -0.016029
C33   C     C_R   0.009439 0.732017 0.554005 -0.164240
C34   C     C_R   0.732209 0.991394 0.552128 -0.166400
C35   C     C_R   0.990484 0.267972 0.553490 -0.163779
C36   C     C_R   0.268066 0.008637 0.551958 -0.167047
C37   C     C_R   0.989817 0.732241 0.449191 -0.164669
C38   C     C_R   0.267602 0.992099 0.445582 -0.161293
C39   C     C_R   0.009931 0.267754 0.448763 -0.164690
C40   C     C_R   0.732119 0.007842 0.445674 -0.161942
C41   C     C_R   0.509985 0.232082 0.049940 -0.167398
C42   C     C_R   0.232293 0.492361 0.053644 -0.163652
C43   C     C_R   0.490165 0.767867 0.049919 -0.167298
C44   C     C_R   0.767706 0.507920 0.056157 -0.162550
C45   C     C_R   0.489934 0.232179 0.945383 -0.161417
C46   C     C_R   0.768035 0.489952 0.950528 -0.166020
C47   C     C_R   0.509946 0.767866 0.945392 -0.161478
C48   C     C_R   0.232033 0.508557 0.947068 -0.165241
C49   C     C_R   0.999711 0.714278 0.501435 0.218973
C50   C     C_R   0.714318 0.999724 0.498915 0.220713
C51   C     C_R   0.000127 0.285714 0.500933 0.218749
C52   C     C_R   0.285680 0.000262 0.498660 0.220782
C53   C     C_R   0.499882 0.214280 0.997688 0.219116
C54   C     C_R   0.214317 0.500352 0.000351 0.221209
C55   C     C_R   0.500126 0.785718 0.997697 0.219177
C56   C     C_R   0.785718 0.499078 0.003522 0.221353
C57   C     C_R   0.999495 0.786322 0.501981 0.035987
C58   C     C_R   0.786373 0.999385 0.498918 0.035810
C59   C     C_R   0.000362 0.213671 0.501618 0.036109
C60   C     C_R   0.213625 0.000614 0.499155 0.035779
C61   C     C_R   0.500150 0.286324 0.997652 0.035915
C62   C     C_R   0.286374 0.500686 0.000312 0.035732
C63   C     C_R   0.499885 0.713672 0.997602 0.035910
C64   C     C_R   0.713654 0.498755 0.002627 0.035502
C65   C     C_R   0.968340 0.658096 0.502341 -0.012409
C66   C     C_R   0.658246 0.031378 0.500065 -0.013107
C67   C     C_R   0.031558 0.341861 0.501890 -0.012938
C68   C     C_R   0.341760 0.968611 0.499737 -0.013183
C69   C     C_R   0.031353 0.658214 0.499135 -0.011176
C70   C     C_R   0.341839 0.031629 0.497247 -0.012273
C71   C     C_R   0.968540 0.341814 0.498489 -0.011545
C72   C     C_R   0.658151 0.968356 0.498060 -0.012410
C73   C     C_R   0.468387 0.158151 0.000332 -0.012505
C74   C     C_R   0.158111 0.531694 0.000962 -0.013209
C75   C     C_R   0.531618 0.841849 0.000494 -0.012518
C76   C     C_R   0.842072 0.468044 0.007053 -0.012988
C77   C     C_R   0.531373 0.158167 0.995805 -0.011676
C78   C     C_R   0.841613 0.530960 0.000151 -0.011581
C79   C     C_R   0.468623 0.841831 0.995737 -0.011715
C80   C     C_R   0.158283 0.468665 0.999609 -0.013114
C81   C     C_R   0.968945 0.622252 0.500260 -0.259243
C82   C     C_R   0.622357 0.030890 0.499060 -0.254992
C83   C     C_R   0.030985 0.377708 0.499851 -0.257701
C84   C     C_R   0.377646 0.969105 0.498706 -0.255976
C85   C     C_R   0.030882 0.622345 0.500032 -0.259797
C86   C     C_R   0.377708 0.031020 0.498758 -0.263136
C87   C     C_R   0.969053 0.377683 0.499406 -0.252597
C88   C     C_R   0.622289 0.968975 0.499598 -0.263487
C89   C     C_R   0.468956 0.122280 0.999473 -0.255779
C90   C     C_R   0.122242 0.531049 0.999515 -0.261595
C91   C     C_R   0.531045 0.877720 0.999645 -0.255401
C92   C     C_R   0.877929 0.468784 0.004993 -0.264502
C93   C     C_R   0.530884 0.122323 0.997924 -0.263545
C94   C     C_R   0.877509 0.530648 0.000643 -0.269290
C95   C     C_R   0.469114 0.877674 0.997851 -0.263319
C96   C     C_R   0.122400 0.469133 0.000714 -0.261365
C97   C     C_R   0.999949 0.604175 0.499891 -0.013140
C98   C     C_R   0.604193 0.999959 0.499375 -0.013402
C99   C     C_R   0.000005 0.395822 0.499435 0.003858
C100  C     C_R   0.395807 0.000039 0.498853 -0.013504
C101  C     C_R   0.499944 0.104177 0.998937 -0.012171
C102  C     C_R   0.104194 0.500049 0.000030 -0.025333
C103  C     C_R   0.500054 0.895822 0.998983 -0.011583
C104  C     C_R   0.895842 0.499818 0.002123 -0.019405
C105  C     C_R   0.066049 0.999969 0.500106 0.772370
C106  C     C_R   0.999712 0.933925 0.499947 0.774205
C107  C     C_R   0.933952 0.000039 0.499962 0.772226
C108  C     C_R   0.000278 0.066074 0.499919 0.774096
C109  C     C_R   0.566055 0.499994 0.000049 0.772140
C110  C     C_R   0.500281 0.433923 0.000081 0.773874
C111  C     C_R   0.433952 0.499970 0.999893 0.772388
C112  C     C_R   0.499729 0.566075 0.000046 0.774483
C113  C     C_R   0.999810 0.676479 0.501057 0.047235
C114  C     C_R   0.676520 0.999830 0.498926 0.046442
C115  C     C_R   0.000065 0.323513 0.500517 0.047848
C116  C     C_R   0.323478 0.000155 0.498423 0.046391
C117  C     C_R   0.499865 0.176482 0.997763 0.047701
C118  C     C_R   0.176518 0.500228 0.000360 0.045595
C119  C     C_R   0.500138 0.823516 0.997803 0.047662
C120  C     C_R   0.823519 0.499378 0.003789 0.046661
C121  C     C_R   0.000059 0.499742 0.618951 0.880281
C122  C     C_R   0.499969 0.999994 0.618878 0.879747
C123  C     C_R   0.999921 0.499832 0.381002 0.889117
C124  C     C_R   0.500035 0.000006 0.380999 0.876495
C125  C     C_R   0.500036 0.000017 0.118889 0.879749
C126  C     C_R   0.000316 0.500024 0.118877 0.885838
C127  C     C_R   0.499963 0.999999 0.880988 0.876332
C128  C     C_R   0.999791 0.500032 0.881066 0.878335
C129  C     C_R   0.032690 0.443954 0.695020 -0.028104
C130  C     C_R   0.442013 0.972146 0.692977 -0.041033
C131  C     C_R   0.968408 0.555722 0.692648 -0.036041
C132  C     C_R   0.557844 0.027974 0.693506 -0.040456
C133  C     C_R   0.963383 0.446644 0.305384 -0.033111
C134  C     C_R   0.554330 0.964879 0.305784 -0.026811
C135  C     C_R   0.034203 0.554440 0.306684 -0.031898
C136  C     C_R   0.445794 0.035172 0.305196 -0.026721
C137  C     C_R   0.528025 0.942124 0.193452 -0.040961
C138  C     C_R   0.942769 0.472002 0.190952 -0.042750
C139  C     C_R   0.472153 0.057934 0.193103 -0.040964
C140  C     C_R   0.057936 0.528871 0.194681 -0.038828
C141  C     C_R   0.464742 0.945805 0.805327 -0.027075
C142  C     C_R   0.056267 0.469270 0.807471 -0.037841
C143  C     C_R   0.535025 0.054264 0.805578 -0.026954
C144  C     C_R   0.943509 0.531841 0.805040 -0.030964
C145  C     C_R   0.059285 0.426329 0.726540 0.161281
C146  C     C_R   0.423536 0.945128 0.721002 0.153877
C147  C     C_R   0.940271 0.572572 0.720360 0.151876
C148  C     C_R   0.576302 0.054966 0.721771 0.153931
C149  C     C_R   0.935871 0.430584 0.273890 0.159900
C150  C     C_R   0.570655 0.937311 0.274954 0.160414
C151  C     C_R   0.062179 0.570668 0.277240 0.157181
C152  C     C_R   0.429474 0.062733 0.274124 0.160563
C153  C     C_R   0.555026 0.923641 0.221776 0.153594
C154  C     C_R   0.925502 0.443363 0.215968 0.159358
C155  C     C_R   0.445111 0.076394 0.221062 0.153464
C156  C     C_R   0.076705 0.554929 0.225131 0.159438
C157  C     C_R   0.437180 0.929500 0.774234 0.160247
C158  C     C_R   0.073488 0.441328 0.779824 0.152374
C159  C     C_R   0.562599 0.070584 0.774793 0.159942
C160  C     C_R   0.925502 0.558179 0.773572 0.162190
C161  C     C_R   0.025293 0.481583 0.781459 0.010727
C162  C     C_R   0.479526 0.976028 0.780520 -0.000114
C163  C     C_R   0.974562 0.518779 0.780425 -0.003939
C164  C     C_R   0.520295 0.024016 0.780676 0.000371
C165  C     C_R   0.973808 0.483082 0.218179 0.012025
C166  C     C_R   0.517159 0.973691 0.218935 0.007335
C167  C     C_R   0.026299 0.517519 0.219371 0.001567
C168  C     C_R   0.482999 0.026360 0.218735 0.007819
C169  C     C_R   0.524077 0.979637 0.280762 0.000364
C170  C     C_R   0.979193 0.476212 0.280226 0.001211
C171  C     C_R   0.476043 0.020396 0.280490 -0.000053
C172  C     C_R   0.019994 0.524133 0.281176 0.005113
C173  C     C_R   0.473597 0.982954 0.718688 0.007790
C174  C     C_R   0.019214 0.474833 0.719619 -0.003936
C175  C     C_R   0.526282 0.017074 0.718930 0.007390
C176  C     C_R   0.981219 0.524961 0.718614 0.010841
C177  C     C_R   0.999800 0.500149 0.813926 -0.065466
C178  C     C_R   0.499903 0.000025 0.813730 -0.072147
C179  C     C_R   0.000290 0.500149 0.185936 -0.054769
C180  C     C_R   0.500095 0.000035 0.185942 -0.057927
C181  C     C_R   0.500054 0.000015 0.313752 -0.072057
C182  C     C_R   0.999696 0.499978 0.313756 -0.068213
C183  C     C_R   0.499959 0.999990 0.685920 -0.057986
C184  C     C_R   0.000208 0.499777 0.686115 -0.066164
C185  C     C_R   0.024530 0.877710 0.467071 0.109937
C186  C     C_R   0.878087 0.972432 0.471865 0.115250
C187  C     C_R   0.975385 0.122259 0.466736 0.109978
C188  C     C_R   0.121836 0.027663 0.472338 0.115339
C189  C     C_R   0.973580 0.877986 0.532632 0.118673
C190  C     C_R   0.122345 0.973210 0.528657 0.116527
C191  C     C_R   0.026384 0.122036 0.532672 0.118725
C192  C     C_R   0.877733 0.026867 0.528137 0.116581
C193  C     C_R   0.526290 0.377950 0.967290 0.118578
C194  C     C_R   0.377694 0.473187 0.971371 0.116339
C195  C     C_R   0.473662 0.622069 0.967168 0.118739
C196  C     C_R   0.622471 0.526483 0.971970 0.116439
C197  C     C_R   0.475435 0.377734 0.033085 0.109992
C198  C     C_R   0.621755 0.472146 0.028621 0.115434
C199  C     C_R   0.524732 0.622232 0.032926 0.109952
C200  C     C_R   0.378128 0.527674 0.027481 0.115507
C201  C     C_R   0.024625 0.841836 0.469108 -0.057783
C202  C     C_R   0.842198 0.972782 0.471663 -0.062194
C203  C     C_R   0.975256 0.158132 0.468696 -0.057743
C204  C     C_R   0.157722 0.027302 0.472126 -0.062677
C205  C     C_R   0.974313 0.842117 0.533437 -0.062359
C206  C     C_R   0.158216 0.973767 0.527790 -0.065490
C207  C     C_R   0.025621 0.157904 0.533385 -0.062429
C208  C     C_R   0.841863 0.026302 0.527270 -0.066035
C209  C     C_R   0.525456 0.342086 0.966354 -0.062626
C210  C     C_R   0.341823 0.473762 0.972102 -0.065727
C211  C     C_R   0.474490 0.657934 0.966259 -0.062630
C212  C     C_R   0.658344 0.525775 0.973226 -0.066110
C213  C     C_R   0.475246 0.341862 0.030935 -0.057500
C214  C     C_R   0.657645 0.472381 0.029299 -0.061643
C215  C     C_R   0.524913 0.658106 0.030806 -0.057349
C216  C     C_R   0.342241 0.527339 0.027537 -0.062616
C217  C     C_R   0.999637 0.824111 0.501929 0.129007
C218  C     C_R   0.824160 0.999518 0.499150 0.130946
C219  C     C_R   0.000254 0.175883 0.501655 0.128964
C220  C     C_R   0.175839 0.000542 0.499596 0.130988
C221  C     C_R   0.500126 0.324111 0.997905 0.129180
C222  C     C_R   0.324161 0.500574 0.000091 0.130947
C223  C     C_R   0.499917 0.675884 0.997821 0.129148
C224  C     C_R   0.675865 0.499001 0.001838 0.131419
Cu1   Cu    Cu3+1 0.965800 0.500000 0.500000 1.003040
Cu2   Cu    Cu3+1 0.500000 0.034200 0.500000 1.007945
Cu3   Cu    Cu3+1 0.034200 0.500000 0.500000 1.004054
Cu4   Cu    Cu3+1 0.500000 0.965800 0.500000 1.008293
Cu5   Cu    Cu3+1 0.465800 0.000000 0.000000 1.008468
Cu6   Cu    Cu3+1 1.000000 0.534200 0.000000 1.013295
Cu7   Cu    Cu3+1 0.534200 0.000000 0.000000 1.008318
Cu8   Cu    Cu3+1 0.000000 0.465800 0.000000 1.014808
Cu9   Cu    Cu3+1 1.000000 1.000000 0.561800 0.988754
Cu10  Cu    Cu3+1 1.000000 0.000000 0.438200 0.980862
Cu11  Cu    Cu3+1 0.500000 0.500000 0.061800 0.980551
Cu12  Cu    Cu3+1 0.500000 0.500000 0.938200 0.988750
H1    H     H_    0.043958 0.827464 0.444524 0.138156
H2    H     H_    0.828150 0.951974 0.450373 0.145237
H3    H     H_    0.955890 0.172483 0.443939 0.138115
H4    H     H_    0.171709 0.048107 0.450794 0.145286
H5    H     H_    0.954814 0.828044 0.558194 0.144214
H6    H     H_    0.172589 0.953140 0.549030 0.145575
H7    H     H_    0.045128 0.171997 0.558247 0.144260
H8    H     H_    0.827551 0.046914 0.548509 0.145595
H9    H     H_    0.544878 0.327990 0.941452 0.144428
H10   H     H_    0.327480 0.453129 0.950887 0.145572
H11   H     H_    0.454991 0.672049 0.941365 0.144448
H12   H     H_    0.672797 0.546291 0.951992 0.145972
H13   H     H_    0.455914 0.327512 0.055565 0.137998
H14   H     H_    0.671552 0.451570 0.050939 0.145241
H15   H     H_    0.544332 0.672434 0.055417 0.138020
H16   H     H_    0.328226 0.548169 0.048720 0.145104
H17   H     H_    0.017212 0.717611 0.594083 0.119354
H18   H     H_    0.717912 0.984945 0.592953 0.118015
H19   H     H_    0.982779 0.282376 0.593510 0.120584
H20   H     H_    0.282576 0.015117 0.592656 0.117959
H21   H     H_    0.982100 0.718014 0.408907 0.120194
H22   H     H_    0.281758 0.985510 0.404680 0.121154
H23   H     H_    0.017585 0.281983 0.408489 0.120584
H24   H     H_    0.717750 0.014394 0.404839 0.121174
H25   H     H_    0.517864 0.217729 0.090018 0.118193
H26   H     H_    0.218060 0.485903 0.094534 0.118488
H27   H     H_    0.482387 0.782183 0.089997 0.118198
H28   H     H_    0.781918 0.515059 0.096835 0.117813
H29   H     H_    0.481999 0.217897 0.905299 0.121438
H30   H     H_    0.782495 0.482950 0.910186 0.120722
H31   H     H_    0.517773 0.782186 0.905332 0.121469
H32   H     H_    0.217602 0.514911 0.906202 0.118906
H33   H     H_    0.944930 0.608278 0.500737 0.151888
H34   H     H_    0.608437 0.054938 0.499519 0.152540
H35   H     H_    0.055019 0.391651 0.500327 0.150343
H36   H     H_    0.391572 0.945059 0.499373 0.152575
H37   H     H_    0.054947 0.608444 0.499332 0.151726
H38   H     H_    0.391673 0.055035 0.498636 0.154020
H39   H     H_    0.944999 0.391605 0.498665 0.147946
H40   H     H_    0.608320 0.944962 0.499657 0.154220
H41   H     H_    0.444943 0.108328 0.000960 0.151691
H42   H     H_    0.108235 0.555049 0.999452 0.156238
H43   H     H_    0.555059 0.891673 0.001224 0.151616
H44   H     H_    0.892034 0.444865 0.006952 0.153799
H45   H     H_    0.554940 0.108406 0.997259 0.153007
H46   H     H_    0.891301 0.554728 0.998349 0.154578
H47   H     H_    0.445056 0.891590 0.997090 0.152929
H48   H     H_    0.108507 0.445075 0.000660 0.155683
O1    O     O_R   0.971120 0.549890 0.500000 -0.589329
O2    O     O_R   0.549890 0.028880 0.500000 -0.589161
O3    O     O_R   0.028880 0.450110 0.500000 -0.593991
O4    O     O_R   0.450110 0.971120 0.500000 -0.589123
O5    O     O_R   0.028880 0.549890 0.500000 -0.589132
O6    O     O_R   0.450110 0.028880 0.500000 -0.588738
O7    O     O_R   0.971120 0.450110 0.500000 -0.592272
O8    O     O_R   0.549890 0.971120 0.500000 -0.589071
O9    O     O_R   0.471120 0.049890 0.000000 -0.589210
O10   O     O_R   0.049890 0.528880 0.000000 -0.587644
O11   O     O_R   0.528880 0.950110 0.000000 -0.589155
O12   O     O_R   0.950110 0.471120 0.000000 -0.582815
O13   O     O_R   0.528880 0.049890 0.000000 -0.588786
O14   O     O_R   0.950110 0.528880 0.000000 -0.589549
O15   O     O_R   0.471120 0.950110 0.000000 -0.588646
O16   O     O_R   0.049890 0.471120 0.000000 -0.586460
O17   O     O_R   0.971120 0.499990 0.590150 -0.577604
O18   O     O_R   0.499990 0.028880 0.590150 -0.570572
O19   O     O_R   0.028880 0.500010 0.590150 -0.575724
O20   O     O_R   0.500010 0.971120 0.590150 -0.570458
O21   O     O_R   0.028880 0.499990 0.409850 -0.581041
O22   O     O_R   0.500010 0.028880 0.409850 -0.581471
O23   O     O_R   0.971120 0.500010 0.409850 -0.579848
O24   O     O_R   0.499990 0.971120 0.409850 -0.581182
O25   O     O_R   0.471120 0.999990 0.090150 -0.570396
O26   O     O_R   0.999990 0.528880 0.090150 -0.569794
O27   O     O_R   0.528880 0.000010 0.090150 -0.570629
O28   O     O_R   0.000010 0.471120 0.090150 -0.570891
O29   O     O_R   0.528880 0.999990 0.909850 -0.581377
O30   O     O_R   0.000010 0.528880 0.909850 -0.574931
O31   O     O_R   0.471120 0.000010 0.909850 -0.581407
O32   O     O_R   0.999990 0.471120 0.909850 -0.576439
O33   O     O_R   0.049980 0.000000 0.552120 -0.575216
O34   O     O_R   1.000000 0.950020 0.552120 -0.573538
O35   O     O_R   0.950020 0.000000 0.552120 -0.574863
O36   O     O_R   1.000000 0.049980 0.552120 -0.573543
O37   O     O_R   0.950020 1.000000 0.447880 -0.570663
O38   O     O_R   0.000000 0.950020 0.447880 -0.578768
O39   O     O_R   0.049980 1.000000 0.447880 -0.570284
O40   O     O_R   1.000000 0.049980 0.447880 -0.578822
O41   O     O_R   0.549980 0.500000 0.052120 -0.570519
O42   O     O_R   0.500000 0.450020 0.052120 -0.578965
O43   O     O_R   0.450020 0.500000 0.052120 -0.570424
O44   O     O_R   0.500000 0.549980 0.052120 -0.578810
O45   O     O_R   0.450020 0.500000 0.947880 -0.575067
O46   O     O_R   0.500000 0.450020 0.947880 -0.573422
O47   O     O_R   0.549980 0.500000 0.947880 -0.575005
O48   O     O_R   0.500000 0.549980 0.947880 -0.573455
C225  C     C_3   0.926409 0.605478 0.692498 -0.864900
H49   H     H_    0.916092 0.600158 0.646161 0.222597
H50   H     H_    0.905870 0.617780 0.719458 0.252563
H51   H     H_    0.947265 0.624749 0.689186 0.232797
C226  C     C_3   0.610113 0.066789 0.694615 -0.865085
H52   H     H_    0.605625 0.077413 0.648229 0.222827
H53   H     H_    0.623522 0.086533 0.721907 0.252251
H54   H     H_    0.628109 0.044801 0.691580 0.231823
C227  C     C_3   0.072465 0.391819 0.704647 -0.856365
H55   H     H_    0.055160 0.378647 0.672176 0.223298
H56   H     H_    0.097828 0.395088 0.682524 0.234918
H57   H     H_    0.074870 0.373966 0.743934 0.249700
C228  C     C_3   0.389771 0.933294 0.693366 -0.865193
H58   H     H_    0.394311 0.922876 0.646910 0.222704
H59   H     H_    0.376426 0.913376 0.720256 0.252268
H60   H     H_    0.371700 0.955231 0.690386 0.231631
C229  C     C_3   0.075393 0.604870 0.300493 -0.864522
H61   H     H_    0.053679 0.622587 0.309247 0.231959
H62   H     H_    0.090129 0.601010 0.343384 0.226544
H63   H     H_    0.091510 0.618528 0.266786 0.251621
C230  C     C_3   0.395651 0.077483 0.296194 -0.858112
H64   H     H_    0.381690 0.060751 0.328435 0.222309
H65   H     H_    0.400164 0.102581 0.318663 0.235135
H66   H     H_    0.377889 0.080866 0.256935 0.249998
C231  C     C_3   0.917775 0.400361 0.303449 -0.862822
H67   H     H_    0.908962 0.407720 0.349789 0.217147
H68   H     H_    0.894587 0.391582 0.278896 0.251775
H69   H     H_    0.935687 0.378325 0.307124 0.237040
C232  C     C_3   0.604488 0.922579 0.297378 -0.858270
H70   H     H_    0.618510 0.939395 0.329501 0.222399
H71   H     H_    0.599971 0.897549 0.320088 0.235151
H72   H     H_    0.622204 0.919065 0.258268 0.250026
C233  C     C_3   0.433261 0.110163 0.193538 -0.864281
H73   H     H_    0.422804 0.105646 0.147026 0.222467
H74   H     H_    0.413364 0.123517 0.220432 0.252282
H75   H     H_    0.455208 0.128209 0.190717 0.232017
C234  C     C_3   0.112191 0.564833 0.202892 -0.862860
H76   H     H_    0.127753 0.541531 0.194094 0.231133
H77   H     H_    0.110058 0.580064 0.160220 0.227132
H78   H     H_    0.127165 0.579378 0.237214 0.250866
C235  C     C_3   0.566845 0.889840 0.194517 -0.864263
H79   H     H_    0.577419 0.894326 0.148172 0.222531
H80   H     H_    0.586638 0.876435 0.221795 0.252271
H81   H     H_    0.544857 0.871852 0.191363 0.232097
C236  C     C_3   0.897746 0.425257 0.179658 -0.869894
H82   H     H_    0.897177 0.432811 0.130953 0.208521
H83   H     H_    0.902886 0.397282 0.178529 0.248077
H84   H     H_    0.872275 0.430195 0.200368 0.244615
C237  C     C_3   0.577302 0.104404 0.797104 -0.857424
H85   H     H_    0.560443 0.118428 0.829027 0.222737
H86   H     H_    0.602323 0.099885 0.820008 0.234954
H87   H     H_    0.580843 0.122110 0.757909 0.250239
C238  C     C_3   0.890817 0.570878 0.795454 -0.858555
H88   H     H_    0.877818 0.553270 0.827510 0.223153
H89   H     H_    0.893785 0.596173 0.818034 0.235040
H90   H     H_    0.872953 0.573243 0.756107 0.249682
C239  C     C_3   0.422409 0.895709 0.796462 -0.857011
H91   H     H_    0.439088 0.881780 0.828998 0.222520
H92   H     H_    0.397259 0.900242 0.818651 0.235011
H93   H     H_    0.419104 0.877922 0.757321 0.250118
C240  C     C_3   0.106565 0.427909 0.807847 -0.866000
H94   H     H_    0.101384 0.417740 0.854276 0.223025
H95   H     H_    0.119048 0.407371 0.781134 0.252419
H96   H     H_    0.125639 0.448960 0.810970 0.232099
C241  C     C_2   0.016144 0.427596 0.641919 0.344771
H97   H     H_    0.031760 0.415386 0.607554 0.065312
O49   O     O_2   0.984936 0.426541 0.637624 -0.539952
C242  C     C_2   0.425261 0.992594 0.644274 0.333764
H98   H     H_    0.406855 0.980742 0.614072 0.074032
O50   O     O_2   0.430208 0.023409 0.640058 -0.531999
C243  C     C_2   0.987679 0.573503 0.643799 0.340792
H99   H     H_    0.974493 0.590472 0.612654 0.073488
O51   O     O_2   0.018822 0.570933 0.640316 -0.536146
C244  C     C_2   0.574561 0.007721 0.644710 0.334241
H100  H     H_    0.592716 0.019775 0.614416 0.073461
O52   O     O_2   0.569854 0.976869 0.640481 -0.532445
C245  C     C_2   0.979586 0.428282 0.357151 0.345873
H101  H     H_    0.964031 0.414406 0.389615 0.072072
O53   O     O_2   0.010771 0.426866 0.361730 -0.546315
C246  C     C_2   0.571592 0.981118 0.358310 0.351073
H102  H     H_    0.583272 0.965310 0.393151 0.068203
O54   O     O_2   0.573901 0.012278 0.361675 -0.540520
C247  C     C_2   0.016665 0.572486 0.357133 0.342799
H103  H     H_    0.031440 0.587535 0.389222 0.073344
O55   O     O_2   0.985436 0.572251 0.361052 -0.540332
C248  C     C_2   0.428555 0.018991 0.357690 0.351352
H104  H     H_    0.416975 0.034832 0.392458 0.067867
O56   O     O_2   0.426169 0.987839 0.361128 -0.540438
C249  C     C_2   0.507691 0.925416 0.144585 0.334247
H105  H     H_    0.519676 0.907181 0.114361 0.073259
O57   O     O_2   0.476837 0.930213 0.140235 -0.531843
C250  C     C_2   0.923974 0.495403 0.148643 0.324263
H106  H     H_    0.900783 0.487384 0.125769 0.086623
O58   O     O_2   0.932451 0.525357 0.142952 -0.532273
C251  C     C_2   0.492559 0.074673 0.144518 0.333930
H107  H     H_    0.480658 0.093032 0.114282 0.073734
O59   O     O_2   0.523392 0.069758 0.140428 -0.531961
C252  C     C_2   0.074370 0.510116 0.143927 0.331290
H108  H     H_    0.091199 0.523599 0.113059 0.075801
O60   O     O_2   0.070976 0.479144 0.138650 -0.535376
C253  C     C_2   0.480937 0.928565 0.857945 0.351783
H109  H     H_    0.465084 0.917052 0.892741 0.067476
O61   O     O_2   0.512099 0.926112 0.861455 -0.540172
C254  C     C_2   0.073869 0.488944 0.856156 0.339454
H110  H     H_    0.091325 0.476165 0.886994 0.075083
O62   O     O_2   0.070639 0.520013 0.859774 -0.534598
C255  C     C_2   0.518777 0.071502 0.857966 0.351771
H111  H     H_    0.534599 0.083140 0.892802 0.067710
O63   O     O_2   0.487607 0.073821 0.861229 -0.540161
C256  C     C_2   0.927429 0.515166 0.858192 0.347570
H112  H     H_    0.914991 0.530658 0.892489 0.067385
O64   O     O_2   0.926828 0.483966 0.862586 -0.536076
C257  C     C_3   0.051777 0.895618 0.430121 -0.795240
H113  H     H_    0.065414 0.914704 0.458661 0.222894
H114  H     H_    0.071137 0.877332 0.412257 0.230264
H115  H     H_    0.039848 0.908750 0.390453 0.257451
C258  C     C_3   0.895467 0.941887 0.443060 -0.819720
H116  H     H_    0.923589 0.941469 0.449753 0.234107
H117  H     H_    0.885222 0.917939 0.463476 0.233882
H118  H     H_    0.890049 0.941662 0.393275 0.251147
C259  C     C_3   0.948136 0.104321 0.429605 -0.795406
H119  H     H_    0.934531 0.085224 0.458071 0.222867
H120  H     H_    0.928749 0.122588 0.411546 0.230276
H121  H     H_    0.960057 0.091200 0.390060 0.257407
C260  C     C_3   0.104372 0.058221 0.443513 -0.819277
H122  H     H_    0.076273 0.058648 0.450245 0.233972
H123  H     H_    0.114694 0.082161 0.463892 0.233838
H124  H     H_    0.109620 0.058457 0.393722 0.251149
C261  C     C_3   0.944429 0.895308 0.565730 -0.815826
H125  H     H_    0.942526 0.923112 0.556343 0.237026
H126  H     H_    0.919706 0.883749 0.551164 0.231674
H127  H     H_    0.947529 0.891482 0.615668 0.250933
C262  C     C_3   0.105527 0.942910 0.559287 -0.826702
H128  H     H_    0.077261 0.942713 0.555214 0.235180
H129  H     H_    0.115100 0.918808 0.538425 0.234978
H130  H     H_    0.112248 0.942838 0.608579 0.252031
C263  C     C_3   0.055577 0.104742 0.566018 -0.816128
H131  H     H_    0.057473 0.076931 0.556760 0.237021
H132  H     H_    0.080280 0.116297 0.551554 0.231738
H133  H     H_    0.052532 0.108601 0.615922 0.250923
C264  C     C_3   0.894635 0.057161 0.558747 -0.826182
H134  H     H_    0.922888 0.057371 0.554667 0.235106
H135  H     H_    0.884991 0.081268 0.537868 0.234940
H136  H     H_    0.888067 0.057212 0.608039 0.252054
C265  C     C_3   0.555453 0.395230 0.934152 -0.815425
H137  H     H_    0.557440 0.423011 0.943631 0.236899
H138  H     H_    0.580160 0.383567 0.948604 0.231872
H139  H     H_    0.552292 0.391498 0.884212 0.250854
C266  C     C_3   0.394555 0.442861 0.940917 -0.826276
H140  H     H_    0.422818 0.442664 0.945065 0.235099
H141  H     H_    0.384979 0.418776 0.961859 0.234994
H142  H     H_    0.387876 0.442752 0.891608 0.252065
C267  C     C_3   0.444419 0.604810 0.933971 -0.816217
H143  H     H_    0.442508 0.577006 0.943317 0.236908
H144  H     H_    0.419743 0.616413 0.948478 0.231780
H145  H     H_    0.447416 0.608644 0.884045 0.250906
C268  C     C_3   0.605767 0.556812 0.941035 -0.826478
H146  H     H_    0.577502 0.557146 0.944856 0.235306
H147  H     H_    0.615433 0.580901 0.961875 0.235114
H148  H     H_    0.612481 0.556779 0.891806 0.251916
C269  C     C_3   0.448292 0.395670 0.070230 -0.795431
H149  H     H_    0.434644 0.414834 0.041817 0.223057
H150  H     H_    0.428924 0.377413 0.088159 0.230119
H151  H     H_    0.460321 0.408711 0.109864 0.257358
C270  C     C_3   0.604185 0.441692 0.057386 -0.819345
H152  H     H_    0.576098 0.441322 0.050235 0.233900
H153  H     H_    0.614489 0.417683 0.037310 0.234025
H154  H     H_    0.609354 0.441543 0.107255 0.250926
C271  C     C_3   0.552026 0.604253 0.069947 -0.795577
H155  H     H_    0.565580 0.585152 0.041418 0.222895
H156  H     H_    0.571446 0.622493 0.087900 0.230261
H157  H     H_    0.540159 0.591128 0.109556 0.257317
C272  C     C_3   0.395552 0.558233 0.056281 -0.819888
H158  H     H_    0.423664 0.558626 0.049715 0.234058
H159  H     H_    0.385273 0.582170 0.035750 0.233819
H160  H     H_    0.390215 0.558506 0.106041 0.251083
C273  C     C_2   0.022810 0.784440 0.611847 0.365738
H161  H     H_    0.026064 0.769108 0.652842 0.078715
O65   O     O_2   0.030658 0.814693 0.613876 -0.533368
C274  C     C_2   0.784789 0.979692 0.610946 0.365259
H162  H     H_    0.769532 0.977652 0.652179 0.078443
O66   O     O_2   0.815100 0.972073 0.613758 -0.533955
C275  C     C_2   0.977210 0.215546 0.611363 0.365907
H163  H     H_    0.974035 0.230870 0.652326 0.079108
O67   O     O_2   0.969343 0.185298 0.613392 -0.533315
C276  C     C_2   0.215793 0.020375 0.611095 0.365237
H164  H     H_    0.231279 0.022498 0.652190 0.078454
O68   O     O_2   0.185480 0.027922 0.614120 -0.534019
C277  C     C_2   0.975978 0.784848 0.392222 0.365113
H165  H     H_    0.973302 0.769836 0.350756 0.078922
O69   O     O_2   0.967222 0.814872 0.391017 -0.533268
C278  C     C_2   0.214790 0.980879 0.387150 0.366419
H166  H     H_    0.229992 0.978440 0.345923 0.079503
O70   O     O_2   0.184342 0.973845 0.384425 -0.534228
C279  C     C_2   0.023706 0.215153 0.391967 0.365092
H167  H     H_    0.026290 0.230159 0.350472 0.078930
O71   O     O_2   0.032503 0.185141 0.390880 -0.533239
C280  C     C_2   0.784624 0.019035 0.386840 0.366365
H168  H     H_    0.769208 0.021439 0.345705 0.079504
O72   O     O_2   0.815055 0.026078 0.383882 -0.534218
C281  C     C_2   0.524055 0.284504 0.107140 0.364671
H169  H     H_    0.526935 0.269350 0.148431 0.078207
O73   O     O_2   0.532749 0.314537 0.108516 -0.533532
C282  C     C_2   0.284991 0.481280 0.112525 0.365700
H170  H     H_    0.269721 0.479029 0.153708 0.078455
O74   O     O_2   0.315418 0.474158 0.115483 -0.534308
C283  C     C_2   0.476278 0.715390 0.107068 0.364706
H171  H     H_    0.473482 0.730513 0.148356 0.078207
O75   O     O_2   0.467628 0.685344 0.108428 -0.533531
C284  C     C_2   0.714959 0.519778 0.113907 0.366083
H172  H     H_    0.730286 0.523043 0.154951 0.078491
O76   O     O_2   0.684414 0.526384 0.116441 -0.534874
C285  C     C_2   0.476410 0.284789 0.888061 0.366119
H173  H     H_    0.472928 0.269567 0.847027 0.079359
O77   O     O_2   0.468665 0.315080 0.886296 -0.533450
C286  C     C_2   0.715686 0.477625 0.891489 0.365717
H174  H     H_    0.731183 0.474727 0.850707 0.079343
O78   O     O_2   0.685283 0.470440 0.888381 -0.534355
C287  C     C_2   0.523330 0.715310 0.888040 0.366135
H175  H     H_    0.526712 0.730573 0.847030 0.079365
O79   O     O_2   0.531060 0.685018 0.886248 -0.533424
C288  C     C_2   0.284420 0.520133 0.888151 0.365365
H176  H     H_    0.269033 0.522071 0.846905 0.078659
O80   O     O_2   0.314712 0.527765 0.885286 -0.533878
C289  C     C_2   0.934059 0.674687 0.506995 0.346530
H177  H     H_    0.911128 0.659634 0.498518 0.081991
O81   O     O_2   0.930649 0.704614 0.521974 -0.535540
C290  C     C_2   0.674993 0.065631 0.503326 0.348440
H178  H     H_    0.659734 0.088565 0.496104 0.082170
O82   O     O_2   0.705347 0.069035 0.515530 -0.536898
C291  C     C_2   0.065832 0.325228 0.506588 0.346132
H179  H     H_    0.088755 0.340251 0.498077 0.082189
O83   O     O_2   0.069250 0.295300 0.521645 -0.535446
C292  C     C_2   0.325034 0.934358 0.503270 0.348351
H180  H     H_    0.340284 0.911416 0.496260 0.082146
O84   O     O_2   0.294713 0.930965 0.515455 -0.536949
C293  C     C_2   0.065572 0.674963 0.495095 0.346985
H181  H     H_    0.088559 0.659867 0.502929 0.081924
O85   O     O_2   0.068874 0.705094 0.481354 -0.535894
C294  C     C_2   0.325198 0.065938 0.493655 0.348093
H182  H     H_    0.340460 0.088820 0.501236 0.082410
O86   O     O_2   0.294944 0.069442 0.480737 -0.536148
C295  C     C_2   0.934294 0.325105 0.494337 0.347286
H183  H     H_    0.911338 0.340222 0.502086 0.082024
O87   O     O_2   0.930933 0.294983 0.480597 -0.535891
C296  C     C_2   0.674771 0.934036 0.494705 0.347902
H184  H     H_    0.659536 0.911174 0.502532 0.082476
O88   O     O_2   0.704970 0.930497 0.481709 -0.536119
C297  C     C_2   0.434151 0.174820 0.005164 0.346628
H185  H     H_    0.411152 0.159648 0.998075 0.082257
O89   O     O_2   0.430860 0.204974 0.018711 -0.536351
C298  C     C_2   0.174698 0.566031 0.004019 0.347884
H186  H     H_    0.159408 0.588863 0.996008 0.082399
O90   O     O_2   0.204934 0.569621 0.016968 -0.536424
C299  C     C_2   0.565866 0.825179 0.005433 0.346701
H187  H     H_    0.588850 0.840361 0.998452 0.082245
O91   O     O_2   0.569186 0.795011 0.018945 -0.536384
C300  C     C_2   0.825652 0.433772 0.013423 0.348353
H188  H     H_    0.841067 0.410801 0.008001 0.082985
O92   O     O_2   0.795402 0.430436 0.026207 -0.536915
C301  C     C_2   0.565577 0.174840 0.990574 0.346320
H189  H     H_    0.588599 0.159828 0.998603 0.082409
O93   O     O_2   0.568814 0.204796 0.975611 -0.535169
C302  C     C_2   0.824683 0.565059 0.994737 0.347967
H190  H     H_    0.839916 0.588186 0.999639 0.082338
O94   O     O_2   0.794186 0.568097 0.983374 -0.537251
C303  C     C_2   0.434410 0.825157 0.990393 0.346344
H191  H     H_    0.411403 0.840169 0.998302 0.082414
O95   O     O_2   0.431146 0.795202 0.975473 -0.535208
C304  C     C_2   0.175063 0.434412 0.996704 0.348324
H192  H     H_    0.159871 0.411497 0.004302 0.082507
O96   O     O_2   0.205363 0.430981 0.984370 -0.536766

loop_
_geom_bond_atom_site_label_1
_geom_bond_atom_site_label_2
_ccdc_geom_bond_type
C49   C113  S    
C303  H191  S    
C295  O87   D    
C231  H67   S    
C96   C102  A    
C108  O40   A    
Cu1   O7    S    
C260  H122  S    
C251  H107  S    
C226  H52   S    
Cu5   O25   S    
C146  C157  A    
C55   C119  S    
C263  H131  S    
C264  H136  S    
C121  O19   A    
C138  C165  A    
C122  O20   A    
C160  C238  S    
C243  O51   D    
C37   H21   S    
C241  O49   D    
C22   C60   A    
C284  H172  S    
C239  H92   S    
C225  H51   S    
C130  C146  A    
C22   C38   A    
Cu4   O20   S    
C262  H130  S    
C186  C202  A    
C294  O86   D    
C280  H168  S    
Cu2   O6    S    
C236  H84   S    
C190  C206  A    
C258  H117  S    
C134  C169  A    
Cu11  O42   S    
C299  O91   D    
C185  C257  S    
C200  C216  A    
C144  C160  A    
C129  C145  A    
C201  H1    S    
C94   H46   S    
C234  H78   S    
C138  C154  A    
C45   H29   S    
C14   C194  A    
C94   C104  A    
C106  O38   A    
C191  C263  S    
C215  H15   S    
C82   C98   A    
C288  O80   D    
C142  C158  A    
C145  C227  S    
C137  C166  A    
C230  H65   S    
C16   C109  S    
C232  H72   S    
C5    C101  S    
Cu1   O17   S    
C291  H179  S    
C84   C100  A    
Cu9   O33   S    
C302  H190  S    
C67   C291  S    
C235  H81   S    
C25   C41   A    
C273  O65   D    
Cu10  O40   S    
C289  H177  S    
C28   C44   A    
C29   C45   A    
C50   C114  S    
C132  C175  A    
C259  H121  S    
C78   C120  A    
C133  C170  A    
Cu3   O3    S    
C66   C82   A    
Cu4   O4    S    
C304  O96   D    
C136  C171  A    
Cu6   O10   S    
C211  C223  A    
C274  H162  S    
C137  C249  S    
C137  C153  A    
C281  O73   D    
C96   H48   S    
C135  C172  A    
C228  H60   S    
C143  C159  A    
C8    C104  S    
C17   C273  S    
C167  C172  A    
C235  H79   S    
C140  C156  A    
C133  C245  S    
C141  C157  A    
C290  H178  S    
C190  C262  S    
C8    O14   A    
C231  H69   S    
C95   H47   S    
C269  H150  S    
C35   C51   A    
C237  H85   S    
C260  H124  S    
C244  O52   D    
C129  C241  S    
C125  O25   A    
C198  C214  A    
C188  C260  S    
C226  H54   S    
C16   C198  A    
C254  H110  S    
C175  C183  A    
C263  H133  S    
C47   H31   S    
C176  C184  A    
C89   C101  A    
C122  O18   A    
C127  C178  S    
C65   C113  A    
C171  C181  A    
C134  C246  S    
C91   C103  A    
C298  H186  S    
C157  C239  S    
C276  H164  S    
Cu2   O22   S    
C240  H94   S    
C74   C90   A    
C28   C284  S    
C9    C106  S    
C32   C62   A    
C265  H138  S    
C19   C35   A    
C233  H73   S    
C161  C174  A    
C12   C105  S    
C78   C94   A    
C286  O78   D    
C74   C298  S    
C6    C102  S    
C257  H113  S    
C252  O60   D    
C85   C97   A    
C106  O34   A    
C196  C212  A    
C78   C302  S    
C229  H63   S    
C25   C281  S    
C128  O30   A    
C291  O83   D    
C245  H101  S    
C146  C228  S    
C238  H89   S    
C143  C255  S    
C296  O88   D    
C67   C83   A    
Cu12  O45   S    
C210  C222  A    
C187  C203  A    
Cu9   O35   S    
C124  O22   A    
C212  H12   S    
C142  C161  A    
C79   C303  S    
C40   H24   S    
Cu10  O38   S    
C261  H125  S    
C23   C59   A    
C251  O59   D    
C205  C217  A    
C76   C120  A    
C13   C197  A    
C199  C215  A    
C246  H102  S    
C282  O74   D    
C207  H7    S    
C255  O63   D    
C40   C50   A    
Cu8   O12   S    
C156  C234  S    
C29   C285  S    
C131  C176  A    
C155  C233  S    
C164  C175  A    
C2    O8    A    
C75   C299  S    
C90   C102  A    
C168  C171  A    
C31   C287  S    
C237  H87   S    
C247  O55   D    
C131  C147  A    
C139  C155  A    
C125  O27   A    
Cu9   Cu10  S    
C203  H3    S    
C36   C52   A    
C75   C91   A    
C140  C167  A    
C45   C53   A    
C141  C162  A    
C7    C103  S    
C271  H155  S    
C170  C182  A    
C35   H19   S    
C297  H185  S    
C87   H39   S    
C205  H5    S    
C147  C160  A    
C38   H22   S    
C301  O93   D    
C95   C103  A    
C262  H128  S    
C225  H50   S    
C248  O56   D    
C227  H56   S    
C74   C118  A    
C240  H96   S    
C29   C61   A    
C272  H159  S    
C199  C271  S    
C63   C223  S    
C107  O37   A    
Cu3   O19   S    
C140  C252  S    
C233  H75   S    
C92   C104  A    
C191  C207  A    
C19   C59   A    
C188  C204  A    
C274  O66   D    
C270  H153  S    
C73   C297  S    
C92   H44   S    
C257  H115  S    
Cu5   O9    S    
C267  H143  S    
C154  C236  S    
C69   C293  S    
C61   C221  S    
C194  C210  A    
C132  C244  S    
C77   C301  S    
C89   H41   S    
C266  H140  S    
C144  C256  S    
C91   H43   S    
C268  H147  S    
C41   C53   A    
C187  C259  S    
C121  C184  S    
C43   C55   A    
C250  H106  S    
C127  O29   A    
C278  O70   D    
Cu12  O47   S    
C165  C179  A    
C124  O24   A    
C166  C180  A    
C210  H10   S    
C275  H163  S    
C109  O47   A    
C69   C85   A    
C26   C42   A    
C105  O39   A    
C212  C224  A    
C261  H127  S    
C77   C117  A    
C112  O44   A    
C292  H180  S    
C122  C183  S    
C162  C178  A    
C71   C295  S    
Cu3   O5    S    
C197  C269  S    
C15   C112  S    
C30   C46   A    
Cu2   O2    S    
C242  H98   S    
C202  H2    S    
C139  C251  S    
C264  H135  S    
C285  O77   D    
C34   H18   S    
C202  C218  A    
C4    C100  S    
Cu7   O13   S    
C75   C119  A    
C241  H97   S    
C284  O76   D    
C58   C218  S    
C21   C277  S    
C290  O82   D    
Cu1   Cu3   S    
C85   H37   S    
C280  O72   D    
C62   C222  S    
C72   C296  S    
C4    O6    A    
C126  O26   A    
C159  C237  S    
C295  H183  S    
C3    C99   S    
C258  H116  S    
C271  H157  S    
C46   C56   A    
C11   C108  S    
Cu11  O41   S    
C32   C288  S    
C27   C63   A    
C31   C47   A    
C128  C177  S    
C18   C274  S    
C256  H112  S    
C281  H169  S    
C88   C98   A    
C234  H77   S    
C167  C179  A    
C30   C64   A    
C200  C272  S    
C150  C232  S    
C209  C221  A    
C39   C51   A    
C204  H4    S    
C1    O1    A    
C230  H64   S    
C164  C178  A    
C287  O79   D    
C162  C173  A    
C3    O3    A    
C232  H71   S    
C36   H20   S    
C204  C220  A    
C225  H49   S    
C76   C300  S    
C234  H76   S    
C267  H145  S    
C60   C220  S    
C273  H161  S    
C236  H83   S    
C9    C189  A    
C293  O85   D    
C33   C49   A    
C72   C114  A    
C266  H142  S    
C64   C224  S    
C185  C201  A    
C259  H120  S    
C5    O13   A    
C136  C152  A    
C213  C221  A    
C189  C205  A    
C253  O61   D    
C150  C153  A    
C79   C119  A    
C163  C177  A    
Cu11  Cu12  S    
C20   C60   A    
C86   C100  A    
C109  O41   A    
C110  O46   A    
Cu8   O16   S    
C15   C195  A    
C289  O81   D    
C231  H68   S    
C255  H111  S    
C13   C193  A    
C269  H149  S    
C260  H123  S    
C17   C33   A    
C226  H53   S    
C254  O62   D    
C52   C116  S    
C130  C173  A    
C208  C218  A    
C80   C118  A    
C68   C84   A    
C151  C229  S    
C298  O90   D    
C147  C225  S    
C276  O68   D    
C8    O12   A    
C70   C116  A    
C14   C200  A    
C51   C115  S    
C294  H182  S    
C83   C99   A    
C148  C159  A    
C299  H187  S    
C79   C95   A    
C265  H137  S    
C10   C186  A    
C22   C278  S    
C37   C49   A    
Cu7   O11   S    
C44   C56   A    
C186  C258  S    
C65   C81   A    
C152  C155  A    
C229  H61   S    
C46   H30   S    
C258  H118  S    
C149  C231  S    
C125  C180  S    
C81   H33   S    
C126  C179  S    
C25   C61   A    
C151  C156  A    
C83   H35   S    
C23   C279  S    
C127  O31   A    
Cu6   O30   S    
C39   H23   S    
Cu7   O27   S    
C28   C64   A    
Cu8   O28   S    
C136  C248  S    
C303  O95   D    
C144  C163  A    
Cu2   O18   S    
C129  C174  A    
C196  C268  S    
C93   C101  A    
C152  C230  S    
Cu4   O24   S    
C209  H9    S    
C143  C164  A    
C230  H66   S    
C197  C213  A    
C195  C267  S    
C138  C250  S    
C238  H88   S    
C165  C170  A    
C279  O71   D    
C24   C40   A    
Cu12  O46   S    
C66   C114  A    
C20   C276  S    
Cu9   O34   S    
C229  H62   S    
C208  H8    S    
C275  O67   D    
C44   H28   S    
C131  C243  S    
Cu10  O39   S    
C30   C286  S    
C123  C182  S    
C130  C242  S    
C9    C185  A    
C41   H25   S    
C123  O21   A    
C90   H42   S    
C206  C220  A    
C246  O54   D    
C73   C89   A    
C124  C181  S    
Cu5   Cu7   S    
C6    O16   A    
C42   C54   A    
C145  C158  A    
C111  O45   A    
C304  H192  S    
C32   C48   A    
C57   C217  S    
C135  C151  A    
C77   C93   A    
C18   C58   A    
C300  O92   D    
C12   C190  A    
C249  H105  S    
C80   C304  S    
C139  C168  A    
C10   C192  A    
C135  C247  S    
Cu6   O26   S    
C27   C43   A    
C69   C113  A    
C21   C37   A    
C173  C183  A    
C24   C58   A    
C269  H151  S    
C237  H86   S    
C244  H100  S    
Cu5   O31   S    
C17   C57   A    
C134  C150  A    
C43   H27   S    
C283  O75   D    
C243  H99   S    
C3    O7    A    
C149  C154  A    
C93   H45   S    
C301  H189  S    
C293  H181  S    
C158  C240  S    
C227  H55   S    
C48   C54   A    
C240  H95   S    
C272  H158  S    
C4    O4    A    
C11   C187  A    
C86   H38   S    
C286  H174  S    
C265  H139  S    
C5    O9    A    
C233  H74   S    
C302  O94   D    
C53   C117  S    
Cu1   O23   S    
C38   C52   A    
C110  O42   A    
C48   H32   S    
C211  H11   S    
C279  H167  S    
C12   C188  A    
C123  O23   A    
C270  H152  S    
C297  O89   D    
C67   C115  A    
C252  H108  S    
C262  H129  S    
C198  C270  S    
C214  H14   S    
C245  O53   D    
C277  H165  S    
C66   C290  S    
C11   C191  A    
C2    O2    A    
C238  H90   S    
C250  O58   D    
C296  H184  S    
C249  O57   D    
C56   C120  S    
Cu9   O36   S    
C10   C107  S    
C206  H6    S    
C163  C176  A    
C72   C88   A    
Cu10  O37   S    
C87   C99   A    
C261  H126  S    
C14   C111  S    
C292  O84   D    
C34   C50   A    
C73   C117  A    
C84   H36   S    
C1    O5    A    
C132  C148  A    
C133  C149  A    
C282  H170  S    
C242  O50   D    
C1    C97   S    
C287  H175  S    
C7    O11   A    
C300  H188  S    
C20   C36   A    
C24   C280  S    
C264  H134  S    
C148  C226  S    
C121  O17   A    
C128  O32   A    
Cu1   O1    S    
Cu6   O14   S    
Cu6   Cu8   S    
C21   C57   A    
C13   C110  S    
C168  C180  A    
C239  H93   S    
C15   C199  A    
C195  C211  A    
C193  C209  A    
C247  H103  S    
Cu7   O29   S    
C70   C294  S    
C216  H16   S    
C169  C181  A    
C26   C282  S    
C285  H173  S    
C88   H40   S    
C71   C115  A    
Cu4   O8    S    
C213  H13   S    
C18   C34   A    
C236  H82   S    
C214  C224  A    
C76   C92   A    
C141  C253  S    
C194  C266  S    
C277  O69   D    
C68   C116  A    
C192  C208  A    
Cu2   Cu4   S    
C271  H156  S    
C19   C275  S    
Cu11  O44   S    
C71   C87   A    
C80   C96   A    
C256  O64   D    
C70   C86   A    
C54   C118  S    
C105  O33   A    
C283  H171  S    
C47   C55   A    
C248  H104  S    
C268  H146  S    
C227  H57   S    
C107  O35   A    
C42   H26   S    
C172  C182  A    
C174  C184  A    
C108  O36   A    
C272  H160  S    
C126  O28   A    
C142  C254  S    
C189  C261  S    
C215  C223  A    
C6    O10   A    
Cu3   O21   S    
C7    O15   A    
C31   C63   A    
C257  H114  S    
C232  H70   S    
C207  C219  A    
C203  C219  A    
C82   H34   S    
C270  H154  S    
C111  O43   A    
C263  H132  S    
C33   H17   S    
C26   C62   A    
C201  C217  A    
C267  H144  S    
C59   C219  S    
Cu11  O43   S    
Cu8   O32   S    
C27   C283  S    
C68   C292  S    
C228  H59   S    
C239  H91   S    
C81   C97   A    
C192  C264  S    
C23   C39   A    
C16   C196  A    
C266  H141  S    
C235  H80   S    
Cu5   O15   S    
C193  C265  S    
C259  H119  S    
C268  H148  S    
C216  C222  A    
C112  O48   A    
C278  H166  S    
C2    C98   S    
C166  C169  A    
Cu12  O48   S    
C253  H109  S    
C288  H176  S    
C65   C289  S    
C228  H58   S    
C161  C177  A    
C153  C235  S    
