data_mof_unit_32190.cif
_audit_creation_date              2012-12-11T14:04:07-0500
_audit_creation_method            fapswitch 2.2
_symmetry_space_group_name_H-M    P1
_symmetry_Int_Tables_number       1
_space_group_crystal_system       triclinic
_cell_length_a                    18.897209
_cell_length_b                    10.993219
_cell_length_c                    18.741493
_cell_angle_alpha                 90.323467
_cell_angle_beta                  89.771576
_cell_angle_gamma                 89.989338
_cell_volume                      3893.2863695

loop_
_atom_site_label
_atom_site_type_symbol
_atom_type_description
_atom_site_fract_x
_atom_site_fract_y
_atom_site_fract_z
_atom_type_partial_charge
C1    C     C_R   0.227700 0.511246 0.637749 0.569228
C2    C     C_R   0.773018 0.513719 0.362371 0.567280
C3    C     C_R   0.727700 0.011247 0.637749 0.569231
C4    C     C_R   0.273018 0.013717 0.362372 0.567275
C5    C     C_2   0.306519 0.889344 0.546716 -0.169506
C6    C     C_2   0.698711 0.877552 0.455687 -0.166451
C7    C     C_2   0.806519 0.389345 0.546715 -0.169507
C8    C     C_2   0.198710 0.377554 0.455686 -0.166449
C9    C     C_R   0.003701 0.667166 0.426579 -0.039407
C10   C     C_R   0.991312 0.657697 0.576411 -0.033593
C11   C     C_R   0.503701 0.167168 0.426579 -0.039408
C12   C     C_R   0.491312 0.157696 0.576411 -0.033594
C13   C     C_R   0.991552 0.892757 0.434950 -0.069039
C14   C     C_R   0.961575 0.873790 0.580180 -0.075580
C15   C     C_R   0.491547 0.392760 0.434952 -0.069037
C16   C     C_R   0.461573 0.373788 0.580182 -0.075580
C17   C     C_R   0.969762 0.994818 0.473791 -0.127028
C18   C     C_R   0.952979 0.984495 0.545845 -0.127608
C19   C     C_R   0.469756 0.494820 0.473793 -0.127032
C20   C     C_R   0.452977 0.484495 0.545848 -0.127609
C21   C     C_R   0.983153 0.769618 0.541733 0.009179
C22   C     C_R   0.993264 0.776455 0.466873 0.009365
C23   C     C_R   0.483152 0.269618 0.541733 0.009178
C24   C     C_R   0.493262 0.276456 0.466873 0.009366
C25   C     C_R   0.993306 0.549597 0.535078 0.017373
C26   C     C_R   0.013617 0.556391 0.463315 0.009529
C27   C     C_R   0.493308 0.049597 0.535077 0.017373
C28   C     C_R   0.513619 0.056392 0.463315 0.009527
C29   C     C_R   0.978943 0.433822 0.564415 -0.085736
C30   C     C_R   0.036677 0.448786 0.428448 -0.074352
C31   C     C_R   0.478945 0.933821 0.564414 -0.085738
C32   C     C_R   0.536679 0.948789 0.428447 -0.074350
C33   C     C_R   0.995761 0.328000 0.526924 -0.152444
C34   C     C_R   0.026578 0.335444 0.459694 -0.141561
C35   C     C_R   0.495761 0.828000 0.526921 -0.152444
C36   C     C_R   0.526578 0.835445 0.459691 -0.141557
C37   C     C_2   0.238670 0.897174 0.929041 -0.103025
C38   C     C_2   0.742143 0.936891 0.086239 -0.102799
C39   C     C_2   0.738665 0.397150 0.929048 -0.102956
C40   C     C_2   0.242133 0.436886 0.086241 -0.102826
C41   C     C_2   0.247700 0.895107 0.085345 -0.108435
C42   C     C_2   0.727706 0.987908 0.933571 -0.099412
C43   C     C_2   0.747692 0.395088 0.085351 -0.108426
C44   C     C_2   0.227750 0.487823 0.933564 -0.099405
C45   C     C_R   0.228768 0.878433 0.649868 0.555577
C46   C     C_R   0.771384 0.878274 0.350201 0.553561
C47   C     C_R   0.728768 0.378433 0.649868 0.555582
C48   C     C_R   0.271384 0.378274 0.350201 0.553563
C49   C     C_2   0.187944 0.913388 0.049532 -0.154224
C50   C     C_2   0.763616 0.059643 0.978711 -0.162468
C51   C     C_2   0.687934 0.413369 0.049541 -0.154216
C52   C     C_2   0.263541 0.559677 0.978731 -0.162507
C53   C     C_2   0.183005 0.887898 0.973744 -0.152505
C54   C     C_2   0.778997 0.023286 0.052175 -0.152400
C55   C     C_2   0.682990 0.387914 0.973749 -0.152443
C56   C     C_2   0.278963 0.523314 0.052183 -0.152391
C57   C     C_2   0.982541 0.664228 0.912836 -0.108964
C58   C     C_2   0.956130 0.655021 0.066820 -0.095494
C59   C     C_2   0.482538 0.164229 0.912834 -0.108980
C60   C     C_2   0.456142 0.155016 0.066822 -0.095492
C61   C     C_2   0.934744 0.568387 0.021298 -0.166368
C62   C     C_2   0.958928 0.565001 0.946885 -0.154822
C63   C     C_2   0.434734 0.068401 0.021295 -0.166377
C64   C     C_2   0.458929 0.065002 0.946886 -0.154839
C65   C     C_R   0.026167 0.654016 0.647011 0.526501
C66   C     C_R   0.972652 0.656059 0.354108 0.534246
C67   C     C_R   0.526167 0.154016 0.647011 0.526502
C68   C     C_R   0.472652 0.156060 0.354108 0.534243
C69   C     C_R   0.224100 0.518527 0.858640 0.573314
C70   C     C_R   0.760513 0.462734 0.150473 0.557356
C71   C     C_R   0.724092 0.018550 0.858635 0.573354
C72   C     C_R   0.260515 0.962739 0.150471 0.557356
C73   C     C_R   0.226096 0.870740 0.854582 0.546275
C74   C     C_R   0.771286 0.876441 0.148443 0.550018
C75   C     C_R   0.726093 0.370731 0.854585 0.546288
C76   C     C_R   0.271285 0.376439 0.148442 0.550014
C77   C     C_R   0.026987 0.652723 0.849514 0.541554
C78   C     C_R   0.937805 0.647543 0.141716 0.572838
C79   C     C_R   0.526987 0.152723 0.849515 0.541547
C80   C     C_R   0.437808 0.147543 0.141715 0.572827
C81   C     C_2   0.256806 0.940705 0.588044 -0.110444
C82   C     C_2   0.743861 0.937124 0.413313 -0.109813
C83   C     C_2   0.756806 0.440705 0.588044 -0.110445
C84   C     C_2   0.243861 0.437125 0.413313 -0.109812
C85   C     C_2   0.263499 0.972738 0.435027 -0.112214
C86   C     C_2   0.738918 0.967183 0.566135 -0.112318
C87   C     C_2   0.763501 0.472747 0.435027 -0.112213
C88   C     C_2   0.238918 0.467182 0.566135 -0.112318
C89   C     C_2   0.317896 0.931379 0.473627 -0.163503
C90   C     C_2   0.686274 0.918083 0.528636 -0.162834
C91   C     C_2   0.817896 0.431380 0.473626 -0.163502
C92   C     C_2   0.186273 0.418085 0.528635 -0.162834
Cr1   Cr    Cr6+3 0.113970 0.508630 0.747920 1.018921
Cr2   Cr    Cr6+3 0.886030 0.508630 0.252080 1.013387
Cr3   Cr    Cr6+3 0.613970 0.008630 0.747920 1.018916
Cr4   Cr    Cr6+3 0.386030 0.008630 0.252080 1.013390
Cr5   Cr    Cr6+3 0.269200 0.666740 0.749850 1.004273
Cr6   Cr    Cr6+3 0.730800 0.666740 0.250150 1.008361
Cr7   Cr    Cr6+3 0.769200 0.166740 0.749850 1.004256
Cr8   Cr    Cr6+3 0.230800 0.166740 0.250150 1.008359
Cr9   Cr    Cr6+3 0.112300 0.820070 0.749800 1.016505
Cr10  Cr    Cr6+3 0.887700 0.820070 0.250200 1.010564
Cr11  Cr    Cr6+3 0.612300 0.320070 0.749800 1.016505
Cr12  Cr    Cr6+3 0.387700 0.320070 0.250200 1.010568
H1    H     H_    0.291239 0.843899 0.061886 0.090962
H2    H     H_    0.702350 0.904431 0.950556 0.110606
H3    H     H_    0.791227 0.343877 0.061889 0.090975
H4    H     H_    0.202552 0.404189 0.950517 0.110644
H5    H     H_    0.292140 0.914402 0.947470 0.086532
H6    H     H_    0.692477 0.902613 0.065451 0.107034
H7    H     H_    0.792146 0.414306 0.947481 0.086498
H8    H     H_    0.192471 0.402586 0.065444 0.107069
H9    H     H_    0.987815 0.731862 0.049682 0.104440
H10   H     H_    0.974937 0.754741 0.934956 0.102946
H11   H     H_    0.487856 0.231830 0.049687 0.104442
H12   H     H_    0.474924 0.254743 0.934951 0.102958
H13   H     H_    0.335410 0.809447 0.564106 0.144412
H14   H     H_    0.674181 0.792889 0.438813 0.149468
H15   H     H_    0.835408 0.309446 0.564105 0.144413
H16   H     H_    0.174179 0.292891 0.438812 0.149466
H17   H     H_    0.210403 0.977781 0.457352 0.113095
H18   H     H_    0.791505 0.977722 0.543251 0.117252
H19   H     H_    0.710406 0.477800 0.457354 0.113093
H20   H     H_    0.291505 0.477719 0.543252 0.117253
H21   H     H_    0.007476 0.906539 0.380153 0.137710
H22   H     H_    0.948076 0.868643 0.636297 0.131666
H23   H     H_    0.507470 0.406544 0.380154 0.137712
H24   H     H_    0.448075 0.368640 0.636298 0.131665
H25   H     H_    0.060923 0.451995 0.376014 0.138929
H26   H     H_    0.954866 0.424781 0.616650 0.138634
H27   H     H_    0.560925 0.951998 0.376013 0.138927
H28   H     H_    0.454867 0.924779 0.616649 0.138634
H29   H     H_    0.987151 0.240725 0.551233 0.109011
H30   H     H_    0.042493 0.253708 0.431524 0.106615
H31   H     H_    0.487147 0.740724 0.551227 0.109010
H32   H     H_    0.542491 0.753709 0.431519 0.106616
H33   H     H_    0.142761 0.957977 0.074426 0.156687
H34   H     H_    0.789518 0.141154 0.958989 0.140389
H35   H     H_    0.642753 0.457952 0.074441 0.156678
H36   H     H_    0.289313 0.641323 0.959040 0.140368
O1    O     O_R   0.043230 0.549300 0.667990 -0.530557
O2    O     O_R   0.956770 0.549300 0.332010 -0.523226
O3    O     O_R   0.543230 0.049300 0.667990 -0.530555
O4    O     O_R   0.456770 0.049300 0.332010 -0.523225
O5    O     O_R   0.262920 0.788600 0.824420 -0.519668
O6    O     O_R   0.737080 0.788600 0.175580 -0.498531
O7    O     O_R   0.762920 0.288600 0.824420 -0.519688
O8    O     O_R   0.237080 0.288600 0.175580 -0.498538
O9    O     O_R   0.167530 0.905110 0.830340 -0.506333
O10   O     O_R   0.832470 0.905110 0.169660 -0.520400
O11   O     O_R   0.667530 0.405110 0.830340 -0.506336
O12   O     O_R   0.332470 0.405110 0.169660 -0.520381
O13   O     O_R   0.054010 0.748440 0.822860 -0.505224
O14   O     O_R   0.945990 0.748440 0.177140 -0.497592
O15   O     O_R   0.554010 0.248440 0.822860 -0.505224
O16   O     O_R   0.445990 0.248440 0.177140 -0.497590
O17   O     O_3   0.165160 0.665150 0.749190 -0.280198
O18   O     O_3   0.834840 0.665150 0.250810 -0.278871
O19   O     O_3   0.665160 0.165150 0.749190 -0.280215
O20   O     O_3   0.334840 0.165150 0.250810 -0.278868
O21   O     O_R   0.178620 0.457600 0.674100 -0.482718
O22   O     O_R   0.821380 0.457600 0.325900 -0.488980
O23   O     O_R   0.678620 0.957600 0.674100 -0.482714
O24   O     O_R   0.321380 0.957600 0.325900 -0.488976
O25   O     O_R   0.284680 0.542100 0.669460 -0.519335
O26   O     O_R   0.715320 0.542100 0.330540 -0.519552
O27   O     O_R   0.784680 0.042100 0.669460 -0.519332
O28   O     O_R   0.215320 0.042100 0.330540 -0.519548
O29   O     O_R   0.262860 0.790390 0.676650 -0.513305
O30   O     O_R   0.737140 0.790390 0.323350 -0.514420
O31   O     O_R   0.762860 0.290390 0.676650 -0.513304
O32   O     O_R   0.237140 0.290390 0.323350 -0.514418
O33   O     O_R   0.167460 0.907030 0.670940 -0.503597
O34   O     O_R   0.832540 0.907030 0.329060 -0.510517
O35   O     O_R   0.667460 0.407030 0.670940 -0.503592
O36   O     O_R   0.332540 0.407030 0.329060 -0.510519
O37   O     O_R   0.053950 0.750220 0.675100 -0.495365
O38   O     O_R   0.946050 0.750220 0.324900 -0.501543
O39   O     O_R   0.553950 0.250220 0.675100 -0.495364
O40   O     O_R   0.446050 0.250220 0.324900 -0.501544
O41   O     O_R   0.043300 0.547370 0.827390 -0.520081
O42   O     O_R   0.956700 0.547370 0.172610 -0.504206
O43   O     O_R   0.543300 0.047370 0.827390 -0.520095
O44   O     O_R   0.456700 0.047370 0.172610 -0.504203
O45   O     O_R   0.178690 0.455820 0.821860 -0.487281
O46   O     O_R   0.821310 0.455820 0.178140 -0.515399
O47   O     O_R   0.678690 0.955820 0.821860 -0.487287
O48   O     O_R   0.321310 0.955820 0.178140 -0.515396
O49   O     O_R   0.284750 0.540170 0.828860 -0.498708
O50   O     O_R   0.715250 0.540170 0.171140 -0.506242
O51   O     O_R   0.784750 0.040170 0.828860 -0.498733
O52   O     O_R   0.215250 0.040170 0.171140 -0.506244
H37   H     H_    0.369929 0.920161 0.449776 0.174838
H38   H     H_    0.635296 0.900698 0.553148 0.178555
H39   H     H_    0.869928 0.420153 0.449774 0.174839
H40   H     H_    0.135295 0.400703 0.553148 0.178555
H41   H     H_    0.130173 0.869733 0.953494 0.152974
H42   H     H_    0.826251 0.062019 0.076065 0.152720
H43   H     H_    0.630147 0.369811 0.953497 0.152951
H44   H     H_    0.326209 0.562090 0.076074 0.152720
H45   H     H_    0.904662 0.491075 0.040827 0.131631
H46   H     H_    0.962849 0.475713 0.922042 0.154131
H47   H     H_    0.404627 0.991109 0.040819 0.131616
H48   H     H_    0.462861 0.975707 0.922050 0.154140
H49   H     H_    0.229832 0.023101 0.571462 0.113208
H50   H     H_    0.767588 0.022852 0.429673 0.110002
H51   H     H_    0.729834 0.523103 0.571463 0.113208
H52   H     H_    0.267588 0.522854 0.429673 0.110002
H53   H     H_    0.965026 0.081734 0.447570 0.108094
H54   H     H_    0.933437 0.062091 0.575597 0.108428
H55   H     H_    0.465020 0.581737 0.447573 0.108093
H56   H     H_    0.433435 0.562089 0.575601 0.108430

loop_
_geom_bond_atom_site_label_1
_geom_bond_atom_site_label_2
_ccdc_geom_bond_type
C7    C83   D    
C49   C53   S    
Cr3   O3    S    
C6    C82   D    
Cr7   O19   S    
Cr8   O32   S    
C14   C18   A    
Cr9   O33   S    
C35   C36   A    
Cr6   O50   S    
C67   O3    A    
Cr10  O18   S    
C3    O27   A    
C57   C62   D    
Cr12  O36   S    
C15   C19   A    
C66   O38   A    
C12   C23   A    
C8    H16   S    
C59   C64   D    
C50   C54   S    
C63   H47   S    
C60   C63   D    
C19   H55   S    
C32   C36   A    
C14   C21   A    
C18   H54   S    
Cr12  O20   S    
C17   H53   S    
Cr4   O24   S    
C9    C22   A    
Cr11  O39   S    
Cr7   O31   S    
C4    O24   A    
C34   H30   S    
C29   C33   A    
C11   C24   A    
Cr5   O29   S    
C17   C18   A    
C84   H52   S    
C9    C66   S    
C62   H46   S    
C48   O32   A    
C83   H51   S    
C77   O13   A    
C46   C82   S    
Cr1   O41   S    
C39   C55   D    
C88   C92   D    
C75   O11   A    
C59   H12   S    
C40   C56   D    
C90   H38   S    
C86   H18   S    
C58   H9    S    
C77   O41   A    
C23   C24   A    
C46   O34   A    
C85   H17   S    
C8    C92   S    
C39   C75   S    
C38   H6    S    
C2    O26   A    
C37   H5    S    
Cr11  O11   S    
C13   H21   S    
C44   C52   D    
C58   C61   D    
C39   H7    S    
C64   H48   S    
Cr9   O17   S    
Cr2   O18   S    
C15   H23   S    
C21   C22   A    
C3    C86   S    
C79   O15   A    
C2    O22   A    
Cr8   O52   S    
C58   C78   S    
Cr4   O44   S    
C36   H32   S    
C41   C49   D    
C9    C26   A    
C80   O16   A    
Cr7   O27   S    
C44   H4    S    
C10   C21   A    
C25   C29   A    
C12   C67   S    
C55   H43   S    
C87   C91   D    
C30   C34   A    
C12   C27   A    
Cr3   O47   S    
Cr2   O2    S    
Cr6   O18   S    
C28   C32   A    
C16   H24   S    
C40   H8    S    
C65   O1    A    
C86   C90   D    
C59   C79   S    
C85   C89   D    
C78   O14   A    
C35   H31   S    
C4    C85   S    
Cr6   O6    S    
C75   O7    A    
C25   C26   A    
C6    C90   S    
C27   C31   A    
C68   O40   A    
C48   C84   S    
C73   O5    A    
C78   O42   A    
Cr5   O17   S    
Cr5   O49   S    
C87   H19   S    
C37   C53   D    
C31   H28   S    
C7    H15   S    
Cr4   O4    S    
C5    C81   D    
Cr8   O20   S    
C29   H26   S    
C38   C54   D    
Cr9   O13   S    
C16   C20   A    
C89   H37   S    
Cr11  O35   S    
C33   C34   A    
C2    C87   S    
C76   O12   A    
C43   H3    S    
Cr12  O16   S    
Cr1   O17   S    
C51   H35   S    
C42   H2    S    
Cr6   O26   S    
C46   O30   A    
C41   H1    S    
C42   C50   D    
C41   C72   S    
Cr8   O8    S    
C10   C25   A    
Cr11  O15   S    
C15   C24   A    
Cr4   O20   S    
Cr10  O10   S    
Cr1   O21   S    
C88   H20   S    
C16   C23   A    
C47   C83   S    
C72   O48   A    
Cr10  O38   S    
Cr3   O19   S    
Cr10  O34   S    
C69   O49   A    
C69   O45   A    
C7    C91   S    
C82   H50   S    
Cr1   O1    S    
C11   C68   S    
C70   O50   A    
Cr11  O19   S    
C81   H49   S    
C49   H33   S    
C38   C74   S    
C10   C65   S    
Cr10  O14   S    
C60   C80   S    
Cr3   O43   S    
C73   O9    A    
C1    O25   A    
C8    C84   D    
Cr5   O5    S    
C74   O6    A    
C33   H29   S    
C45   C81   S    
C54   H42   S    
Cr2   O46   S    
C80   O44   A    
C71   O47   A    
C92   H40   S    
C45   O29   A    
C47   O31   A    
C50   H34   S    
C26   C30   A    
C57   H10   S    
C66   O2    A    
C3    O23   A    
C43   C70   S    
C30   H25   S    
C91   H39   S    
C19   C20   A    
C37   C73   S    
C14   H22   S    
C13   C17   A    
Cr3   O23   S    
Cr8   O28   S    
C53   H41   S    
Cr12  O12   S    
C57   C77   S    
Cr7   O7    S    
C67   O39   A    
C72   O52   A    
Cr7   O51   S    
C43   C51   D    
Cr12  O40   S    
C65   O37   A    
C11   C28   A    
C1    C88   S    
Cr5   O25   S    
C31   C35   A    
Cr9   O9    S    
C42   C71   S    
C52   H36   S    
C79   O43   A    
C13   C22   A    
C68   O4    A    
C51   C55   S    
C20   H56   S    
C61   C62   S    
C5    C89   S    
Cr9   O37   S    
C70   O46   A    
C1    O21   A    
C63   C64   S    
Cr6   O30   S    
C4    O28   A    
C45   O33   A    
C76   O8    A    
C40   C76   S    
C5    H13   S    
C27   C28   A    
C44   C69   S    
C74   O10   A    
C60   H11   S    
Cr2   O42   S    
C71   O51   A    
Cr4   O48   S    
C6    H14   S    
C32   H27   S    
C47   O35   A    
Cr2   O22   S    
C52   C56   S    
C61   H45   S    
C48   O36   A    
C56   H44   S    
Cr1   O45   S    
