data_mof_unit_19735.cif
_audit_creation_date              2012-12-10T19:43:24-0500
_audit_creation_method            fapswitch 2.2
_symmetry_space_group_name_H-M    P1
_symmetry_Int_Tables_number       1
_space_group_crystal_system       triclinic
_cell_length_a                    10.907774
_cell_length_b                    10.946535
_cell_length_c                    9.716956
_cell_angle_alpha                 90.79863
_cell_angle_beta                  92.870718
_cell_angle_gamma                 97.524689
_cell_volume                      1148.54630014

loop_
_atom_site_label
_atom_site_type_symbol
_atom_type_description
_atom_site_fract_x
_atom_site_fract_y
_atom_site_fract_z
_atom_type_partial_charge
C1    C     C_R   0.500021 0.261782 0.499738 0.826088
C2    C     C_R   0.133815 0.350226 0.978912 -0.224121
C3    C     C_R   0.919179 0.401564 0.419904 0.485440
C4    C     C_R   0.870941 0.482653 0.510068 -0.115978
C5    C     C_R   0.952268 0.558255 0.601626 -0.006687
C6    C     C_R   0.077945 0.580661 0.573462 0.196052
C7    C     C_R   0.127272 0.498984 0.486301 -0.152687
C8    C     C_R   0.047387 0.416600 0.397739 -0.063612
C9    C     C_R   0.948036 0.686736 0.815066 -0.212842
C10   C     C_R   0.948732 0.694680 0.958406 0.096806
C11   C     C_R   0.896086 0.593092 0.030952 0.293132
C12   C     C_R   0.262062 0.496666 0.495731 0.795685
C13   C     C_R   0.852095 0.481953 0.961354 0.300805
C14   C     C_R   0.875116 0.467741 0.822582 0.304686
C15   C     C_R   0.919419 0.572493 0.746456 -0.043707
C16   C     C_R   0.544728 0.120915 0.756943 -0.022998
C17   C     C_R   0.516831 0.063941 0.880722 -0.105628
C18   C     C_R   0.453112 0.945577 0.879454 -0.139954
C19   C     C_R   0.432792 0.878735 0.755830 -0.115748
C20   C     C_R   0.467748 0.933366 0.630034 0.120934
C21   C     C_R   0.503698 0.061956 0.628698 0.052517
C22   C     C_R   0.493954 0.125028 0.500982 -0.097236
C23   C     C_R   0.487727 0.734823 0.501135 0.783021
C24   C     C_R   0.460225 0.053254 0.377904 0.188572
C25   C     C_R   0.455271 0.925691 0.381229 -0.215615
C26   C     C_R   0.467268 0.865346 0.505286 -0.153974
C27   C     C_R   0.633893 0.720670 0.136077 0.122745
C28   C     C_R   0.667865 0.818985 0.047269 -0.294642
C29   C     C_R   0.683545 0.797347 0.911060 0.369689
C30   C     C_R   0.643623 0.682839 0.855919 -0.242742
C31   C     C_R   0.569452 0.594108 0.927820 0.123197
C32   C     C_R   0.567525 0.601755 0.077540 0.268691
C33   C     C_R   0.440191 0.406047 0.068451 0.006022
C34   C     C_R   0.736819 0.493142 0.503370 0.870260
C35   C     C_R   0.439464 0.406457 0.921771 0.040902
C36   C     C_R   0.163038 0.466714 0.040312 0.300089
C37   C     C_R   0.138406 0.485053 0.177361 -0.083309
C38   C     C_R   0.088050 0.386727 0.258046 0.040416
C39   C     C_R   0.063978 0.268322 0.197048 -0.146455
C40   C     C_R   0.083926 0.251450 0.056917 0.421071
Cu1   Cu    Cu3+1 0.499990 0.499990 0.640660 0.967685
Cu2   Cu    Cu3+1 0.500010 0.500010 0.359340 0.996835
H1    H     H_    0.149185 0.336648 0.870846 0.209138
H2    H     H_    0.600997 0.209418 0.765145 0.222483
H3    H     H_    0.545223 0.111954 0.977187 0.170007
H4    H     H_    0.427335 0.901980 0.974913 0.153460
H5    H     H_    0.387424 0.785515 0.760843 0.196899
H6    H     H_    0.441120 0.872508 0.285448 0.175779
H7    H     H_    0.387494 0.330396 0.117682 0.107273
H8    H     H_    0.703500 0.910839 0.087045 0.217930
H9    H     H_    0.669591 0.667070 0.753895 0.225938
H10   H     H_    0.387589 0.329892 0.863927 0.119460
H11   H     H_    0.156035 0.577928 0.220412 0.193704
H12   H     H_    0.026256 0.190435 0.256059 0.203663
H13   H     H_    0.977140 0.768751 0.758552 0.214841
N1    N     N_R   0.501190 0.501210 0.147910 -0.169658
N2    N     N_R   0.501230 0.501290 0.852040 -0.173634
O1    O     O_R   0.499990 0.319640 0.618810 -0.614024
O2    O     O_R   0.500000 0.319660 0.381240 -0.555973
O3    O     O_R   0.319640 0.500000 0.618780 -0.534238
O4    O     O_R   0.319650 0.500020 0.381210 -0.602236
O5    O     O_R   0.500000 0.680340 0.618760 -0.599971
O6    O     O_R   0.500010 0.680360 0.381190 -0.593497
O7    O     O_R   0.680350 0.499980 0.618790 -0.607908
O8    O     O_R   0.680360 0.500000 0.381220 -0.505760
Cl1   Cl    Cl    0.896497 0.601863 0.209555 -0.699120
Cl2   Cl    Cl    0.769775 0.359101 0.046331 -0.485153
Cl3   Cl    Cl    0.858372 0.315983 0.751717 -0.520009
C41   C     C_3   0.425873 0.107126 0.241789 -0.812481
H14   H     H_    0.393537 0.035076 0.162059 0.207917
H15   H     H_    0.347509 0.160813 0.254584 0.222548
H16   H     H_    0.507511 0.165019 0.202977 0.275888
Cl4   Cl    Cl    0.229800 0.591422 0.947093 -0.715953
C42   C     C_3   0.699921 0.762393 0.274651 -0.593812
H17   H     H_    0.797752 0.801481 0.261129 0.226261
H18   H     H_    0.660171 0.841701 0.317694 0.198169
H19   H     H_    0.707664 0.696509 0.354465 0.259998
Cl5   Cl    Cl    0.761243 0.912326 0.810560 -0.545211
Cl6   Cl    Cl    0.039323 0.108717 0.975391 -0.569790
Cl7   Cl    Cl    0.818710 0.274128 0.349174 -0.525068
C43   C     C_3   0.152493 0.703915 0.611789 -0.782702
H20   H     H_    0.099801 0.779102 0.577342 0.225095
H21   H     H_    0.174465 0.713167 0.723532 0.279015
H22   H     H_    0.240134 0.719384 0.558484 0.198775
C44   C     C_3   0.011411 0.808973 0.032387 -0.586277
H23   H     H_    0.078014 0.784527 0.114363 0.234876
H24   H     H_    0.941740 0.859711 0.078940 0.258341
H25   H     H_    0.065917 0.869103 0.960476 0.261615

loop_
_geom_bond_atom_site_label_1
_geom_bond_atom_site_label_2
_ccdc_geom_bond_type
C30   H9    S    
C10   C44   S    
C16   C21   A    
Cu1   Cu2   S    
C19   C20   A    
C43   H20   S    
C7    C8    A    
C44   H23   S    
C37   C38   A    
C42   H18   S    
C36   C37   A    
C17   H3    S    
Cu1   O1    S    
C1    O2    A    
C5    C6    A    
C19   H5    S    
C39   H12   S    
C33   H7    S    
C18   C19   A    
C23   C26   S    
C41   H15   S    
Cu2   N1    S    
C28   H8    S    
C23   O5    A    
C29   Cl5   S    
C16   C17   A    
C42   H19   S    
Cu2   O8    S    
C9    H13   S    
C27   C42   S    
C9    C10   A    
C16   H2    S    
C11   Cl1   S    
C37   H11   S    
C33   N1    A    
C23   O6    A    
C1    C22   S    
C6    C43   S    
C13   C14   A    
C8    C38   S    
Cu1   O5    S    
C3    Cl7   S    
C18   H4    S    
C34   O8    A    
C43   H21   S    
C24   C41   S    
C44   H24   S    
C7    C12   S    
C4    C34   S    
C42   H17   S    
C38   C39   A    
C24   C25   A    
C3    C8    A    
C36   Cl4   S    
C39   C40   A    
C25   C26   A    
C41   H16   S    
C29   C30   A    
C31   C32   A    
C25   H6    S    
C2    H1    S    
C34   O7    A    
C17   C18   A    
C40   Cl6   S    
Cu2   O4    S    
C22   C24   A    
C3    C4    A    
C35   H10   S    
C43   H22   S    
C13   Cl2   S    
C44   H25   S    
C2    C36   A    
C28   C29   A    
C27   C32   A    
Cu1   O3    S    
C4    C5    A    
Cu2   O2    S    
C6    C7    A    
C35   N2    A    
C31   N2    A    
C9    C15   A    
Cu1   N2    S    
C1    O1    A    
C12   O4    A    
C11   C13   A    
C30   C31   A    
C20   C26   A    
C33   C35   A    
C41   H14   S    
C5    C15   S    
C10   C11   A    
C12   O3    A    
C2    C40   A    
C20   C21   A    
C27   C28   A    
C14   Cl3   S    
C14   C15   A    
Cu1   O7    S    
C21   C22   A    
Cu2   O6    S    
C32   N1    A    
