data_mof_unit_14358.cif
_audit_creation_date              2013-03-05T15:41:04-0500
_audit_creation_method            fapswitch 2.2
_symmetry_space_group_name_H-M    P1
_symmetry_Int_Tables_number       1
_space_group_crystal_system       triclinic
_cell_length_a                    10.963126
_cell_length_b                    10.999523
_cell_length_c                    18.717776
_cell_angle_alpha                 89.287807
_cell_angle_beta                  89.05459
_cell_angle_gamma                 60.237377
_cell_volume                      1959.12743916

loop_
_atom_site_label
_atom_site_type_symbol
_atom_site_description
_atom_site_fract_x
_atom_site_fract_y
_atom_site_fract_z
_atom_type_partial_charge
O1    O     O_R   0.507110 0.256280 0.580300 -0.401149
O2    O     O_R   0.280830 0.527190 0.577940 -0.423150
C1    C     C_R   0.230765 0.646686 0.607587 0.599334
O3    O     O_R   0.261360 0.738990 0.584270 -0.495340
O4    O     O_R   0.532590 0.694780 0.574370 -0.436681
C2    C     C_R   0.651172 0.617257 0.603436 0.627276
O5    O     O_R   0.744470 0.503750 0.577000 -0.515591
O6    O     O_R   0.698520 0.277230 0.571620 -0.500328
C3    C     C_R   0.629929 0.223815 0.600640 0.645664
O7    O     O_R   0.498530 0.256920 0.419280 -0.475394
O8    O     O_R   0.272880 0.527780 0.428680 -0.503663
C4    C     C_R   0.225274 0.648523 0.400564 0.538792
O9    O     O_R   0.252780 0.739630 0.423250 -0.485748
O10   O     O_R   0.524640 0.695370 0.425100 -0.469498
C5    C     C_R   0.639347 0.618169 0.391187 0.562223
O11   O     O_R   0.735890 0.504390 0.415980 -0.500492
O12   O     O_R   0.690560 0.277820 0.422350 -0.483510
C6    C     C_R   0.620633 0.223397 0.396954 0.528882
Cr1   Cr    Cr6+3 0.393010 0.398050 0.501480 1.192655
Cr2   Cr    Cr6+3 0.398820 0.707980 0.501630 1.167115
Cr3   Cr    Cr6+3 0.708140 0.393940 0.496850 1.118563
O13   O     O_3   0.499990 0.499990 0.499980 -0.302975
C7    C     C_3   0.706635 0.785721 0.768485 -0.257531
H1    H     H_    0.808436 0.782014 0.778329 0.052728
C8    C     C_3   0.698234 0.759774 0.688340 0.024727
H2    H     H_    0.917565 0.526210 0.789179 0.168223
C9    C     C_3   0.817792 0.523024 0.787188 0.051588
C10   C     C_3   0.551031 0.684460 0.805565 0.070163
C11   C     C_3   0.697658 0.670468 0.814724 -0.048181
C12   C     C_3   0.666423 0.638013 0.679878 -0.036239
C13   C     C_3   0.795365 0.503689 0.709511 -0.248890
C14   C     C_3   0.533306 0.659219 0.725340 0.075105
H3    H     H_    0.437878 0.751462 0.704087 0.198608
C15   C     C_2   0.678571 0.149211 0.668765 -0.041529
C16   C     C_2   0.693307 0.157562 0.825258 -0.020791
C17   C     C_2   0.805159 0.110663 0.780990 -0.128933
C18   C     C_2   0.786789 0.144084 0.704059 -0.153543
H4    H     H_    0.911072 0.046846 0.801026 0.181531
H5    H     H_    0.859356 0.170519 0.677474 0.176372
H6    H     H_    0.612698 0.114052 0.695161 0.182122
C19   C     C_2   0.171947 0.661315 0.680586 -0.128856
C20   C     C_2   0.189737 0.666137 0.837303 -0.089659
C21   C     C_2   0.201104 0.553760 0.802551 0.164437
C22   C     C_2   0.203480 0.547214 0.722655 0.183617
C23   C     C_2   0.647110 0.640806 0.314909 0.196964
C24   C     C_2   0.624687 0.652756 0.153223 -0.063296
C25   C     C_2   0.696057 0.534676 0.192265 0.171584
C26   C     C_2   0.671948 0.534791 0.270159 -0.154658
C27   C     C_2   0.671862 0.133809 0.333757 0.168884
C28   C     C_2   0.645448 0.156878 0.176379 -0.092123
C29   C     C_2   0.593276 0.094812 0.219233 -0.060780
C30   C     C_2   0.577986 0.114451 0.295884 0.194882
H7    H     H_    0.555444 0.028707 0.197325 0.221064
H8    H     H_    0.683984 0.223463 0.196615 0.150721
C31   C     C_2   0.187655 0.662995 0.326843 -0.026038
C32   C     C_2   0.180796 0.644470 0.173625 -0.085436
C33   C     C_2   0.238680 0.710081 0.205793 -0.130844
C34   C     C_2   0.267252 0.690189 0.281197 -0.122627
H9    H     H_    0.250781 0.791778 0.179000 0.189734
O14   O     O_R   0.089190 0.825870 0.932320 -0.477355
O15   O     O_R   0.819070 0.053960 0.931440 -0.476842
C35   C     C_R   0.704874 0.099460 0.896665 0.562414
O16   O     O_R   0.607070 0.076440 0.916460 -0.468654
O17   O     O_R   0.647110 0.806550 0.917690 -0.472915
C36   C     C_R   0.723905 0.688094 0.889040 0.572327
O18   O     O_R   0.837080 0.593860 0.915300 -0.461345
O19   O     O_R   0.064770 0.636080 0.932550 -0.476681
C37   C     C_R   0.119177 0.706821 0.907299 0.556750
O20   O     O_R   0.068250 0.829200 0.092940 -0.478543
O21   O     O_R   0.799650 0.057040 0.080330 -0.435577
C38   C     C_R   0.674031 0.108257 0.103761 0.589975
O22   O     O_R   0.586130 0.079760 0.077080 -0.507751
O23   O     O_R   0.627700 0.809630 0.066580 -0.498845
C39   C     C_R   0.690415 0.685548 0.092857 0.593594
O24   O     O_R   0.816140 0.597180 0.075920 -0.432862
O25   O     O_R   0.045360 0.639170 0.081440 -0.485818
C40   C     C_R   0.098216 0.705628 0.110890 0.578275
Cr4   Cr    Cr6+3 0.937950 0.938450 0.008940 1.166059
Cr5   Cr    Cr6+3 0.626180 0.937030 0.994750 1.145541
Cr6   Cr    Cr6+3 0.937790 0.625760 0.001410 1.170406
O26   O     O_3   0.833980 0.833750 0.001700 -0.328697
N1    N     N_R   0.512688 0.537040 0.717909 0.003788
O27   O     O_R   0.502848 0.495803 0.654995 -0.341541
O28   O     O_R   0.505323 0.466633 0.772486 -0.359693
N2    N     N_R   0.839164 0.399254 0.829011 0.111168
O29   O     O_R   0.950939 0.279206 0.816422 -0.260370
O30   O     O_R   0.754280 0.406476 0.880292 -0.300185
H10   H     H_    0.779933 0.411850 0.703447 0.208669
H11   H     H_    0.587995 0.219500 0.804528 0.207247
N3    N     N_R   0.221879 0.432625 0.843350 0.125560
O31   O     O_R   0.308232 0.388531 0.896790 -0.280057
O32   O     O_R   0.163624 0.360125 0.824434 -0.229183
N4    N     N_R   0.242739 0.413964 0.690932 0.149057
O33   O     O_R   0.353007 0.301019 0.713124 -0.237061
O34   O     O_R   0.157237 0.402752 0.647622 -0.325910
H12   H     H_    0.204050 0.745174 0.809475 0.120327
H13   H     H_    0.624475 0.892804 0.784001 0.222403
H14   H     H_    0.127205 0.764893 0.703488 0.055568
N5    N     N_R   0.800142 0.405452 0.159870 0.091466
O35   O     O_R   0.903702 0.312147 0.197615 -0.247785
O36   O     O_R   0.780500 0.372194 0.096259 -0.303037
H15   H     H_    0.689906 0.435866 0.292923 0.147508
H16   H     H_    0.527256 0.738322 0.173539 0.126577
N6    N     N_R   0.620088 0.774363 0.289927 0.052223
O37   O     O_R   0.723302 0.790375 0.266035 -0.339378
O38   O     O_R   0.490804 0.871654 0.279820 -0.317445
N7    N     N_R   0.454252 0.120987 0.327975 0.122996
O39   O     O_R   0.335741 0.181280 0.293963 -0.277064
O40   O     O_R   0.464539 0.049921 0.385988 -0.227477
N8    N     N_R   0.814931 0.080595 0.308510 0.049091
O41   O     O_R   0.879101 0.962798 0.273875 -0.296293
O42   O     O_R   0.886461 0.140790 0.326211 -0.256842
N9    N     N_R   0.599790 0.886958 0.649322 0.061788
O43   O     O_R   0.642445 0.921737 0.591346 -0.335637
O44   O     O_R   0.467502 0.957683 0.666972 -0.245466
H17   H     H_    0.348823 0.709966 0.300364 0.166742
H18   H     H_    0.178682 0.555643 0.198478 0.134700
H19   H     H_    0.104765 0.643364 0.309946 0.146166
H20   H     H_    0.804865 0.724160 0.664811 0.126845
H21   H     H_    0.892610 0.479143 0.678686 0.172703
H22   H     H_    0.550852 0.603370 0.840466 0.223601
N10   N     N_R   0.434042 0.817261 0.832724 0.051547
O45   O     O_R   0.371225 0.817226 0.892332 -0.305541
O46   O     O_R   0.386972 0.934171 0.797398 -0.245314

loop_
_geom_bond_atom_site_label_1
_geom_bond_atom_site_label_2
_geom_bond_distance
_ccdc_geom_bond_type
C20   C37   1.467193 S    
N4    O33   1.300012 A    
C9    C11   1.583741 S    
C15   C18   1.343766 D    
O23   C39   1.280723 A    
O20   C40   1.271732 A    
C16   C17   1.343673 D    
C21   C22   1.497272 S    
N6    O38   1.299169 A    
N3    O31   1.302066 A    
O4    Cr2   1.968539 S    
O16   Cr5   2.044036 S    
N2    O29   1.300959 A    
O8    Cr1   1.942325 S    
H2    C9    1.112885 S    
C28   H8    1.085242 S    
C15   H6    1.084423 S    
C7    C11   1.568348 S    
C17   C18   1.473800 S    
O22   Cr5   2.094230 S    
C12   C13   1.555912 S    
C10   N10   1.474482 S    
C33   H9    1.087017 S    
O21   Cr4   1.949076 S    
C5    O11   1.260377 A    
O14   Cr4   2.065585 S    
C25   N5    1.441684 S    
C32   C33   1.328222 D    
C32   H18   1.087386 S    
C9    N2    1.477848 S    
N8    O41   1.301884 A    
C22   N4    1.439779 S    
C1    C19   1.477174 S    
C25   C26   1.477374 S    
C30   N7    1.443420 S    
O6    C3    1.273945 A    
C7    H1    1.114724 S    
O21   C38   1.273683 A    
O24   Cr6   2.041209 S    
O7    Cr1   2.081611 S    
N4    O34   1.301310 A    
Cr3   O13   1.981427 S    
C34   H17   1.086921 S    
N7    O40   1.303201 A    
O20   Cr4   2.068729 S    
C8    H20   1.116537 S    
N6    O37   1.300238 A    
O6    Cr3   1.924241 S    
N2    O30   1.301045 A    
O1    Cr1   2.059164 S    
C21   N3    1.445536 S    
C39   O24   1.268158 A    
C9    C13   1.513612 S    
C29   C30   1.448114 S    
O10   Cr2   1.929686 S    
C10   C14   1.563103 S    
Cr1   O13   1.984288 S    
O1    C3    1.273439 A    
O25   C40   1.270875 A    
Cr5   O26   1.983448 S    
C10   H22   1.099803 S    
C28   C29   1.339988 D    
O5    Cr3   2.100150 S    
O12   Cr3   1.977540 S    
C32   C40   1.435907 S    
O19   C37   1.275524 A    
C29   H7    1.086884 S    
C28   C38   1.438540 S    
C35   O16   1.266964 A    
C23   N6    1.421265 S    
C8    N9    1.468638 S    
N3    O32   1.299732 A    
N5    O35   1.301187 A    
O15   Cr4   1.946732 S    
N7    O39   1.301725 A    
C27   C30   1.361054 D    
C26   H15   1.087602 S    
O12   C6    1.283258 A    
O23   Cr5   1.924170 S    
C11   C36   1.459685 S    
C16   H11   1.083959 S    
C7    H13   1.108857 S    
Cr2   O13   1.986582 S    
N1    O27   1.292361 A    
N1    O28   1.299840 A    
C3    C15   1.464837 S    
O17   Cr5   1.976507 S    
C20   H12   1.083147 S    
C20   C21   1.353138 D    
C5    C23   1.454610 S    
N10   O46   1.299422 A    
C1    O3    1.286892 A    
C24   C39   1.465301 S    
O18   Cr6   2.097002 S    
N9    O43   1.301213 A    
C23   C26   1.355390 D    
C8    C12   1.552838 S    
C24   C25   1.348895 D    
C10   C11   1.549155 S    
C13   H10   1.111366 S    
O9    Cr2   2.085280 S    
C2    C12   1.476898 S    
O2    Cr1   1.958709 S    
O10   C5    1.277624 A    
O19   Cr6   1.925137 S    
O25   Cr6   1.973058 S    
Cr6   O26   1.986042 S    
O8    C4    1.271516 A    
O11   Cr3   2.041049 S    
C2    O5    1.257243 A    
C14   N1    1.477775 S    
C24   H16   1.081096 S    
O17   C36   1.267861 A    
C17   H4    1.086395 S    
O2    C1    1.276192 A    
C38   O22   1.263330 A    
C18   H5    1.085395 S    
C14   H3    1.109987 S    
C12   C14   1.591946 S    
Cr4   O26   1.989003 S    
C33   C34   1.441154 S    
O4    C2    1.274525 A    
O7    C6    1.264059 A    
C19   C22   1.366893 D    
C16   C35   1.454264 S    
C7    C8    1.543253 S    
O15   C35   1.279943 A    
N8    O42   1.301013 A    
C13   H21   1.113640 S    
C4    C31   1.430971 S    
O3    Cr2   2.050838 S    
C4    O9    1.261085 A    
O14   C37   1.274724 A    
C36   O18   1.259396 A    
C31   C34   1.345049 D    
C19   H14   1.082951 S    
N10   O45   1.301542 A    
N5    O36   1.302043 A    
C6    C27   1.464010 S    
C27   N8    1.448112 S    
N9    O44   1.299281 A    
C31   H19   1.085559 S    
