data_mof_unit_35378.cif
_audit_creation_date              2013-03-05T16:00:38-0500
_audit_creation_method            fapswitch 2.2
_symmetry_space_group_name_H-M    P1
_symmetry_Int_Tables_number       1
_space_group_crystal_system       triclinic
_cell_length_a                    8.350793
_cell_length_b                    12.725519
_cell_length_c                    19.144936
_cell_angle_alpha                 100.083923
_cell_angle_beta                  91.771744
_cell_angle_gamma                 98.476552
_cell_volume                      1977.82382202

loop_
_atom_site_label
_atom_site_type_symbol
_atom_site_description
_atom_site_fract_x
_atom_site_fract_y
_atom_site_fract_z
_atom_type_partial_charge
P1    P     P_3+3 0.042930 0.392230 0.337410 0.464864
O1    O     O_2   0.875110 0.423180 0.326290 -0.354534
O2    O     O_3   0.123410 0.433040 0.414950 -0.416475
O3    O     O_3   0.661010 0.625070 0.369680 -0.352577
O4    O     O_2   0.695859 0.507816 0.247806 -0.411441
O5    O     O_3   0.011164 0.251243 0.316180 -0.556014
O6    O     O_3   0.733159 0.715934 0.245334 -0.505417
C1    C     C_3   0.716598 0.890473 0.214831 -0.986020
H1    H     H_    0.694635 0.973216 0.239870 0.234946
H2    H     H_    0.849227 0.893031 0.208227 0.282640
P2    P     P_3+3 0.672230 0.754900 0.555730 0.479813
P3    P     P_3+3 0.129648 0.822713 0.408111 0.441985
O7    O     O_2   0.847800 0.768730 0.534310 -0.389578
O8    O     O_3   0.082250 0.684470 0.405440 -0.373727
O9    O     O_2   0.012223 0.878113 0.457442 -0.393777
O10   O     O_3   0.687227 0.813213 0.647072 -0.622220
O11   O     O_3   0.080222 0.849355 0.324238 -0.531186
C2    C     C_3   0.159324 0.784013 0.274071 0.509055
H3    H     H_    0.099296 0.698192 0.267062 0.115678
H4    H     H_    0.288895 0.790116 0.291336 -0.006094
C3    C     C_3   0.151545 0.821820 0.202910 -1.003817
H5    H     H_    0.036260 0.783222 0.172071 0.263248
H6    H     H_    0.160647 0.911346 0.211345 0.276615
C4    C     C_3   0.252122 0.785503 0.617727 0.392365
H7    H     H_    0.385715 0.795870 0.623483 0.115839
H8    H     H_    0.208834 0.732341 0.566256 0.125351
C5    C     C_3   0.200853 0.894118 0.615708 -0.977048
H9    H     H_    0.241210 0.950746 0.665863 0.254913
H10   H     H_    0.251275 0.928214 0.570353 0.254532
H11   H     H_    0.067575 0.883879 0.609863 0.268871
Ba1   Ba    Ba6+2 0.853180 0.547790 0.465300 1.578238
C6    C     C_3   0.964814 0.206248 0.375359 0.364878
H12   H     H_    0.832407 0.203961 0.379339 0.081802
H13   H     H_    0.031107 0.250056 0.425730 0.131447
C7    C     C_3   0.003458 0.091886 0.363564 -0.900767
H14   H     H_    0.939203 0.044307 0.313944 0.257837
H15   H     H_    0.965950 0.052644 0.408967 0.228684
H16   H     H_    0.135929 0.093953 0.358275 0.273481
C8    C     C_3   0.771988 0.758460 0.689645 0.703007
H17   H     H_    0.878198 0.730175 0.663307 0.023503
C9    C     C_3   0.830332 0.834422 0.761203 -0.635159
H18   H     H_    0.870045 0.786114 0.799869 0.174115
H19   H     H_    0.727586 0.872987 0.783853 0.260596
P4    P     P_3+3 0.146790 0.607860 0.662600 0.497749
O12   O     O_2   0.314600 0.576860 0.673750 -0.260723
O13   O     O_3   0.066300 0.567050 0.585060 -0.409726
O14   O     O_3   0.528700 0.375020 0.630330 -0.322248
O15   O     O_3   0.188510 0.748602 0.677653 -0.577048
P5    P     P_3+3 0.064388 0.175061 0.589808 0.488074
O16   O     O_3   0.611760 0.365720 0.463870 -0.388149
O17   O     O_3   0.107460 0.315620 0.594570 -0.408558
O18   O     O_2   0.199229 0.123901 0.549502 -0.410699
O19   O     O_3   0.087882 0.149928 0.676804 -0.512243
Ba2   Ba    Ba6+2 0.336650 0.452300 0.534710 1.601179
P6    P     P_3+3 0.622108 0.609101 0.278526 0.443813
C10   C     C_3   0.654495 0.807622 0.261002 0.546385
H20   H     H_    0.523121 0.786867 0.247427 0.017296
H21   H     H_    0.650150 0.868987 0.161022 0.246324
O20   O     O_3   0.577950 0.634370 0.536140 -0.346014
C11   C     C_3   0.461716 0.284925 0.318369 0.405641
H22   H     H_    0.350454 0.312549 0.340179 0.093679
H23   H     H_    0.565746 0.351806 0.331005 0.142600
C12   C     C_3   0.436237 0.254247 0.237905 -0.921107
H24   H     H_    0.328948 0.190110 0.223314 0.266068
H25   H     H_    0.415773 0.325864 0.215095 0.228446
H26   H     H_    0.545457 0.224311 0.215062 0.265042
P7    P     P_3+3 0.518411 0.229905 0.438522 0.416623
O21   O     O_2   0.341900 0.231310 0.465740 -0.370972
O22   O     O_3   0.493384 0.194435 0.345858 -0.581726
H27   H     H_    0.253854 0.798568 0.170873 0.222641
C13   C     C_3   0.117385 0.249902 0.724470 0.531085
H28   H     H_    0.236205 0.294372 0.715927 0.133598
H29   H     H_    0.027830 0.302713 0.716373 0.104316
C14   C     C_3   0.110368 0.233911 0.801608 -0.830877
H30   H     H_    0.169166 0.309049 0.837496 0.245867
H31   H     H_    0.982822 0.216186 0.815847 0.257241
H32   H     H_    0.171798 0.166160 0.811009 0.268281
P8    P     P_3+3 0.569145 0.379952 0.721886 0.521805
C15   C     C_3   0.532500 0.163547 0.716809 0.786061
O23   O     O_2   0.467190 0.463756 0.757896 -0.376061
O24   O     O_3   0.491511 0.261728 0.754331 -0.566827
H33   H     H_    0.557180 0.096672 0.814397 0.269454
C16   C     C_3   0.483730 0.076486 0.762388 -0.851587
H34   H     H_    0.505601 0.995547 0.734193 0.231174
H35   H     H_    0.352983 0.069660 0.773188 0.223725
C17   C     C_R   0.060363 0.571293 0.803577 -0.324441
H36   H     H_    0.148448 0.641567 0.824809 0.155634
C18   C     C_R   0.021878 0.549077 0.729002 0.210572
C19   C     C_R   0.855883 0.421716 0.814587 -0.380448
H37   H     H_    0.804553 0.354259 0.838164 0.180562
C20   C     C_R   0.784480 0.431277 0.749382 0.358417
C21   C     C_R   0.334305 0.589511 0.191587 -0.377928
H38   H     H_    0.392603 0.652750 0.166205 0.136814
C22   C     C_R   0.403162 0.578377 0.256850 0.212747
C23   C     C_R   0.124573 0.441623 0.200202 -0.284964
H39   H     H_    0.029095 0.376158 0.178167 0.158525
C24   C     C_R   0.166700 0.457309 0.273985 0.303425
C25   C     C_R   0.987716 0.499738 0.848317 0.080500
C26   C     C_R   0.880152 0.480862 0.703294 -0.334243
H40   H     H_    0.841246 0.468962 0.647695 0.187887
C27   C     C_R   0.201399 0.513954 0.157236 0.124830
C28   C     C_R   0.311661 0.521136 0.300452 -0.422060
H41   H     H_    0.358644 0.520860 0.353736 0.153666
C29   C     C_R   0.762507 0.439919 0.962009 -0.326316
C30   C     C_R   0.660756 0.390468 0.007497 0.408683
C31   C     C_R   0.709347 0.409475 0.079113 -0.229855
C32   C     C_R   0.860562 0.468390 0.101675 -0.210111
C33   C     C_R   0.981608 0.484677 0.053338 0.071369
C34   C     C_R   0.930411 0.476097 0.979808 0.070194
C35   C     C_R   0.147547 0.511329 0.078163 -0.029206
C36   C     C_R   0.261137 0.536399 0.026606 0.138203
C37   C     C_R   0.211116 0.536612 0.953758 0.032116
C38   C     C_R   0.043562 0.505220 0.927900 -0.024300
C39   C     C_R   0.428925 0.559696 0.045567 -0.143353
C40   C     C_R   0.537550 0.610902 0.004941 -0.225488
C41   C     C_R   0.492574 0.612472 0.935178 0.115198
C42   C     C_R   0.336043 0.564504 0.908389 -0.111176
H42   H     H_    0.702276 0.454957 0.915643 0.170233
H43   H     H_    0.626309 0.386011 0.117941 0.188548
H44   H     H_    0.882517 0.499633 0.157333 0.203000
H45   H     H_    0.481829 0.535944 0.090894 0.153422
H46   H     H_    0.662068 0.637844 0.025319 0.145414
H47   H     H_    0.318427 0.547462 0.851986 0.179229
C43   C     C_R   0.773745 0.177315 0.513815 -0.451539
C44   C     C_R   0.432380 0.805396 0.468127 -0.495449
C45   C     C_R   0.403302 0.981693 0.443928 -0.203260
C46   C     C_R   0.340697 0.873455 0.440667 0.194039
C47   C     C_R   0.581666 0.846337 0.505252 0.297106
C48   C     C_R   0.646751 0.958141 0.509929 -0.088491
C49   C     C_R   0.556879 0.025546 0.477200 -0.071810
C50   C     C_R   0.621420 0.135814 0.480306 0.211839
C51   C     C_R   0.864195 0.112762 0.545076 0.349923
C52   C     C_R   0.797811 0.005324 0.546083 -0.145954
H48   H     H_    0.329390 0.030686 0.420912 0.182867
H49   H     H_    0.865348 0.960476 0.575417 0.172389
H50   H     H_    0.822890 0.261478 0.515883 0.165283
H51   H     H_    0.381249 0.721436 0.465257 0.162220
N1    N     N_3   0.679160 0.854442 0.336757 -0.189278
H52   H     H_    0.619380 0.922721 0.346112 0.061126
H53   H     H_    0.803403 0.881750 0.348463 0.205057
N2    N     N_R   0.660715 0.667458 0.704355 0.194537
O25   O     O_R   0.629431 0.581705 0.655619 -0.359845
O26   O     O_R   0.560539 0.682121 0.754772 -0.412089
N3    N     N_3   0.963393 0.919898 0.754856 -0.165258
H54   H     H_    0.071592 0.887528 0.752686 0.178691
H55   H     H_    0.945121 0.948943 0.707741 0.226944
N4    N     N_R   0.706065 0.170709 0.705611 0.184997
O27   O     O_R   0.768354 0.231522 0.662662 -0.534598
O28   O     O_R   0.787137 0.097736 0.722343 -0.444681
N5    N     N_3   0.440055 0.131741 0.648368 -0.168505
H56   H     H_    0.484535 0.182554 0.613694 0.170820
H57   H     H_    0.462873 0.054766 0.624474 0.076819
N6    N     N_R   0.501608 0.333535 0.982516 0.233003
O29   O     O_R   0.403175 0.294068 0.026203 -0.414200
O30   O     O_R   0.456838 0.315926 0.915230 -0.395094
N7    N     N_3   0.608844 0.654667 0.889611 -0.164501
H58   H     H_    0.714233 0.696024 0.919243 0.097712
H59   H     H_    0.644217 0.589097 0.856132 0.161827

loop_
_geom_bond_atom_site_label_1
_geom_bond_atom_site_label_2
_geom_bond_distance
_ccdc_geom_bond_type
C30   N6    1.440632 S    
C12   H25   1.109584 S    
C45   C46   1.389243 A    
C31   H43   1.082199 S    
C5    H10   1.104638 S    
C2    C3    1.524793 S    
C9    H18   1.113622 S    
O5    C6    1.396516 S    
C23   H39   1.080755 S    
C4    C5    1.512402 S    
O6    P6    1.754809 S    
O8    Ba1   2.801880 S    
C47   C48   1.432515 A    
C1    C10   1.534747 S    
C39   C40   1.378134 A    
C8    C9    1.550738 S    
P3    C46   1.834999 S    
C41   C42   1.399286 A    
O16   Ba2   2.957513 S    
C14   H31   1.108295 S    
C11   C12   1.521634 S    
N7    H58   1.049474 S    
N4    O28   1.303600 A    
C4    H8    1.109860 S    
C2    H3    1.115857 S    
N2    O26   1.303529 A    
C37   C42   1.422526 A    
O2    Ba2   2.812481 S    
C17   C18   1.423069 A    
Ba2   O21   2.897167 S    
C31   C32   1.384562 A    
C45   C49   1.405692 A    
C40   C41   1.380530 A    
P1    Ba1   3.448455 S    
C33   C34   1.439311 A    
C43   C51   1.389474 A    
C11   H23   1.111087 S    
P1    O1    1.529080 D    
Ba1   O20   2.958358 S    
O7    Ba1   2.897004 S    
C35   C36   1.433444 A    
C29   C30   1.398722 A    
N4    O27   1.294667 A    
C1    H21   1.124807 S    
C39   H45   1.071017 S    
C8    N2    1.448096 S    
C51   C52   1.401206 A    
P5    O17   1.757347 S    
C14   H32   1.103582 S    
P3    O11   1.747754 S    
C44   C47   1.398145 A    
C32   C33   1.408663 A    
N6    O30   1.301478 A    
O16   P7    1.765211 S    
C2    H4    1.109134 S    
C24   C28   1.382017 A    
C34   C38   1.449684 A    
O3    Ba1   2.794226 S    
C12   H26   1.112215 S    
P2    Ba1   3.459043 S    
C40   H46   1.083500 S    
C3    H5    1.113808 S    
C5    H11   1.101208 S    
C9    H19   1.112507 S    
O6    C10   1.413666 S    
P6    C22   1.831269 S    
P2    O20   1.592916 S    
C37   C38   1.444157 A    
P4    O13   1.578178 S    
C29   H42   1.066692 S    
Ba2   O20   2.833255 S    
P5    C51   1.854655 S    
C14   H30   1.112692 S    
C43   H50   1.082420 S    
P7    O21   1.580046 D    
C4    O15   1.404192 S    
C6    C7    1.516892 S    
C7    H16   1.110851 S    
C4    H7    1.103655 S    
C9    N3    1.459762 S    
N3    H55   1.048040 S    
P1    C24   1.845528 S    
C8    H17   1.108465 S    
C15   O24   1.421690 S    
C17   H36   1.079964 S    
C1    H1    1.121487 S    
C25   C38   1.566191 S    
C15   N4    1.463610 S    
C44   H51   1.081847 S    
C27   C35   1.559119 S    
Ba1   O13   2.811885 S    
P1    O5    1.747045 S    
C43   C50   1.393342 A    
C11   H22   1.109091 S    
P1    O2    1.578152 S    
C7    H14   1.108265 S    
C6    H13   1.111299 S    
C44   C46   1.393816 A    
C10   N1    1.464095 S    
P2    O10   1.768922 S    
C26   H40   1.081287 S    
P3    O9    1.542222 D    
P5    O18   1.543102 D    
O13   Ba2   2.961758 S    
C21   C22   1.397651 A    
O11   C2    1.404179 S    
O2    Ba1   2.960913 S    
C45   H48   1.075469 S    
N1    H53   1.048569 S    
C21   C27   1.416915 A    
O14   Ba2   2.793617 S    
C48   C52   1.417068 A    
C16   H35   1.111176 S    
P3    O8    1.736691 S    
O12   Ba2   2.875936 S    
C15   N5    1.461610 S    
O3    P6    1.735980 S    
N5    H57   1.052890 S    
C16   H34   1.119141 S    
C19   C20   1.399026 A    
C10   H20   1.101723 S    
Ba1   O16   2.833848 S    
O19   C13   1.413913 S    
C32   H44   1.070135 S    
P4    O12   1.529356 D    
C13   H29   1.101115 S    
C48   C49   1.428480 A    
P7    O22   1.750289 S    
C36   C37   1.444044 A    
C7    H15   1.107150 S    
O4    P6    1.541901 D    
P7    C50   1.846629 S    
N3    H54   1.045878 S    
C13   C14   1.527369 S    
C23   C24   1.417310 A    
P8    C20   1.847187 S    
C30   C31   1.386914 A    
C3    H27   1.112236 S    
C19   C25   1.422710 A    
O17   Ba2   2.802487 S    
C6    H12   1.107133 S    
C3    H6    1.113133 S    
C49   C50   1.417349 A    
C42   H47   1.064654 S    
C13   H28   1.099294 S    
P4    O15   1.743920 S    
P4    C18   1.857075 S    
N2    O25   1.293815 A    
C15   C16   1.543457 S    
P2    O7    1.528109 D    
P8    O24   1.770352 S    
C29   C34   1.421007 A    
C11   O22   1.402257 S    
P5    O19   1.760578 S    
N7    H59   1.044707 S    
C21   H38   1.075565 S    
C33   C35   1.423174 A    
P2    C47   1.862211 S    
C36   C39   1.411142 A    
P8    O23   1.544016 D    
Ba1   Ba2   4.606818 S    
C28   H41   1.082371 S    
C17   C25   1.439886 A    
C41   N7    1.433460 S    
C18   C26   1.381310 A    
N1    H52   1.056022 S    
O10   C8    1.399766 S    
C12   H24   1.111754 S    
P4    Ba2   3.448973 S    
C22   C28   1.378231 A    
C1    H2    1.114992 S    
H33   C16   1.122428 S    
C5    H9    1.104969 S    
C52   H49   1.070862 S    
N5    H56   1.044754 S    
O1    Ba1   2.875539 S    
O14   P8    1.763259 S    
C20   C26   1.380184 A    
N6    O29   1.302068 A    
C19   H37   1.078667 S    
C23   C27   1.434974 A    
