data_mof_unit_21717.cif
_audit_creation_date              2013-03-05T16:48:41-0500
_audit_creation_method            fapswitch 2.2
_symmetry_space_group_name_H-M    P1
_symmetry_Int_Tables_number       1
_space_group_crystal_system       triclinic
_cell_length_a                    27.754839
_cell_length_b                    8.946212
_cell_length_c                    8.103657
_cell_angle_alpha                 90.002645
_cell_angle_beta                  89.998347
_cell_angle_gamma                 89.999293
_cell_volume                      2012.14348956

loop_
_atom_site_label
_atom_site_type_symbol
_atom_site_description
_atom_site_fract_x
_atom_site_fract_y
_atom_site_fract_z
_atom_type_partial_charge
O1    O     O_R   0.500000 0.285350 0.636850 -0.613677
O2    O     O_R   0.500000 0.714650 0.363150 -0.613672
O3    O     O_R   0.500000 0.714650 0.636850 -0.613671
O4    O     O_R   0.500000 0.285350 0.363150 -0.613673
C1    C     C_R   0.500000 0.217963 0.499997 0.941578
C2    C     C_R   0.500000 0.782036 0.500002 0.941589
O5    O     O_R   0.428760 0.500000 0.636860 -0.620271
O6    O     O_R   0.571240 0.500000 0.363140 -0.620272
O7    O     O_R   0.571240 0.500000 0.636860 -0.620267
O8    O     O_R   0.428760 0.500000 0.363140 -0.620254
C3    C     C_R   0.405789 0.499994 0.500003 0.923058
C4    C     C_R   0.594211 0.499997 0.499997 0.923046
Zn1   Zn    Zn3+2 0.500000 0.500000 0.682780 1.019878
Zn2   Zn    Zn3+2 0.500000 0.500000 0.317220 1.019885
C5    C     C_R   0.177357 0.367328 0.480782 0.638170
C6    C     C_R   0.822649 0.632305 0.480691 0.638085
C7    C     C_R   0.177361 0.632175 0.519207 0.637725
C8    C     C_R   0.822639 0.367463 0.519142 0.638044
O9    O     O_2   0.202413 0.239213 0.461192 -0.498398
O10   O     O_2   0.797596 0.760420 0.461086 -0.498565
O11   O     O_2   0.202420 0.760276 0.538831 -0.498449
O12   O     O_2   0.797576 0.239370 0.538763 -0.498553
N1    N     N_R   0.201229 0.499744 0.500017 -0.329395
N2    N     N_R   0.798774 0.499896 0.499933 -0.329317
C9    C     C_R   0.277823 0.542825 0.355740 0.333159
C10   C     C_R   0.722169 0.457056 0.355602 0.333049
C11   C     C_R   0.277836 0.456777 0.644334 0.332998
C12   C     C_R   0.722178 0.542806 0.644335 0.333021
C13   C     C_R   0.328097 0.542259 0.358032 -0.241471
C14   C     C_R   0.671893 0.457763 0.357933 -0.241487
C15   C     C_R   0.328112 0.457534 0.642011 -0.241677
C16   C     C_R   0.671901 0.542152 0.642029 -0.241508
C17   C     C_R   0.252622 0.499743 0.500026 0.061246
C18   C     C_R   0.747382 0.499920 0.499958 0.061142
C19   C     C_R   0.101529 0.499776 0.499940 -0.044276
C20   C     C_R   0.898474 0.499850 0.499887 -0.044251
C21   C     C_R   0.127002 0.364659 0.481435 -0.024151
C22   C     C_R   0.873003 0.634967 0.481360 -0.024089
C23   C     C_R   0.127007 0.634876 0.518479 -0.024120
C24   C     C_R   0.872993 0.364755 0.518428 -0.024097
C25   C     C_R   0.101794 0.230684 0.462310 -0.106470
C26   C     C_R   0.898214 0.768938 0.462233 -0.106525
C27   C     C_R   0.101805 0.768869 0.537566 -0.106461
C28   C     C_R   0.898193 0.230762 0.537528 -0.106510
C29   C     C_R   0.353209 0.499935 0.500015 -0.156787
C30   C     C_R   0.646793 0.499974 0.499987 -0.156956
H1    H     H_    0.347801 0.425088 0.751735 0.208459
H2    H     H_    0.652218 0.574515 0.751802 0.208541
H3    H     H_    0.347767 0.574786 0.248293 0.208375
H4    H     H_    0.652206 0.425414 0.248169 0.208526
H5    H     H_    0.120611 0.126184 0.442723 0.189883
H6    H     H_    0.879398 0.873436 0.442628 0.189877
H7    H     H_    0.120627 0.873356 0.557175 0.189916
H8    H     H_    0.879370 0.126278 0.557132 0.189904
C31   C     C_R   0.974621 0.362220 0.507307 0.050544
C32   C     C_R   0.025381 0.637403 0.507314 0.050545
C33   C     C_R   0.974630 0.637420 0.492453 0.050550
C34   C     C_R   0.025373 0.362201 0.492477 0.050543
C35   C     C_R   0.949403 0.499830 0.499880 0.080733
C36   C     C_R   0.050600 0.499793 0.499908 0.080743
C37   C     C_R   0.948161 0.229252 0.531779 -0.204820
C38   C     C_R   0.051839 0.770374 0.531798 -0.204843
C39   C     C_R   0.948181 0.770406 0.467966 -0.204819
C40   C     C_R   0.051826 0.229213 0.468018 -0.204813
H9    H     H_    0.965347 0.123005 0.552819 0.133155
H10   H     H_    0.034651 0.876622 0.552832 0.133154
H11   H     H_    0.965376 0.876637 0.446911 0.133149
H12   H     H_    0.034633 0.122977 0.446966 0.133140
C41   C     C_1   0.500000 0.065161 0.499997 -0.162233
C42   C     C_1   0.500000 0.934839 0.500003 -0.162235
N3    N     N_1   0.500000 0.500000 0.073640 -0.024019
N4    N     N_1   0.500000 0.500000 0.926360 -0.024020
N5    N     N_R   0.253136 0.411905 0.793043 0.251556
O13   O     O_R   0.275119 0.330178 0.902605 -0.326530
O14   O     O_R   0.209887 0.459448 0.825766 -0.323701
N6    N     N_R   0.746886 0.587523 0.793092 0.251738
O15   O     O_R   0.724882 0.668930 0.902905 -0.326547
O16   O     O_R   0.790158 0.540075 0.825647 -0.323807
N7    N     N_R   0.253101 0.587694 0.207099 0.251336
O17   O     O_R   0.274961 0.670256 0.098000 -0.326387
O18   O     O_R   0.209963 0.539385 0.173996 -0.323436
N8    N     N_R   0.746868 0.412300 0.206840 0.251719
O19   O     O_R   0.724875 0.330760 0.097153 -0.326550
O20   O     O_R   0.790124 0.459805 0.174179 -0.323726

loop_
_geom_bond_atom_site_label_1
_geom_bond_atom_site_label_2
_geom_bond_distance
_ccdc_geom_bond_type
C31   C35   1.417410 A    
N5    O14   1.300814 A    
Zn2   N3    1.973889 S    
C20   C35   1.413529 A    
C13   H3    1.083317 S    
C11   C17   1.416023 A    
C5    O9    1.349968 S    
C7    N1    1.366248 A    
O1    C1    1.262246 A    
C40   H12   1.077074 S    
C19   C21   1.408356 A    
N6    O16   1.300847 A    
C22   C26   1.396467 A    
C7    C23   1.397766 A    
C33   C35   1.417404 A    
C34   C36   1.417405 A    
C32   C33   1.413733 A    
N5    O13   1.302000 A    
O7    Zn1   2.011953 S    
C5    C21   1.397795 A    
C1    C41   1.367004 S    
C27   H7    1.082557 S    
N1    C17   1.426410 S    
C8    N2    1.366249 A    
C8    O12   1.349968 S    
C24   C28   1.396468 A    
O3    Zn1   1.956059 S    
C6    O10   1.349965 S    
O3    C2    1.262260 A    
C5    N1    1.366248 A    
C14   H4    1.083290 S    
C12   C18   1.416091 A    
C6    N2    1.366246 A    
C15   H1    1.083303 S    
C21   C25   1.396467 A    
C16   H2    1.083294 S    
O2    C2    1.262246 A    
C10   C18   1.416058 A    
C33   C39   1.411995 A    
C9    C13   1.395463 A    
C39   H11   1.077075 S    
C38   H10   1.077072 S    
C11   C15   1.395551 A    
C12   C16   1.395557 A    
N6    O15   1.301985 A    
C4    C30   1.459386 S    
O8    Zn2   2.011956 S    
N7    O18   1.300871 A    
C23   C27   1.396465 A    
C34   C40   1.412000 A    
C7    O11   1.349970 S    
C32   C36   1.417407 A    
C13   C29   1.397527 A    
C19   C36   1.413529 A    
C19   C23   1.408345 A    
C28   H8    1.082560 S    
O5    C3    1.279253 A    
C20   C24   1.408353 A    
O6    C4    1.279263 A    
C10   C14   1.395527 A    
N8    O20   1.300761 A    
C32   C38   1.411993 A    
C3    C29   1.459347 S    
O1    Zn1   1.956026 S    
C12   N6    1.443438 S    
C2    C42   1.367004 S    
O6    Zn2   2.011975 S    
C9    N7    1.443243 S    
C16   C30   1.397492 A    
C14   C30   1.397498 A    
O4    C1    1.262260 A    
Zn1   N4    1.973889 S    
C28   C37   1.387684 A    
C20   C22   1.408355 A    
N3    N4    1.193506 T    
C31   C37   1.411999 A    
O4    Zn2   1.956060 S    
C41   C42   1.165886 T    
O2    Zn2   1.956025 S    
O7    C4    1.279270 A    
N2    C18   1.426391 S    
C9    C17   1.415947 A    
O8    C3    1.279264 A    
N7    O17   1.302059 A    
C37   H9    1.077073 S    
O5    Zn1   2.011977 S    
C8    C24   1.397780 A    
C10   N8    1.443414 S    
N8    O19   1.301849 A    
C15   C29   1.397559 A    
C31   C34   1.413749 A    
C6    C22   1.397775 A    
C25   C40   1.387686 A    
C11   N5    1.443379 S    
C26   C39   1.387673 A    
C25   H5    1.082558 S    
C27   C38   1.387666 A    
C26   H6    1.082558 S    
