data_mof_unit_30678.cif
_audit_creation_date              2012-12-10T16:33:54-0500
_audit_creation_method            fapswitch 2.2
_symmetry_space_group_name_H-M    P1
_symmetry_Int_Tables_number       1
_space_group_crystal_system       triclinic
_cell_length_a                    28.158702
_cell_length_b                    18.532821
_cell_length_c                    17.026584
_cell_angle_alpha                 89.719477
_cell_angle_beta                  60.755714
_cell_angle_gamma                 90.001525
_cell_volume                      7752.87024166

loop_
_atom_site_label
_atom_site_type_symbol
_atom_type_description
_atom_site_fract_x
_atom_site_fract_y
_atom_site_fract_z
_atom_type_partial_charge
C1    C     C_R   0.701606 0.268730 0.676287 0.954958
C2    C     C_R   0.298695 0.732497 0.323749 0.939054
C3    C     C_R   0.298315 0.269894 0.323918 0.910371
C4    C     C_R   0.701372 0.732299 0.676108 0.946411
C5    C     C_R   0.200953 0.767137 0.676556 0.912621
C6    C     C_R   0.798620 0.232363 0.323800 0.941272
C7    C     C_R   0.798892 0.767812 0.323561 0.910042
C8    C     C_R   0.199784 0.235783 0.676492 0.931754
C9    C     C_R   0.019396 0.369380 0.603428 -0.199728
C10   C     C_R   0.919004 0.628915 0.589695 -0.216390
C11   C     C_R   0.919131 0.370218 0.589502 -0.212266
C12   C     C_R   0.019353 0.629777 0.603410 -0.203018
C13   C     C_R   0.580977 0.871112 0.410350 -0.211328
C14   C     C_R   0.480637 0.130648 0.396439 -0.201178
C15   C     C_R   0.480617 0.870249 0.396721 -0.197133
C16   C     C_R   0.580893 0.129810 0.410440 -0.216857
C17   C     C_R   0.719747 0.263392 0.953917 0.110897
C18   C     C_R   0.276077 0.732286 0.050025 0.179719
C19   C     C_R   0.282125 0.268325 0.043243 0.163838
C20   C     C_R   0.724931 0.731583 0.949058 0.177122
C21   C     C_R   0.221146 0.762927 0.951889 0.108353
C22   C     C_R   0.775352 0.231967 0.050796 0.180697
C23   C     C_R   0.781126 0.763495 0.045021 0.173434
C24   C     C_R   0.223947 0.233766 0.949306 0.136679
C25   C     C_R   0.729886 0.191715 0.967760 -0.188104
C26   C     C_R   0.267389 0.803955 0.033321 -0.182535
C27   C     C_R   0.237180 0.221119 0.080770 -0.210269
C28   C     C_R   0.738978 0.803038 0.956155 -0.207412
C29   C     C_R   0.229771 0.691333 0.968629 -0.188258
C30   C     C_R   0.764920 0.303741 0.037288 -0.188498
C31   C     C_R   0.767627 0.692056 0.037220 -0.203351
C32   C     C_R   0.267564 0.283516 0.913674 -0.193107
C33   C     C_R   0.756939 0.176142 0.016372 -0.125539
C34   C     C_R   0.240380 0.819137 0.984419 -0.153869
C35   C     C_R   0.206937 0.207793 0.037298 -0.181506
C36   C     C_R   0.766778 0.818813 0.003580 -0.098838
C37   C     C_R   0.256579 0.676172 0.017748 -0.122495
C38   C     C_R   0.737497 0.319316 0.989125 -0.169285
C39   C     C_R   0.740487 0.676194 0.988863 -0.122350
C40   C     C_R   0.294220 0.302731 0.961520 -0.102954
C41   C     C_R   0.637629 0.317797 0.953113 0.389911
C42   C     C_R   0.353759 0.670790 0.055229 0.361010
C43   C     C_R   0.368694 0.309476 0.043598 0.351918
C44   C     C_R   0.645724 0.671478 0.945595 0.357528
C45   C     C_R   0.140552 0.821251 0.950366 0.361270
C46   C     C_R   0.853374 0.170410 0.055479 0.359457
C47   C     C_R   0.862308 0.817076 0.047016 0.346452
C48   C     C_R   0.157387 0.153334 0.926020 0.350626
C49   C     C_R   0.611041 0.339021 0.904117 -0.236845
C50   C     C_R   0.383488 0.653476 0.100636 -0.232621
C51   C     C_R   0.393453 0.334407 0.093616 -0.237194
C52   C     C_R   0.616016 0.654384 0.900022 -0.228648
C53   C     C_R   0.113419 0.841972 0.902021 -0.159956
C54   C     C_R   0.883222 0.153189 0.100774 -0.232575
C55   C     C_R   0.889559 0.838187 0.095235 -0.236390
C56   C     C_R   0.120320 0.147925 0.892494 -0.197759
C57   C     C_R   0.626734 0.310413 0.819563 0.311778
C58   C     C_R   0.369827 0.683886 0.183011 0.307976
C59   C     C_R   0.376091 0.308562 0.179520 0.351225
C60   C     C_R   0.629855 0.684906 0.817488 0.307024
C61   C     C_R   0.126629 0.810637 0.820227 0.304872
C62   C     C_R   0.869561 0.183543 0.183146 0.307181
C63   C     C_R   0.874701 0.808663 0.178853 0.338263
C64   C     C_R   0.128103 0.187729 0.818004 0.299660
C65   C     C_R   0.677747 0.279613 0.772883 -0.106831
C66   C     C_R   0.321541 0.721082 0.227832 -0.119765
C67   C     C_R   0.323311 0.281540 0.227281 -0.172780
C68   C     C_R   0.678718 0.720807 0.771896 -0.120680
C69   C     C_R   0.176470 0.776103 0.773682 -0.181920
C70   C     C_R   0.821264 0.220655 0.228038 -0.115669
C71   C     C_R   0.823537 0.777022 0.226438 -0.170112
C72   C     C_R   0.175294 0.226957 0.773291 -0.118612
C73   C     C_R   0.707593 0.262726 0.817636 -0.347127
C74   C     C_R   0.291705 0.739927 0.183493 -0.360820
C75   C     C_R   0.291988 0.272232 0.183693 -0.353263
C76   C     C_R   0.709182 0.738532 0.815460 -0.365532
C77   C     C_R   0.206399 0.758259 0.818096 -0.298812
C78   C     C_R   0.791254 0.239283 0.183951 -0.372694
C79   C     C_R   0.792967 0.761388 0.182505 -0.358463
C80   C     C_R   0.204422 0.246765 0.817895 -0.314339
C81   C     C_R   0.687177 0.279755 0.908555 -0.038690
C82   C     C_R   0.308211 0.715681 0.096236 0.010411
C83   C     C_R   0.314790 0.283061 0.090185 0.049758
C84   C     C_R   0.692329 0.714982 0.903401 0.015440
C85   C     C_R   0.188140 0.779199 0.907217 -0.043367
C86   C     C_R   0.807686 0.215145 0.096694 0.013414
C87   C     C_R   0.812729 0.780110 0.092044 0.030372
C88   C     C_R   0.194681 0.211859 0.898155 -0.020489
C89   C     C_R   0.697046 0.128310 0.514856 0.902568
C90   C     C_R   0.308789 0.870696 0.464764 0.897753
C91   C     C_R   0.308791 0.129457 0.464751 0.888281
C92   C     C_R   0.697058 0.871729 0.514821 0.914351
C93   C     C_R   0.191204 0.629315 0.535266 0.877980
C94   C     C_R   0.802965 0.371695 0.485115 0.904242
C95   C     C_R   0.802941 0.628274 0.485180 0.893815
C96   C     C_R   0.191225 0.370565 0.535174 0.888423
C97   C     C_R   0.076388 0.096533 0.931102 0.984259
C98   C     C_R   0.929046 0.896637 0.063029 0.927712
C99   C     C_R   0.926011 0.099871 0.065688 0.954778
C100  C     C_R   0.072690 0.898493 0.935420 0.962555
C101  C     C_R   0.573529 0.600465 0.934654 0.959422
C102  C     C_R   0.431518 0.394541 0.061067 0.905555
C103  C     C_R   0.426089 0.599941 0.065646 0.963198
C104  C     C_R   0.571419 0.397128 0.936609 0.904357
C105  C     C_R   0.572956 0.000381 0.427115 0.021998
C106  C     C_R   0.478387 0.000402 0.408875 0.018800
C107  C     C_R   0.021615 0.499632 0.591119 0.018214
C108  C     C_R   0.927047 0.499652 0.572877 0.021474
C109  C     C_R   0.552358 0.066424 0.414353 0.051802
C110  C     C_R   0.504443 0.934263 0.405934 0.045250
C111  C     C_R   0.504440 0.066597 0.405842 0.047499
C112  C     C_R   0.552385 0.934426 0.414361 0.051513
C113  C     C_R   0.995545 0.565771 0.594117 0.047922
C114  C     C_R   0.947657 0.433609 0.585603 0.051051
C115  C     C_R   0.947606 0.565607 0.585669 0.050983
C116  C     C_R   0.995577 0.433437 0.594097 0.044877
C117  C     C_R   0.636967 0.934744 0.461544 0.066669
C118  C     C_R   0.399284 0.066143 0.419529 0.066870
C119  C     C_R   0.399276 0.934475 0.419640 0.061685
C120  C     C_R   0.636935 0.065765 0.461588 0.067156
C121  C     C_R   0.100731 0.433883 0.580402 0.060925
C122  C     C_R   0.863026 0.565276 0.538469 0.065969
C123  C     C_R   0.863081 0.434255 0.538377 0.065835
C124  C     C_R   0.100714 0.565550 0.580413 0.067109
C125  C     C_R   0.673402 0.935895 0.498379 -0.113099
C126  C     C_R   0.343526 0.065152 0.440479 -0.126189
C127  C     C_R   0.343522 0.935240 0.440527 -0.123370
C128  C     C_R   0.673389 0.064292 0.498402 -0.113245
C129  C     C_R   0.156487 0.434869 0.559460 -0.121499
C130  C     C_R   0.826596 0.564116 0.501624 -0.112938
C131  C     C_R   0.826625 0.435720 0.501565 -0.111635
C132  C     C_R   0.156472 0.564778 0.559507 -0.124442
C133  C     C_R   0.688769 0.000002 0.519113 -0.307403
C134  C     C_R   0.317568 0.000153 0.448421 -0.286702
C135  C     C_R   0.182436 0.499863 0.551563 -0.291191
C136  C     C_R   0.811239 0.500009 0.480868 -0.310137
C137  C     C_R   0.614997 0.000292 0.451446 0.073587
C138  C     C_R   0.425735 0.000341 0.415617 0.081682
C139  C     C_R   0.074268 0.499688 0.584375 0.079891
C140  C     C_R   0.885007 0.499734 0.548543 0.072667
C141  C     C_R   0.069969 0.369975 0.599156 -0.169626
C142  C     C_R   0.876644 0.628224 0.569848 -0.185983
C143  C     C_R   0.876779 0.371029 0.569638 -0.181760
C144  C     C_R   0.069935 0.629271 0.599131 -0.188576
C145  C     C_R   0.623336 0.871796 0.430191 -0.179898
C146  C     C_R   0.430057 0.130048 0.400717 -0.185129
C147  C     C_R   0.430042 0.870749 0.400995 -0.168712
C148  C     C_R   0.623245 0.128993 0.430309 -0.183212
H1    H     H_    0.714950 0.999871 0.549332 0.194959
H2    H     H_    0.274987 0.000062 0.466163 0.200870
H3    H     H_    0.225018 0.499952 0.533813 0.200913
H4    H     H_    0.785060 0.500139 0.450646 0.194845
H5    H     H_    0.083662 0.319237 0.612069 0.192383
H6    H     H_    0.854772 0.678202 0.582445 0.187402
H7    H     H_    0.854984 0.320884 0.582136 0.186539
H8    H     H_    0.083625 0.679918 0.611997 0.175172
H9    H     H_    0.645197 0.821811 0.417605 0.186189
H10   H     H_    0.416358 0.180775 0.387781 0.175626
H11   H     H_    0.416356 0.820088 0.388170 0.191814
H12   H     H_    0.645048 0.179133 0.417808 0.185552
H13   H     H_    0.000384 0.317260 0.613040 0.148287
H14   H     H_    0.927836 0.680238 0.609162 0.143530
H15   H     H_    0.928022 0.318715 0.608860 0.144973
H16   H     H_    0.000329 0.681797 0.612975 0.144898
H17   H     H_    0.572143 0.819789 0.390891 0.144763
H18   H     H_    0.499668 0.182761 0.386766 0.144670
H19   H     H_    0.499619 0.818220 0.387227 0.148623
H20   H     H_    0.572002 0.181313 0.391077 0.141302
H21   H     H_    0.729750 0.375061 0.979703 0.154716
H22   H     H_    0.261966 0.620402 0.030875 0.125623
H23   H     H_    0.324188 0.345287 0.933376 0.191624
H24   H     H_    0.731863 0.620345 0.982243 0.127402
H25   H     H_    0.233909 0.874854 0.972649 0.168122
H26   H     H_    0.763342 0.120252 0.027406 0.126162
H27   H     H_    0.776878 0.874410 0.008439 0.151820
H28   H     H_    0.170236 0.176376 0.074040 0.195450
H29   H     H_    0.715791 0.147789 0.942606 0.145704
H30   H     H_    0.282241 0.848085 0.056937 0.148811
H31   H     H_    0.224598 0.193790 0.144104 0.142468
H32   H     H_    0.727594 0.846770 0.926313 0.145415
H33   H     H_    0.214601 0.647224 0.945508 0.144074
H34   H     H_    0.778742 0.347704 0.062815 0.145380
H35   H     H_    0.779113 0.648385 0.067005 0.142798
H36   H     H_    0.281800 0.309394 0.849266 0.132340
H37   H     H_    0.747270 0.237610 0.781603 0.198927
H38   H     H_    0.254334 0.770565 0.217917 0.197006
H39   H     H_    0.249707 0.257026 0.223521 0.189910
H40   H     H_    0.747188 0.768030 0.780042 0.195482
H41   H     H_    0.245014 0.730447 0.782632 0.201101
H42   H     H_    0.753814 0.269761 0.218564 0.193082
H43   H     H_    0.753200 0.736246 0.218838 0.196387
H44   H     H_    0.236727 0.285675 0.785518 0.182305
O1    O     O_R   0.746490 0.236330 0.638080 -0.669120
O2    O     O_R   0.253510 0.763670 0.361920 -0.641350
O3    O     O_R   0.253510 0.236330 0.361920 -0.632622
O4    O     O_R   0.746490 0.763670 0.638080 -0.658258
O5    O     O_R   0.246490 0.736330 0.638080 -0.632544
O6    O     O_R   0.753510 0.263670 0.361920 -0.661221
O7    O     O_R   0.753510 0.736330 0.361920 -0.648310
O8    O     O_R   0.246490 0.263670 0.638080 -0.640108
O9    O     O_R   0.674170 0.186160 0.516270 -0.640717
O10   O     O_R   0.325830 0.813840 0.483730 -0.634209
O11   O     O_R   0.325830 0.186160 0.483730 -0.636408
O12   O     O_R   0.674170 0.813840 0.516270 -0.637643
O13   O     O_R   0.174170 0.686160 0.516270 -0.639922
O14   O     O_R   0.825830 0.313840 0.483730 -0.640483
O15   O     O_R   0.825830 0.686160 0.483730 -0.649968
O16   O     O_R   0.174170 0.313840 0.516270 -0.638502
O17   O     O_R   0.739960 0.127620 0.525000 -0.630931
O18   O     O_R   0.260040 0.872380 0.475000 -0.625227
O19   O     O_R   0.260040 0.127620 0.475000 -0.626828
O20   O     O_R   0.739960 0.872380 0.525000 -0.625650
O21   O     O_R   0.239960 0.627620 0.525000 -0.630748
O22   O     O_R   0.760040 0.372380 0.475000 -0.629665
O23   O     O_R   0.760040 0.627620 0.475000 -0.629743
O24   O     O_R   0.239960 0.372380 0.525000 -0.628700
O25   O     O_R   0.680700 0.294870 0.629350 -0.551533
O26   O     O_R   0.319300 0.705130 0.370650 -0.605002
O27   O     O_R   0.319300 0.294870 0.370650 -0.604552
O28   O     O_R   0.680700 0.705130 0.629350 -0.598037
O29   O     O_R   0.180700 0.794870 0.629350 -0.600276
O30   O     O_R   0.819300 0.205130 0.370650 -0.597218
O31   O     O_R   0.819300 0.794870 0.370650 -0.596642
O32   O     O_R   0.180700 0.205130 0.629350 -0.607310
O33   O     O_R   0.062020 0.072840 0.007170 -0.563005
O34   O     O_R   0.937980 0.927160 0.992830 -0.627909
O35   O     O_R   0.937980 0.072840 0.992830 -0.595685
O36   O     O_R   0.062020 0.927160 0.007170 -0.559047
O37   O     O_R   0.562020 0.572840 0.007170 -0.601622
O38   O     O_R   0.437980 0.427160 0.992830 -0.632667
O39   O     O_R   0.437980 0.572840 0.992830 -0.593885
O40   O     O_R   0.562020 0.427160 0.007170 -0.555567
O41   O     O_R   0.947860 0.073950 0.109290 -0.610077
O42   O     O_R   0.052140 0.926050 0.890710 -0.587615
O43   O     O_R   0.052140 0.073950 0.890710 -0.623417
O44   O     O_R   0.947860 0.926050 0.109290 -0.561288
O45   O     O_R   0.447860 0.573950 0.109290 -0.601405
O46   O     O_R   0.552140 0.426050 0.890710 -0.623325
O47   O     O_R   0.552140 0.573950 0.890710 -0.598038
O48   O     O_R   0.447860 0.426050 0.109290 -0.554467
Zn1   Zn    Zn3+2 0.792340 0.208750 0.507670 0.960305
Zn2   Zn    Zn3+2 0.207660 0.791250 0.492330 0.970921
Zn3   Zn    Zn3+2 0.207660 0.208750 0.492330 0.964605
Zn4   Zn    Zn3+2 0.792340 0.791250 0.507670 0.962776
Zn5   Zn    Zn3+2 0.292340 0.708750 0.507670 0.969161
Zn6   Zn    Zn3+2 0.707660 0.291250 0.492330 0.979358
Zn7   Zn    Zn3+2 0.707660 0.708750 0.492330 0.963740
Zn8   Zn    Zn3+2 0.292340 0.291250 0.507670 0.970742
Zn9   Zn    Zn3+2 0.505960 0.500000 0.080520 1.056969
Zn10  Zn    Zn3+2 0.494040 0.500000 0.919480 1.013858
Zn11  Zn    Zn3+2 0.005960 0.000000 0.080520 1.075899
Zn12  Zn    Zn3+2 0.994040 0.000000 0.919480 1.025239
O49   O     O_3   0.614360 0.335254 0.043381 -0.746706
H45   H     H_    0.628171 0.302540 0.073717 0.335866
O50   O     O_3   0.369551 0.645901 0.969986 -0.724030
H46   H     H_    0.358263 0.594482 0.977630 0.328693
O51   O     O_3   0.397185 0.308186 0.950659 -0.775944
H47   H     H_    0.436728 0.309036 0.930328 0.337766
O52   O     O_3   0.628533 0.648316 0.032276 -0.731427
H48   H     H_    0.639192 0.596821 0.027369 0.330242
O53   O     O_3   0.119566 0.842541 0.038997 -0.736296
H49   H     H_    0.131276 0.808469 0.071118 0.338966
O54   O     O_3   0.869257 0.145741 0.970117 -0.729141
H50   H     H_    0.858599 0.094087 0.977390 0.330637
O55   O     O_3   0.883436 0.830837 0.956257 -0.755463
H51   H     H_    0.923376 0.823863 0.926927 0.349586
O56   O     O_3   0.159765 0.096970 0.977289 -0.760407
H52   H     H_    0.198390 0.090344 0.961359 0.333028
O57   O     O_3   0.594008 0.314592 0.780115 -0.721180
H53   H     H_    0.555629 0.309091 0.828247 0.330797
O58   O     O_3   0.403135 0.676066 0.220689 -0.720796
H54   H     H_    0.391835 0.630169 0.255434 0.349936
O59   O     O_3   0.410315 0.313668 0.215927 -0.726379
H55   H     H_    0.406986 0.268042 0.248912 0.329762
O60   O     O_3   0.596111 0.678393 0.780480 -0.707367
H56   H     H_    0.606895 0.632902 0.745509 0.350213
O61   O     O_3   0.091352 0.817068 0.785877 -0.736953
H57   H     H_    0.092564 0.771321 0.754973 0.330570
O62   O     O_3   0.902926 0.175801 0.220727 -0.715825
H58   H     H_    0.891634 0.129941 0.255557 0.348434
O63   O     O_3   0.909645 0.814505 0.213858 -0.724657
H59   H     H_    0.907145 0.769052 0.246646 0.340968
O64   O     O_3   0.092372 0.184389 0.784605 -0.727828
H60   H     H_    0.100373 0.138530 0.750653 0.353933

loop_
_geom_bond_atom_site_label_1
_geom_bond_atom_site_label_2
_ccdc_geom_bond_type
C89   O9    A    
C122  C140  A    
O23   Zn7   S    
C91   C126  S    
C70   C78   A    
C43   C83   A    
C69   C77   A    
C124  C139  A    
C100  O42   A    
O60   H56   S    
C42   C82   A    
O16   Zn3   S    
C13   C145  A    
C45   O53   S    
O20   Zn4   S    
C147  H11   S    
C92   C125  S    
C76   C84   A    
C49   C104  S    
C71   C79   A    
C8    O8    A    
C101  O37   A    
C65   C73   A    
O54   H50   S    
C6    O30   A    
C51   C102  S    
C104  O46   A    
C124  C132  A    
C29   H33   S    
O4    Zn4   S    
C35   H28   S    
C56   C97   S    
C108  C115  A    
C117  C145  A    
C96   C129  S    
C60   O60   S    
C18   C37   A    
C27   H31   S    
C12   C113  A    
C13   C112  A    
C109  C111  A    
C119  C127  A    
C7    C71   S    
O49   H45   S    
C99   O41   A    
C16   H20   S    
C25   H29   S    
C104  O40   A    
C101  O47   A    
C119  C147  A    
O58   H54   S    
C66   C74   A    
C41   O49   S    
C75   H39   S    
C91   O11   A    
C49   C57   A    
O15   Zn4   S    
C62   C70   A    
C99   O35   A    
C6    C70   S    
O51   H47   S    
C148  H12   S    
C73   C81   A    
C100  O36   A    
C11   C114  A    
C107  C113  A    
C47   O55   S    
C5    C69   S    
C52   C60   A    
C103  O39   A    
C59   C67   A    
C129  C135  A    
C53   C61   A    
C26   C34   A    
O11   Zn8   S    
C102  O48   A    
C4    O28   A    
C78   H42   S    
C123  C143  A    
C95   C130  S    
C1    C65   S    
C90   C127  S    
C48   C88   A    
C10   C142  A    
C57   O57   S    
C14   H18   S    
C5    O29   A    
C19   C27   A    
O55   H51   S    
O57   H53   S    
C76   H40   S    
O7    Zn7   S    
O24   Zn8   S    
O29   Zn2   S    
O36   Zn11  S    
C31   H35   S    
C78   C86   A    
C64   C72   A    
C77   C85   A    
C50   C103  S    
O33   Zn11  S    
C23   C87   S    
O61   H57   S    
O46   Zn10  S    
O47   Zn10  S    
C2    C66   S    
C30   H34   S    
C15   C110  A    
O45   Zn9   S    
C130  C136  A    
O43   Zn12  S    
C74   C82   A    
C19   C83   S    
O6    Zn6   S    
C41   C49   A    
C136  H4    S    
O30   Zn1   S    
C58   C66   A    
C16   C109  A    
C106  C111  A    
C26   H30   S    
C53   C100  S    
C95   O15   A    
C14   C111  A    
C21   C85   S    
C52   C101  S    
C94   O22   A    
C24   C35   A    
C8    C72   S    
C93   O21   A    
C50   C58   A    
O26   Zn5   S    
O19   Zn3   S    
C90   O18   A    
C133  H1    S    
O25   Zn6   S    
O18   Zn2   S    
O40   Zn9   S    
C91   O19   A    
C131  C136  A    
O42   Zn12  S    
C37   H22   S    
C6    O6    A    
C20   C39   A    
C9    C141  A    
C79   H43   S    
C5    O5    A    
C21   C34   A    
C54   C62   A    
C48   O56   S    
C27   C35   A    
O63   H59   S    
C21   C29   A    
C58   O58   S    
C3    O3    A    
C4    C68   S    
C12   C144  A    
C9    H13   S    
C55   C63   A    
C114  C116  A    
C2    O2    A    
C23   C31   A    
C11   H15   S    
C144  H8    S    
O34   Zn12  S    
C24   C32   A    
C39   H24   S    
C11   C143  A    
C121  C141  A    
O50   H46   S    
C12   H16   S    
C145  H9    S    
C108  C140  A    
C143  H7    S    
C90   O10   A    
C118  C146  A    
O31   Zn4   S    
C103  O45   A    
C41   C81   A    
C18   C26   A    
C46   C54   A    
C56   C64   A    
O59   H55   S    
C98   O44   A    
O22   Zn6   S    
C13   H17   S    
C142  H6    S    
O21   Zn5   S    
C33   H26   S    
C24   C88   S    
C126  C134  A    
C79   C87   A    
C7    O31   A    
C42   C50   A    
O28   Zn7   S    
O3    Zn3   S    
C105  C112  A    
C63   C71   A    
C97   O33   A    
C120  C148  A    
C20   C84   S    
O64   H60   S    
C54   C99   S    
C92   O20   A    
O14   Zn1   S    
C67   C75   A    
C62   O62   S    
C122  C142  A    
O44   Zn11  S    
O17   Zn1   S    
O52   H48   S    
C93   C132  S    
C15   H19   S    
C43   O51   S    
C32   C40   A    
C47   C87   A    
C63   O63   S    
C38   H21   S    
C47   C55   A    
C93   O13   A    
C106  C110  A    
C61   C69   A    
C4    O4    A    
C22   C33   A    
C105  C109  A    
C97   O43   A    
C127  C134  A    
C98   O34   A    
O9    Zn6   S    
C22   C30   A    
C123  C131  A    
C102  O38   A    
O27   Zn8   S    
C119  C138  A    
O1    Zn1   S    
C32   H36   S    
C117  C137  A    
C28   H32   S    
C121  C129  A    
C108  C114  A    
C44   C84   A    
C10   H14   S    
C92   O12   A    
C44   C52   A    
C73   H37   S    
O56   H52   S    
C120  C128  A    
O32   Zn3   S    
O2    Zn2   S    
C80   C88   A    
C146  H10   S    
C23   C36   A    
C48   C56   A    
C94   O14   A    
C68   C76   A    
C20   C28   A    
O8    Zn8   S    
C14   C146  A    
C125  C133  A    
C94   C131  S    
C96   O24   A    
C61   O61   S    
C45   C85   A    
C16   C148  A    
C60   C68   A    
C77   H41   S    
C121  C139  A    
C105  C137  A    
C46   O54   S    
O62   H58   S    
C17   C25   A    
C72   C80   A    
C34   H25   S    
C118  C138  A    
C128  C133  A    
C40   H23   S    
C44   O52   S    
C15   C147  A    
O10   Zn5   S    
C64   O64   S    
C141  H5    S    
O53   H49   S    
C3    C67   S    
C42   O50   S    
C43   C51   A    
C132  C135  A    
C135  H3    S    
C95   O23   A    
C59   O59   S    
C55   C98   S    
O5    Zn5   S    
C18   C82   S    
C31   C39   A    
C17   C81   S    
C75   C83   A    
C22   C86   S    
C7    O7    A    
C106  C138  A    
C110  C112  A    
C107  C116  A    
O12   Zn7   S    
C96   O16   A    
C19   C40   A    
C80   H44   S    
C45   C53   A    
C123  C140  A    
O41   Zn11  S    
O48   Zn9   S    
C51   C59   A    
C17   C38   A    
C28   C36   A    
C36   H27   S    
C3    O27   A    
C8    O32   A    
C74   H38   S    
C29   C37   A    
C9    C116  A    
C2    O26   A    
C89   O17   A    
C1    O1    A    
C124  C144  A    
C1    O25   A    
C120  C137  A    
C118  C126  A    
C30   C38   A    
C113  C115  A    
O38   Zn10  S    
O39   Zn10  S    
C117  C125  A    
C122  C130  A    
C107  C139  A    
O37   Zn9   S    
C10   C115  A    
O13   Zn2   S    
C57   C65   A    
C25   C33   A    
O35   Zn12  S    
C46   C86   A    
C89   C128  S    
C134  H2    S    
