data_mof_unit_60754.cif
_audit_creation_date              2013-03-05T15:40:22-0500
_audit_creation_method            fapswitch 2.2
_symmetry_space_group_name_H-M    P1
_symmetry_Int_Tables_number       1
_space_group_crystal_system       triclinic
_cell_length_a                    16.457249
_cell_length_b                    16.592114
_cell_length_c                    28.399836
_cell_angle_alpha                 90.5616
_cell_angle_beta                  89.892375
_cell_angle_gamma                 90.266799
_cell_volume                      7754.40526482

loop_
_atom_site_label
_atom_site_type_symbol
_atom_site_description
_atom_site_fract_x
_atom_site_fract_y
_atom_site_fract_z
_atom_type_partial_charge
O1    O     O_R   0.588360 0.066690 0.547410 -0.619845
O2    O     O_R   0.411640 0.933310 0.452590 -0.619599
O3    O     O_R   0.586040 0.933310 0.452590 -0.619460
O4    O     O_R   0.413960 0.066690 0.547410 -0.619507
O5    O     O_R   0.587420 0.068270 0.453900 -0.618707
O6    O     O_R   0.412580 0.931730 0.546100 -0.617793
O7    O     O_R   0.586980 0.931730 0.546100 -0.619666
O8    O     O_R   0.413020 0.068270 0.453900 -0.619399
C1    C     C_R   0.615557 0.998894 0.562272 0.871277
C2    C     C_R   0.384490 0.001093 0.437679 0.872103
C3    C     C_R   0.614576 0.000862 0.437634 0.873472
C4    C     C_R   0.385562 0.999179 0.562474 0.872183
Zn1   Zn    Zn3+2 0.500930 0.090750 0.500880 0.956026
Zn2   Zn    Zn3+2 0.499070 0.909250 0.499120 0.956432
C5    C     C_R   0.228263 0.075330 0.351820 -0.154994
C6    C     C_R   0.772366 0.924262 0.647553 -0.154634
C7    C     C_R   0.289897 0.075048 0.385326 -0.190534
C8    C     C_R   0.710370 0.924731 0.614302 -0.189951
H1    H     H_    0.313139 0.132130 0.398461 0.160531
H2    H     H_    0.686761 0.867709 0.601300 0.161358
C9    C     C_R   0.773902 0.928968 0.351849 -0.155426
C10   C     C_R   0.225560 0.071798 0.647694 -0.173056
C11   C     C_R   0.711337 0.928288 0.384905 -0.187884
C12   C     C_R   0.287754 0.072129 0.614395 -0.184460
H3    H     H_    0.688733 0.870867 0.397296 0.160515
H4    H     H_    0.308621 0.129337 0.600754 0.161646
C13   C     C_R   0.070765 0.235582 0.150165 -0.219785
C14   C     C_R   0.928954 0.763075 0.849246 -0.211130
C15   C     C_R   0.071778 0.296992 0.117257 -0.177730
C16   C     C_R   0.928056 0.702444 0.882618 -0.116632
H5    H     H_    0.129795 0.319106 0.104637 0.173167
H6    H     H_    0.870138 0.681897 0.896252 0.185072
C17   C     C_R   0.939311 0.818120 0.118848 0.421274
C18   C     C_R   0.069493 0.238598 0.841928 0.413949
C19   C     C_R   0.937044 0.754156 0.085874 0.199798
C20   C     C_R   0.071996 0.303107 0.874271 0.214688
C21   C     C_R   0.045201 0.749642 0.162559 -0.222644
C22   C     C_R   0.943959 0.190614 0.877551 -0.223068
C23   C     C_R   0.044982 0.687575 0.129508 -0.233667
C24   C     C_R   0.946360 0.254052 0.909738 -0.221972
H7    H     H_    0.086456 0.637715 0.134052 0.175836
H8    H     H_    0.898316 0.258848 0.935742 0.186480
C25   C     C_R   0.922469 0.236696 0.150763 0.330318
C26   C     C_R   0.077147 0.758813 0.846554 0.336272
C27   C     C_R   0.924404 0.298027 0.117251 -0.269072
C28   C     C_R   0.075349 0.698306 0.880587 -0.239942
H9    H     H_    0.867685 0.322408 0.104555 0.204333
H10   H     H_    0.132013 0.672800 0.892597 0.210418
C29   C     C_R   0.227341 0.929125 0.350515 -0.157226
C30   C     C_R   0.773869 0.070482 0.648768 -0.153583
C31   C     C_R   0.288954 0.928637 0.384010 -0.189866
C32   C     C_R   0.711873 0.071159 0.615524 -0.191631
H11   H     H_    0.311454 0.871227 0.396108 0.160419
H12   H     H_    0.689441 0.128628 0.603476 0.161516
C33   C     C_R   0.772354 0.075167 0.352106 -0.126834
C34   C     C_R   0.231029 0.925853 0.650350 -0.121059
C35   C     C_R   0.709869 0.074697 0.385167 -0.193846
C36   C     C_R   0.293025 0.925965 0.616945 -0.196476
H13   H     H_    0.686087 0.131754 0.397715 0.163221
H14   H     H_    0.318161 0.868882 0.605399 0.164473
C37   C     C_3   0.000273 0.004975 0.248338 -0.006245
C38   C     C_3   0.999627 0.993848 0.751641 -0.007992
C39   C     C_R   0.196935 0.002412 0.334675 0.153903
C40   C     C_R   0.804142 0.997086 0.664521 0.151158
C41   C     C_R   0.320335 0.001641 0.401925 -0.043604
C42   C     C_R   0.680009 0.998237 0.597803 -0.044367
C43   C     C_R   0.804465 0.002375 0.335743 0.145381
C44   C     C_R   0.197094 0.998670 0.665389 0.142966
C45   C     C_R   0.679253 0.001221 0.402078 -0.046944
C46   C     C_R   0.321425 0.999111 0.598409 -0.048539
C47   C     C_R   0.996869 0.204890 0.166593 0.017690
C48   C     C_R   0.002770 0.791984 0.831650 0.010138
C49   C     C_R   0.998636 0.328030 0.100144 -0.092641
C50   C     C_R   0.001251 0.670478 0.899060 -0.093132
C51   C     C_R   0.992536 0.814359 0.157399 -0.018839
C52   C     C_R   0.004531 0.183463 0.843454 -0.019366
C53   C     C_R   0.991113 0.688836 0.091334 -0.207240
C54   C     C_R   0.009707 0.310913 0.908409 -0.220322
H15   H     H_    0.204322 0.132245 0.339768 0.138946
H16   H     H_    0.796163 0.867274 0.659587 0.140616
H17   H     H_    0.799071 0.872448 0.339303 0.141077
H18   H     H_    0.198866 0.128331 0.659043 0.140363
H19   H     H_    0.127850 0.210714 0.162094 0.159326
H20   H     H_    0.871917 0.788983 0.838010 0.161396
H21   H     H_    0.086985 0.747510 0.191972 0.167571
H22   H     H_    0.894427 0.147423 0.879016 0.172632
H23   H     H_    0.202704 0.872508 0.337460 0.136795
H24   H     H_    0.798825 0.127017 0.661740 0.142337
H25   H     H_    0.796273 0.132158 0.339754 0.157360
H26   H     H_    0.208711 0.869040 0.663888 0.163344
C55   C     C_1   0.072385 0.003481 0.277453 -0.025620
C56   C     C_1   0.928277 0.995523 0.721965 -0.009169
C57   C     C_1   0.000177 0.077375 0.220304 0.034706
C58   C     C_1   0.999735 0.920479 0.778772 0.029294
C59   C     C_1   0.929134 0.004015 0.278386 0.051917
C60   C     C_1   0.071608 0.996456 0.722229 0.045647
C61   C     C_1   0.998478 0.935285 0.217314 -0.009160
C62   C     C_1   0.999435 0.062475 0.783507 -0.010370
C63   C     C_1   0.130267 0.002812 0.302876 -0.060658
C64   C     C_1   0.870726 0.996431 0.696326 -0.058667
C65   C     C_1   0.995970 0.879146 0.190616 0.023825
C66   C     C_1   0.000693 0.118176 0.810561 0.023357
C67   C     C_1   0.999078 0.136250 0.196331 0.017856
C68   C     C_1   0.000754 0.860961 0.802189 0.039494
C69   C     C_1   0.871455 0.003170 0.304067 -0.033313
C70   C     C_1   0.129776 0.997865 0.696892 -0.047677
O9    O     O_R   0.063560 0.593880 0.045280 -0.624292
O10   O     O_R   0.936440 0.406120 0.954720 -0.625386
O11   O     O_R   0.931210 0.414910 0.046840 -0.622731
O12   O     O_R   0.068790 0.585090 0.953160 -0.611067
O13   O     O_R   0.067840 0.419730 0.049340 -0.623927
O14   O     O_R   0.932160 0.580270 0.950660 -0.600355
O15   O     O_R   0.926930 0.589050 0.042780 -0.575339
O16   O     O_R   0.073070 0.410950 0.957220 -0.560351
C71   C     C_R   0.993635 0.621237 0.058001 0.947206
C72   C     C_R   0.006543 0.379478 0.941330 0.907907
C73   C     C_R   0.999353 0.390750 0.064069 0.865729
C74   C     C_R   0.000651 0.608820 0.935714 0.928984
Zn3   Zn    Zn3+2 0.091890 0.503230 0.001680 1.039553
Zn4   Zn    Zn3+2 0.908110 0.496770 0.998320 1.023248
O17   O     O_3   0.888943 0.884069 0.113807 -0.595324
C75   C     C_3   0.930009 0.942886 0.086926 0.077468
H27   H     H_    0.936867 0.921480 0.049835 0.173739
H28   H     H_    0.991323 0.956789 0.101718 0.122152
C76   C     C_3   0.880410 0.020520 0.087468 -0.253899
H29   H     H_    0.819101 0.008214 0.072602 0.254379
H30   H     H_    0.873057 0.042055 0.124427 0.248953
C77   C     C_3   0.921759 0.086404 0.058767 -0.947978
H31   H     H_    0.982250 0.101402 0.073888 0.264334
H32   H     H_    0.883784 0.141537 0.059445 0.286247
H33   H     H_    0.929346 0.066413 0.021574 0.267832
O18   O     O_3   0.127022 0.233413 0.806453 -0.606774
C78   C     C_3   0.189258 0.180529 0.820503 0.101296
H34   H     H_    0.164237 0.122597 0.834070 0.130201
H35   H     H_    0.227004 0.209617 0.848434 0.179178
C79   C     C_3   0.242848 0.161640 0.777863 -0.320593
H36   H     H_    0.204371 0.137104 0.748963 0.227726
H37   H     H_    0.272289 0.218016 0.765450 0.243026
C80   C     C_3   0.308206 0.100133 0.789566 -0.901610
H38   H     H_    0.347998 0.123527 0.818191 0.269962
H39   H     H_    0.346019 0.088271 0.757842 0.270556
H40   H     H_    0.279825 0.042493 0.800722 0.282993
N1    N     N_R   0.845201 0.206728 0.167264 0.198311
O19   O     O_R   0.780495 0.214116 0.141411 -0.389726
O20   O     O_R   0.837356 0.178202 0.209558 -0.394650
N2    N     N_R   0.154261 0.786423 0.828461 0.207542
O21   O     O_R   0.220274 0.776880 0.852912 -0.372187
O22   O     O_R   0.160432 0.814448 0.785958 -0.397432
N3    N     N_R   0.883254 0.758191 0.046162 0.215650
O23   O     O_R   0.808882 0.782856 0.051701 -0.326568
O24   O     O_R   0.910909 0.746066 0.003751 -0.422836
N4    N     N_R   0.135840 0.361668 0.870751 0.220796
O25   O     O_R   0.197010 0.358893 0.899618 -0.379730
O26   O     O_R   0.141034 0.406367 0.833488 -0.343141

loop_
_geom_bond_atom_site_label_1
_geom_bond_atom_site_label_2
_geom_bond_distance
_ccdc_geom_bond_type
C22   C24   1.387776 A    
O8    Zn1   2.001211 S    
C29   C39   1.395930 A    
C38   C60   1.448927 S    
C14   H20   1.084101 S    
C30   C40   1.395894 A    
C29   H23   1.083754 S    
C25   N1    1.442325 S    
C77   H31   1.111133 S    
O12   C74   1.291514 A    
O11   C73   1.291442 A    
C23   H7    1.083791 S    
C22   C52   1.393093 A    
C22   H22   1.083887 S    
C10   H18   1.083562 S    
O13   Zn3   1.984392 S    
C12   H4    1.082907 S    
O5    C3    1.287561 A    
N3    O24   1.300912 A    
O6    C4    1.288429 A    
C16   C50   1.401174 A    
C80   H40   1.111043 S    
C37   C57   1.447632 S    
C35   H13   1.082931 S    
C15   C49   1.401144 A    
C36   H14   1.082925 S    
N1    O19   1.301538 A    
C36   C46   1.405281 A    
C13   C15   1.389376 A    
C27   C49   1.404674 A    
C31   C41   1.405648 A    
O4    Zn1   1.987983 S    
O10   Zn4   1.995164 S    
C1    C42   1.465537 S    
C39   C63   1.422446 S    
C59   C69   1.196104 T    
C17   C19   1.408898 A    
C38   C62   1.447554 S    
C17   C51   1.405447 A    
O7    Zn2   2.001212 S    
C5    H15   1.083746 S    
C26   C28   1.400576 A    
O18   C78   1.412433 S    
C29   C31   1.391744 A    
C38   C56   1.447193 S    
C76   C77   1.526729 S    
C30   C32   1.391554 A    
O4    C4    1.288393 A    
O5    Zn1   1.983268 S    
O16   Zn3   1.998427 S    
C30   H24   1.083751 S    
C34   H26   1.083804 S    
C21   C51   1.392093 A    
C58   C68   1.196192 T    
C9    C43   1.396438 A    
C17   O17   1.384533 S    
C57   C67   1.196410 T    
C14   C48   1.397350 A    
C44   C70   1.422812 S    
C79   C80   1.525487 S    
O2    Zn2   1.999683 S    
O9    Zn3   1.995168 S    
C32   H12   1.082931 S    
N2    O22   1.301400 A    
C27   H9    1.082864 S    
C9    C11   1.392154 A    
C52   C66   1.424716 S    
C50   C74   1.466640 S    
C28   H10   1.082930 S    
C49   C73   1.467496 S    
C12   C46   1.405541 A    
C16   H6    1.082991 S    
O1    C1    1.287841 A    
C79   H37   1.111572 S    
O14   Zn4   1.984390 S    
C20   N4    1.431799 S    
C48   C68   1.424837 S    
C34   C44   1.396184 A    
C11   C45   1.405153 A    
C19   C53   1.415362 A    
O16   C72   1.291100 A    
C6    H16   1.083765 S    
O6    Zn2   1.983270 S    
O15   Zn4   1.998427 S    
C26   N2    1.442659 S    
C10   C44   1.396417 A    
C37   C59   1.447584 S    
C37   C61   1.447075 S    
C33   C35   1.391254 A    
C25   C27   1.400348 A    
O9    C71   1.288757 A    
O17   C75   1.413668 S    
O3    Zn2   1.987985 S    
C78   C79   1.527629 S    
C24   C54   1.403474 A    
C6    C8    1.391611 A    
N4    O26   1.300661 A    
C60   C70   1.196767 T    
C76   H29   1.111731 S    
C10   C12   1.392245 A    
O1    Zn1   1.999681 S    
C75   H28   1.115985 S    
O2    C2    1.287854 A    
C77   H33   1.111007 S    
C23   C53   1.402132 A    
C28   C50   1.404485 A    
C13   C47   1.397413 A    
C56   C64   1.195987 T    
C76   H30   1.112017 S    
N2    O21   1.301577 A    
C2    C41   1.466347 S    
C21   H21   1.083899 S    
N1    O20   1.301301 A    
C4    C46   1.466821 S    
C25   C47   1.411566 A    
O8    C2    1.288761 A    
C54   C72   1.466485 S    
C9    H17   1.083727 S    
C79   H36   1.110566 S    
C77   H32   1.110268 S    
O12   Zn3   1.982816 S    
C33   C43   1.395694 A    
C80   H38   1.110772 S    
C3    C45   1.465829 S    
C5    C7    1.392143 A    
C8    C42   1.405139 A    
C6    C40   1.396190 A    
C7    C41   1.405163 A    
O13   C73   1.293705 A    
C55   C63   1.196512 T    
O10   C72   1.292614 A    
C75   C76   1.528113 S    
C38   C58   1.447074 S    
C14   C16   1.388891 A    
C21   C23   1.386572 A    
C62   C66   1.196172 T    
N3    O23   1.301154 A    
O14   C74   1.293165 A    
C80   H39   1.110531 S    
C78   H34   1.115750 S    
C24   H8    1.083581 S    
C7    H1    1.082927 S    
C18   C20   1.404105 A    
C34   C36   1.391917 A    
C26   C48   1.411782 A    
C8    H2    1.082935 S    
C11   H3    1.082927 S    
C33   H25   1.083818 S    
O3    C3    1.288759 A    
C31   H11   1.082925 S    
C18   O18   1.383563 S    
C13   H19   1.084047 S    
O7    C1    1.288372 A    
C40   C64   1.421540 S    
C32   C42   1.405472 A    
C43   C69   1.421706 S    
N4    O25   1.300737 A    
C15   H5    1.082940 S    
C51   C65   1.424216 S    
C78   H35   1.113360 S    
C5    C39   1.396513 A    
C20   C54   1.415138 A    
C19   N3    1.437309 S    
C35   C45   1.405566 A    
C75   H27   1.114049 S    
C53   C71   1.461300 S    
C47   C67   1.425128 S    
C61   C65   1.195883 T    
C37   C55   1.448134 S    
O11   Zn4   1.982814 S    
C18   C52   1.404712 A    
O15   C71   1.291901 A    
