data_mof_unit_56203.cif
_audit_creation_date              2012-12-10T17:48:48-0500
_audit_creation_method            fapswitch 2.2
_symmetry_space_group_name_H-M    P1
_symmetry_Int_Tables_number       1
_space_group_crystal_system       triclinic
_cell_length_a                    10.736489
_cell_length_b                    14.740681
_cell_length_c                    14.598798
_cell_angle_alpha                 64.743761
_cell_angle_beta                  104.698029
_cell_angle_gamma                 102.68681
_cell_volume                      2004.7693125

loop_
_atom_site_label
_atom_site_type_symbol
_atom_type_description
_atom_site_fract_x
_atom_site_fract_y
_atom_site_fract_z
_atom_type_partial_charge
C1    C     C_R   0.477678 0.119637 0.310753 0.798743
C2    C     C_3   0.877867 0.999858 0.498900 0.069837
C3    C     C_3   0.965199 0.008851 0.598762 -0.410162
C4    C     C_3   0.923836 0.092849 0.401946 0.086491
C5    C     C_R   0.457178 0.186861 0.199297 -0.124680
C6    C     C_R   0.519510 0.815224 0.799582 -0.140048
C7    C     C_R   0.381608 0.221000 0.016063 -0.046547
C8    C     C_R   0.406361 0.151246 0.119281 -0.082599
C9    C     C_R   0.485122 0.290949 0.173649 -0.204765
C10   C     C_R   0.450030 0.361655 0.073011 0.081835
C11   C     C_R   0.401238 0.326175 0.993017 0.066668
C12   C     C_R   0.260275 0.999491 0.501007 0.786484
C13   C     C_R   0.463780 0.467010 0.050448 0.019144
C14   C     C_R   0.447186 0.537413 0.946780 0.070650
C15   C     C_R   0.388780 0.500105 0.868226 0.123300
C16   C     C_R   0.369083 0.396382 0.891941 -0.253042
C17   C     C_R   0.486122 0.503283 0.128922 -0.226195
C18   C     C_R   0.501899 0.605973 0.108292 -0.043800
C19   C     C_R   0.503185 0.678785 0.005798 0.032012
C20   C     C_R   0.482986 0.642511 0.926111 0.081496
C21   C     C_R   0.523841 0.785759 0.978612 -0.073583
C22   C     C_R   0.525072 0.853103 0.874987 -0.081017
C23   C     C_R   0.519277 0.880655 0.688996 0.799879
C24   C     C_R   0.506521 0.711229 0.828376 -0.200542
C25   C     C_R   0.733435 0.288395 0.660887 -0.258971
C26   C     C_R   0.692361 0.205462 0.633656 0.079574
C27   C     C_R   0.511799 0.283334 0.515213 0.119828
C28   C     C_R   0.541789 0.365996 0.547967 -0.094995
C29   C     C_R   0.660564 0.370292 0.616910 0.157199
C30   C     C_R   0.462783 0.446389 0.511851 0.060127
C31   C     C_R   0.514818 0.537692 0.527386 0.063776
C32   C     C_R   0.636322 0.539986 0.592535 -0.281199
C33   C     C_R   0.706169 0.456895 0.639512 0.164113
C34   C     C_R   0.739958 0.999202 0.500746 0.772271
C35   C     C_R   0.330678 0.435889 0.466835 -0.242749
C36   C     C_R   0.259974 0.517799 0.417299 -0.022999
C37   C     C_R   0.316125 0.612584 0.419637 0.112361
C38   C     C_R   0.441773 0.622498 0.479012 -0.010892
C39   C     C_R   0.246818 0.696743 0.367416 -0.290360
C40   C     C_R   0.297898 0.787279 0.378386 0.118701
C41   C     C_R   0.487578 0.717279 0.487561 0.029616
C42   C     C_3   0.039253 0.902659 0.489320 -0.414189
C43   C     C_3   0.897251 0.898489 0.496251 0.012837
C44   C     C_3   0.107613 0.002088 0.602199 -0.391416
C45   C     C_3   0.071499 0.093765 0.408591 -0.383838
C46   C     C_3   0.122266 0.999435 0.500453 0.071582
Cu1   Cu    Cu3+1 0.465900 0.918260 0.475680 0.952261
Cu2   Cu    Cu3+1 0.534100 0.081740 0.524320 0.963638
H1    H     H_    0.081121 0.833956 0.549564 0.181692
H2    H     H_    0.170230 0.068284 0.614708 0.192911
H3    H     H_    0.959449 0.081964 0.601692 0.178815
H4    H     H_    0.324863 0.371527 0.829740 0.160807
H5    H     H_    0.517773 0.684070 0.773369 0.184472
H6    H     H_    0.536486 0.315774 0.234187 0.169711
H7    H     H_    0.042110 0.902714 0.413555 0.154927
H8    H     H_    0.484104 0.452196 0.208034 0.159740
H9    H     H_    0.578840 0.730112 0.534623 0.137498
H10   H     H_    0.241530 0.850127 0.341875 0.126799
H11   H     H_    0.822489 0.288000 0.716160 0.177278
H12   H     H_    0.748212 0.142330 0.669017 0.130839
H13   H     H_    0.834170 0.889638 0.426461 0.157251
H14   H     H_    0.678584 0.604412 0.611601 0.133496
H15   H     H_    0.278292 0.362658 0.473260 0.152459
H16   H     H_    0.151633 0.692502 0.320437 0.151054
H17   H     H_    0.139365 0.932798 0.668550 0.169335
H18   H     H_    0.931237 0.949151 0.668913 0.174970
H19   H     H_    0.129556 0.162633 0.418375 0.178594
H20   H     H_    0.090146 0.096248 0.335854 0.169212
N1    N     N_R   0.585360 0.204570 0.560800 -0.193621
N2    N     N_R   0.414550 0.795430 0.439160 -0.180186
O1    O     O_R   0.455060 0.022100 0.338110 -0.577126
O2    O     O_R   0.512640 0.160150 0.379180 -0.567750
O3    O     O_R   0.288900 0.930980 0.479450 -0.599327
O4    O     O_R   0.346480 0.069030 0.520520 -0.581234
O5    O     O_R   0.487360 0.839850 0.620820 -0.574718
O6    O     O_R   0.544940 0.977900 0.661890 -0.577029
O7    O     O_R   0.653520 0.930970 0.479480 -0.569685
O8    O     O_R   0.711100 0.069020 0.520550 -0.595315
C47   C     C_1   0.904873 0.190214 0.400272 0.301383
N3    N     N_1   0.889625 0.266044 0.399077 -0.262860
C48   C     C_1   0.531610 0.960878 0.847854 0.284379
N4    N     N_1   0.536500 0.046551 0.826833 -0.260661
C49   C     C_1   0.519984 0.630337 0.197255 0.259163
N5    N     N_1   0.534580 0.648408 0.269322 -0.263345
C50   C     C_1   0.334219 0.183766 0.934256 0.236070
N6    N     N_1   0.296603 0.154070 0.869182 -0.274497
C51   C     C_1   0.378892 0.044007 0.140847 0.292704
N7    N     N_1   0.356514 0.958608 0.157240 -0.261089
N8    N     N_3   0.334307 0.565239 0.766445 -0.603166
H21   H     H_    0.234340 0.542441 0.753294 0.229592
H22   H     H_    0.374468 0.555593 0.713449 0.218339
C52   C     C_1   0.543562 0.829914 0.053953 0.255605
N9    N     N_1   0.559929 0.866530 0.112878 -0.241484
N10   N     N_3   0.826872 0.462453 0.708276 -0.607768
H23   H     H_    0.808765 0.475880 0.768204 0.227358
H24   H     H_    0.888706 0.524472 0.668082 0.216380
C53   C     C_1   0.127803 0.501300 0.366336 0.240752
N11   N     N_1   0.022134 0.488481 0.325324 -0.251317
C54   C     C_1   0.415302 0.287090 0.425049 0.276541
N12   N     N_1   0.337857 0.291274 0.352309 -0.326110
N13   N     N_3   0.858892 0.809635 0.585639 -0.599218
H25   H     H_    0.929693 0.802593 0.651543 0.228380
H26   H     H_    0.854344 0.744990 0.571590 0.206723
N14   N     N_3   0.850832 0.087711 0.303754 -0.593237
H27   H     H_    0.875095 0.029305 0.291698 0.219752
H28   H     H_    0.750903 0.075157 0.302875 0.209927

loop_
_geom_bond_atom_site_label_1
_geom_bond_atom_site_label_2
_ccdc_geom_bond_type
C51   N7    T    
N13   H25   S    
C12   O4    A    
Cu2   O6    S    
C19   C20   A    
Cu2   N1    S    
C33   N10   S    
N14   H28   S    
C53   N11   T    
C7    C8    A    
C45   C46   S    
C7    C11   A    
C39   H16   S    
C27   C54   S    
C1    O1    A    
C40   N2    A    
C30   C35   A    
C1    C5    S    
C28   C29   A    
C19   C21   A    
C34   O7    A    
C30   C31   A    
C15   C16   A    
C6    C22   A    
C29   C33   A    
C18   C19   A    
C42   C46   S    
Cu2   O8    S    
C20   C24   A    
Cu1   Cu2   S    
C45   H19   S    
C36   C53   S    
N8    H22   S    
C9    C10   A    
C23   O6    A    
C27   N1    A    
C2    C34   S    
N13   H26   S    
C21   C22   A    
C44   H17   S    
Cu2   O2    S    
C12   O3    A    
N14   H27   S    
C44   C46   S    
C18   C49   S    
C4    C45   S    
C25   C29   A    
C3    C44   S    
C1    O2    A    
C40   H10   S    
C22   C48   S    
Cu2   O4    S    
Cu1   O3    S    
C4    C47   S    
C12   C46   S    
C39   C40   A    
C3    H3    S    
C25   C26   A    
C50   N6    T    
C48   N4    T    
C35   C36   A    
C2    C4    S    
C43   N13   S    
Cu1   N2    S    
C5    C9    A    
C37   C38   A    
C14   C20   A    
C42   H7    S    
C15   N8    S    
C11   C16   A    
C49   N5    T    
C2    C43   S    
C6    C24   A    
C45   H20   S    
C17   C18   A    
N10   H24   S    
C17   H8    S    
Cu1   O1    S    
C38   C41   A    
C3    H18   S    
C42   C43   S    
Cu1   O7    S    
C43   H13   S    
C44   H2    S    
C36   C37   A    
C31   C32   A    
C16   H4    S    
C23   O5    A    
Cu1   O5    S    
C10   C13   A    
C5    C8    A    
C31   C38   A    
C13   C17   A    
C8    C51   S    
C32   C33   A    
C28   C30   A    
C2    C3    S    
C24   H5    S    
C32   H14   S    
C37   C39   A    
C54   N12   T    
C34   O8    A    
C7    C50   S    
C6    C23   S    
C4    N14   S    
C52   N9    T    
N10   H23   S    
C10   C11   A    
C42   H1    S    
C41   H9    S    
C47   N3    T    
C27   C28   A    
C26   N1    A    
C14   C15   A    
C35   H15   S    
C9    H6    S    
C25   H11   S    
N8    H21   S    
C13   C14   A    
C26   H12   S    
C41   N2    A    
C21   C52   S    
