data_mof_unit_47603.cif
_audit_creation_date              2013-03-05T15:41:29-0500
_audit_creation_method            fapswitch 2.2
_symmetry_space_group_name_H-M    P1
_symmetry_Int_Tables_number       1
_space_group_crystal_system       triclinic
_cell_length_a                    17.13029
_cell_length_b                    7.242151
_cell_length_c                    16.902859
_cell_angle_alpha                 91.092066
_cell_angle_beta                  99.670944
_cell_angle_gamma                 88.699165
_cell_volume                      2066.39063191

loop_
_atom_site_label
_atom_site_type_symbol
_atom_site_description
_atom_site_fract_x
_atom_site_fract_y
_atom_site_fract_z
_atom_type_partial_charge
O1    O     O_R   0.414560 0.494370 0.416770 -0.548103
O2    O     O_R   0.585440 0.994370 0.583230 -0.534291
O3    O     O_R   0.578370 0.819590 0.429320 -0.528069
O4    O     O_R   0.421630 0.319590 0.570680 -0.552094
C1    C     C_R   0.602522 0.652312 0.411515 0.896718
C2    C     C_R   0.397704 0.158003 0.589016 0.912408
O5    O     O_R   0.414740 0.823790 0.407360 -0.503027
O6    O     O_R   0.585260 0.323790 0.592640 -0.540528
O7    O     O_R   0.420650 0.998510 0.561120 -0.525912
O8    O     O_R   0.579350 0.498510 0.438880 -0.568795
C3    C     C_R   0.387466 0.656138 0.385414 0.884116
C4    C     C_R   0.611483 0.155412 0.615637 0.879966
O9    O     O_3   0.502130 0.662240 0.550470 -0.248426
O10   O     O_3   0.497870 0.162240 0.449530 -0.257282
V1    V     V_3+5 0.499600 0.935390 0.490640 1.332348
V2    V     V_3+5 0.500400 0.435390 0.509360 1.295541
C5    C     C_2   0.775324 0.268275 0.799084 -0.102326
C6    C     C_2   0.213333 0.771776 0.210906 -0.067187
C7    C     C_2   0.817056 0.111971 0.821000 -0.189653
C8    C     C_2   0.178769 0.612612 0.182938 -0.209491
H1    H     H_    0.794206 0.396187 0.830327 0.160445
H2    H     H_    0.190703 0.900145 0.182699 0.158922
H3    H     H_    0.797291 0.980021 0.794616 0.123550
H4    H     H_    0.198810 0.481585 0.209660 0.110847
C9    C     C_2   0.700260 0.278301 0.739010 0.318257
C10   C     C_2   0.281257 0.791117 0.278487 0.339692
C11   C     C_2   0.679840 0.143556 0.682537 -0.192149
C12   C     C_2   0.320803 0.644221 0.316686 -0.207151
H5    H     H_    0.716611 0.019960 0.682222 0.066809
H6    H     H_    0.303546 0.505193 0.297992 0.103950
C13   C     C_R   0.339036 0.161933 0.645143 -0.192941
C14   C     C_R   0.661523 0.631849 0.356194 -0.203045
C15   C     C_R   0.170413 0.101480 0.866765 -0.168008
C16   C     C_R   0.830414 0.636407 0.133147 -0.170108
C17   C     C_R   0.279709 0.930501 0.822164 -0.016920
C18   C     C_R   0.715776 0.807775 0.165651 0.003601
C19   C     C_R   0.226495 0.953487 0.876092 0.323397
C20   C     C_R   0.770428 0.773499 0.113937 0.318061
C21   C     C_R   0.171338 0.226448 0.804435 -0.071901
C22   C     C_R   0.832967 0.535011 0.203578 -0.088017
C23   C     C_R   0.225716 0.203966 0.750041 -0.029528
C24   C     C_R   0.777620 0.569647 0.255989 -0.040437
C25   C     C_R   0.283454 0.058333 0.761320 -0.075320
C26   C     C_R   0.715231 0.701313 0.234387 -0.074398
C27   C     C_R   0.343962 0.044732 0.712457 0.324006
C28   C     C_R   0.653597 0.722628 0.281361 0.389226
C29   C     C_R   0.279602 0.300167 0.633429 -0.126704
C30   C     C_R   0.725361 0.508222 0.377991 -0.159717
C31   C     C_R   0.224195 0.324533 0.685045 0.380621
C32   C     C_R   0.782566 0.474339 0.328982 0.378360
H7    H     H_    0.276140 0.391821 0.582922 0.139024
H8    H     H_    0.731131 0.437148 0.434623 0.129887
H9    H     H_    0.317931 0.809436 0.828711 0.195322
H10   H     H_    0.673917 0.920579 0.151201 0.188133
H11   H     H_    0.128099 0.338574 0.797975 0.153539
H12   H     H_    0.879413 0.431310 0.217505 0.150111
O11   O     O_R   0.920750 0.773600 0.061260 -0.535122
O12   O     O_R   0.079250 0.273600 0.938740 -0.545501
O13   O     O_R   0.085340 0.439850 0.092570 -0.553760
O14   O     O_R   0.914660 0.939850 0.907430 -0.533246
C33   C     C_R   0.112050 0.607873 0.114730 0.883242
C34   C     C_R   0.887025 0.108134 0.886010 0.879201
O15   O     O_R   0.921720 0.444130 0.070790 -0.551801
O16   O     O_R   0.078280 0.944130 0.929210 -0.534502
O17   O     O_R   0.914480 0.269530 0.916840 -0.562916
O18   O     O_R   0.085520 0.769530 0.083160 -0.541176
C35   C     C_R   0.895316 0.615176 0.085000 0.858457
C36   C     C_R   0.105098 0.109008 0.915089 0.857546
O19   O     O_3   0.997840 0.601520 0.949550 -0.281153
O20   O     O_3   0.002160 0.101520 0.050450 -0.285559
V3    V     V_3+5 0.000400 0.328340 0.009360 1.227425
V4    V     V_3+5 0.999600 0.828340 0.990640 1.261026
N1    N     N_R   0.649289 0.437630 0.743717 0.118601
O21   O     O_R   0.679688 0.600010 0.759288 -0.313109
O22   O     O_R   0.574641 0.416185 0.746915 -0.259333
N2    N     N_R   0.304010 0.976707 0.301103 0.095377
O23   O     O_R   0.253636 0.088612 0.327886 -0.372646
O24   O     O_R   0.365368 0.044734 0.276799 -0.262956
S1    S     S_3+6 0.429793 0.900196 0.742279 0.001953
O25   O     O_2   0.412352 0.707919 0.710202 -0.217370
O26   O     O_2   0.500847 0.968458 0.711405 -0.263841
O27   O     O_3   0.453798 0.893198 0.842914 -0.445448
H13   H     H_    0.462909 0.023483 0.860274 0.355435
S2    S     S_3+6 0.562710 0.839040 0.241339 -0.025847
O28   O     O_2   0.494813 0.760741 0.274398 -0.285906
O29   O     O_2   0.569566 0.040867 0.263182 -0.256320
O30   O     O_3   0.542078 0.813888 0.140830 -0.480466
H14   H     H_    0.494340 0.892667 0.124073 0.397213
N3    N     N_R   0.165796 0.470410 0.668954 0.090215
O31   O     O_R   0.186892 0.633233 0.650204 -0.339186
O32   O     O_R   0.090816 0.432656 0.658214 -0.328780
N4    N     N_R   0.846563 0.347016 0.356054 0.091186
O33   O     O_R   0.832273 0.192608 0.388577 -0.335786
O34   O     O_R   0.919513 0.399660 0.362466 -0.323028
N5    N     N_R   0.232250 0.828218 0.941937 0.098715
O35   O     O_R   0.231711 0.891984 0.014351 -0.350973
O36   O     O_R   0.249166 0.654182 0.931744 -0.339950
N6    N     N_R   0.762124 0.874773 0.040466 0.099247
O37   O     O_R   0.767224 0.788821 0.973136 -0.320157
O38   O     O_R   0.738431 0.046906 0.038678 -0.334329

loop_
_geom_bond_atom_site_label_1
_geom_bond_atom_site_label_2
_geom_bond_distance
_ccdc_geom_bond_type
O30   H14   0.990780 S    
C17   H9    1.078405 S    
N1    O22   1.301831 A    
N1    O21   1.301281 A    
N5    O35   1.301380 A    
O1    C3    1.336109 A    
S2    O30   1.683368 S    
C20   N6    1.439111 S    
O2    C4    1.332847 A    
C2    O7    1.316025 A    
C21   C23   1.419406 A    
O5    C3    1.334328 A    
C15   C21   1.404254 A    
C16   C22   1.404556 A    
O16   C36   1.329076 A    
C17   C19   1.398601 A    
N2    O24   1.300981 A    
O12   V3    1.976322 S    
C11   H5    1.083210 S    
O14   V4    2.012435 S    
C7    C34   1.483921 S    
C19   N5    1.438413 S    
O14   C34   1.331746 A    
C8    C33   1.481281 S    
C33   O18   1.334206 A    
C21   H11   1.081132 S    
C8    H4    1.082480 S    
O18   V4    2.004228 S    
C22   H12   1.081275 S    
C6    C10   1.494359 S    
C10   N2    1.434822 S    
O20   V3    1.793277 S    
N3    O32   1.301218 A    
C17   C25   1.407135 A    
C9    N1    1.440232 S    
C1    C14   1.491093 S    
C30   C32   1.400281 A    
C2    C13   1.492947 S    
O6    V2    2.012573 S    
C13   C29   1.404129 A    
C23   C25   1.422656 A    
C24   C26   1.421506 A    
O11   C35   1.328986 A    
C23   C31   1.412783 A    
C26   C28   1.427796 A    
O15   C35   1.340323 A    
O13   C33   1.334432 A    
C4    C11   1.487124 S    
S2    O28   1.498993 D    
C29   C31   1.399252 A    
S1    O26   1.499593 D    
C29   H7    1.084317 S    
O17   V3    2.005760 S    
C5    H1    1.085919 S    
O4    V2    2.037838 S    
O19   V4    1.770131 S    
C7    H3    1.083710 S    
C30   H8    1.084304 S    
O6    C4    1.332061 A    
N4    O34   1.301262 A    
C27   S1    1.792444 S    
O1    V2    2.004451 S    
N2    O23   1.300736 A    
O2    V1    2.005963 S    
C25   C27   1.430414 A    
C24   C32   1.414401 A    
C28   S2    1.789033 S    
O12   C36   1.339429 A    
O15   V3    1.995906 S    
N6    O37   1.301631 A    
N6    O38   1.301548 A    
C18   C26   1.408012 A    
O4    C2    1.308349 A    
C18   C20   1.399398 A    
O3    V1    1.995932 S    
C32   N4    1.436365 S    
C34   O17   1.333552 A    
C16   C20   1.414533 A    
C14   C28   1.421453 A    
C31   N3    1.436117 S    
C22   C24   1.417585 A    
O3    C1    1.317015 A    
C16   C35   1.487785 S    
S1    O27   1.682999 S    
N5    O36   1.301596 A    
C9    C11   1.361467 D    
C10   C12   1.361640 D    
C5    C9    1.499908 S    
C6    H2    1.086418 S    
O7    V1    1.987404 S    
C12   H6    1.082136 S    
O8    V2    2.011820 S    
C14   C30   1.402141 A    
C3    C12   1.488620 S    
O5    V1    2.017524 S    
N4    O33   1.301421 A    
C5    C7    1.349041 D    
C6    C8    1.348676 D    
O16   V4    2.037806 S    
O11   V4    1.997634 S    
C15   C19   1.416092 A    
C18   H10   1.078613 S    
S1    O25   1.502656 D    
C1    O8    1.309040 A    
O27   H13   0.990694 S    
C13   C27   1.422482 A    
O9    V2    1.770472 S    
O10   V1    1.793650 S    
S2    O29   1.503068 D    
N3    O31   1.301387 A    
C15   C36   1.491510 S    
O13   V3    2.017427 S    
