data_mof_unit_6616.cif
_audit_creation_date              2012-12-10T19:41:53-0500
_audit_creation_method            fapswitch 2.2
_symmetry_space_group_name_H-M    P1
_symmetry_Int_Tables_number       1
_space_group_crystal_system       triclinic
_cell_length_a                    18.547137
_cell_length_b                    18.306768
_cell_length_c                    18.269197
_cell_angle_alpha                 119.539558
_cell_angle_beta                  90.090535
_cell_angle_gamma                 120.247799
_cell_volume                      4396.6943623

loop_
_atom_site_label
_atom_site_type_symbol
_atom_type_description
_atom_site_fract_x
_atom_site_fract_y
_atom_site_fract_z
_atom_type_partial_charge
C1    C     C_R   0.140118 0.779961 0.142159 0.840203
C2    C     C_R   0.815121 0.109978 0.805698 -0.201128
C3    C     C_3   0.312819 0.407659 0.836994 -0.359472
C4    C     C_3   0.271327 0.292679 0.772774 -0.987452
C5    C     C_3   0.476378 0.785906 0.866395 0.016743
C6    C     C_3   0.529448 0.814114 0.809615 -0.242863
C7    C     C_3   0.532537 0.899245 0.809996 -0.953237
C8    C     C_3   0.386750 0.666328 0.062415 0.110831
C9    C     C_3   0.485431 0.710134 0.079287 -0.361133
C10   C     C_3   0.536796 0.779496 0.178829 -1.014126
C11   C     C_2   0.370421 0.755071 0.979009 0.319802
C12   C     C_2   0.731658 0.796925 0.973145 0.513064
C13   C     C_R   0.826958 0.055701 0.833306 0.487482
C14   C     C_2   0.609655 0.574882 0.828848 0.436419
C15   C     C_3   0.642301 0.258489 0.545542 0.191359
C16   C     C_3   0.668908 0.196033 0.473751 -0.318329
C17   C     C_3   0.658884 0.110703 0.478782 -0.922003
C18   C     C_3   0.973033 0.131197 0.890542 0.076928
C19   C     C_3   0.049893 0.199604 0.976600 -0.224631
C20   C     C_3   0.137341 0.226761 0.958962 -1.007055
C21   C     C_2   0.784864 0.889068 0.808604 0.488698
C22   C     C_2   0.683849 0.912698 0.513144 0.491598
C23   C     C_R   0.862492 0.220460 0.860575 0.844459
C24   C     C_R   0.771782 0.945521 0.779108 -0.175419
C25   C     C_R   0.707887 0.891613 0.695132 -0.211040
C26   C     C_R   0.709335 0.950657 0.667275 0.050692
C27   C     C_3   0.662378 0.948908 0.598392 -0.091259
C28   C     C_3   0.720599 0.068611 0.662500 -0.275603
C29   C     C_R   0.795779 0.573301 0.242616 0.011569
C30   C     C_R   0.797785 0.489392 0.189064 -0.076606
C31   C     C_R   0.705829 0.633392 0.843251 0.017197
C32   C     C_R   0.733462 0.395980 0.179881 -0.120448
C33   C     C_R   0.674471 0.394902 0.230300 -0.053048
C34   C     C_R   0.680170 0.487188 0.288888 -0.146796
C35   C     C_R   0.139113 0.499763 0.859687 0.879782
C36   C     C_R   0.733188 0.569759 0.281815 -0.133121
C37   C     C_3   0.775365 0.683639 0.321809 0.835896
C38   C     C_3   0.847927 0.684422 0.279001 -0.306482
C39   C     C_R   0.161885 0.947721 0.247387 0.059424
C40   C     C_R   0.197443 0.891851 0.207357 -0.266727
C41   C     C_R   0.291298 0.947948 0.234441 0.519735
C42   C     C_R   0.740147 0.579183 0.791666 -0.054923
C43   C     C_R   0.343483 0.055135 0.280523 -0.290004
C44   C     C_R   0.304890 0.108829 0.307870 -0.157977
C45   C     C_R   0.214391 0.053551 0.294166 -0.017882
C46   C     C_3   0.142161 0.056056 0.261918 -0.263034
C47   C     C_R   0.858938 0.497867 0.138870 0.867567
C48   C     C_3   0.082559 0.938653 0.213060 0.248940
C49   C     C_R   0.284207 0.565539 0.225693 0.023885
C50   C     C_R   0.192781 0.493034 0.192274 -0.175306
C51   C     C_R   0.155482 0.419669 0.213724 0.437278
C52   C     C_R   0.211420 0.418877 0.264196 -0.247260
C53   C     C_R   0.816046 0.600693 0.838031 -0.094799
C54   C     C_R   0.303028 0.496187 0.301437 -0.192385
C55   C     C_R   0.338023 0.570475 0.283286 0.076950
C56   C     C_3   0.384165 0.684834 0.348264 -0.002895
C57   C     C_3   0.330319 0.679073 0.280451 -0.560099
C58   C     C_R   0.281844 0.579232 0.836300 -0.078653
C59   C     C_R   0.139105 0.498613 0.139602 0.804616
C60   C     C_R   0.192055 0.500401 0.801717 -0.196254
C61   C     C_R   0.155373 0.418132 0.709777 0.319122
C62   C     C_R   0.209339 0.419601 0.655047 0.358578
C63   C     C_R   0.302088 0.496271 0.694347 -0.222662
C64   C     C_R   0.829025 0.521786 0.801776 -0.252568
C65   C     C_R   0.334890 0.570615 0.785991 -0.246869
C66   C     C_3   0.413907 0.633389 0.867544 0.842680
C67   C     C_3   0.354013 0.649584 0.925251 0.329668
C68   C     C_R   0.636495 0.497215 0.356442 0.847064
C69   C     C_R   0.359921 0.498400 0.639999 0.842491
C70   C     C_R   0.642675 0.780086 0.639822 0.771173
C71   C     C_R   0.868458 0.507672 0.859826 0.908560
C72   C     C_R   0.360171 0.220324 0.359320 0.868481
C73   C     C_R   0.360038 0.499984 0.359920 0.811906
C74   C     C_R   0.639423 0.498858 0.640729 0.890823
C75   C     C_R   0.793398 0.447583 0.708389 0.373239
C76   C     C_R   0.877269 0.701614 0.916132 0.454014
C77   C     C_R   0.853485 0.771787 0.953413 -0.158631
C78   C     C_R   0.764239 0.734073 0.921560 -0.139496
C79   C     C_3   0.906603 0.437417 0.663565 0.149856
C80   C     C_3   0.913173 0.476837 0.604754 -0.412368
C81   C     C_3   0.005392 0.524862 0.596968 -0.957185
C82   C     C_2   0.564729 0.895618 0.583464 0.339952
C83   C     C_2   0.675086 0.118968 0.707315 0.549711
C84   C     C_2   0.724985 0.299110 0.116168 0.358652
C85   C     C_2   0.606764 0.296609 0.219096 0.533033
C86   C     C_R   0.725632 0.434048 0.657180 0.343328
C87   C     C_3   0.642564 0.662669 0.273944 0.202302
C88   C     C_3   0.579655 0.561766 0.182106 -0.439105
C89   C     C_3   0.482886 0.518131 0.174582 -0.848088
C90   C     C_3   0.846651 0.741022 0.468902 0.066494
C91   C     C_3   0.817339 0.758122 0.550706 -0.294593
C92   C     C_3   0.865337 0.748339 0.609636 -1.019401
C93   C     C_2   0.941106 0.748335 0.340018 0.390964
C94   C     C_3   0.339063 0.878408 0.278306 0.127745
C95   C     C_3   0.401780 0.975350 0.372716 -0.517714
C96   C     C_3   0.407559 0.946943 0.437048 -0.790235
C97   C     C_R   0.699252 0.501214 0.697935 -0.176085
C98   C     C_3   0.024733 0.790786 0.927973 0.030582
C99   C     C_3   0.055608 0.728675 0.864154 -0.362617
C100  C     C_3   0.140286 0.797149 0.853655 -0.870459
C101  C     C_2   0.158606 0.089231 0.199463 0.394050
C102  C     C_3   0.943232 0.896594 0.217936 0.046576
C103  C     C_3   0.895132 0.912623 0.286006 -0.297074
C104  C     C_3   0.805553 0.884535 0.245583 -0.919150
C105  C     C_3   0.027291 0.394242 0.243292 0.172967
C106  C     C_3   0.999194 0.354463 0.301698 -0.390493
C107  C     C_3   0.946479 0.391088 0.353216 -0.955041
C108  C     C_R   0.759611 0.054370 0.720968 -0.104738
C109  C     C_2   0.363183 0.712559 0.434288 0.490155
C110  C     C_2   0.481308 0.747525 0.363428 0.326588
C111  C     C_2   0.922342 0.882711 0.024458 0.365663
C112  C     C_3   0.063786 0.255932 0.675957 0.113948
C113  C     C_3   0.966913 0.166667 0.644034 -0.333517
C114  C     C_3   0.958510 0.077558 0.640520 -0.957869
C115  C     C_3   0.115946 0.330681 0.513712 0.171348
C116  C     C_3   0.038723 0.217924 0.447020 -0.336378
C117  C     C_3   0.982724 0.203517 0.373686 -0.967757
C118  C     C_3   0.395222 0.471785 0.820250 0.111250
H1    H     H_    0.770046 0.108999 0.637773 0.167570
H2    H     H_    0.955260 0.501787 0.731677 0.120630
H3    H     H_    0.607932 0.811322 0.189010 0.281420
H4    H     H_    0.511691 0.734566 0.208072 0.264037
H5    H     H_    0.433415 0.821543 0.031329 0.062980
H6    H     H_    0.756510 0.844177 0.045515 0.077731
H7    H     H_    0.580325 0.614132 0.863161 0.159876
H8    H     H_    0.570364 0.220844 0.518488 0.117757
H9    H     H_    0.651303 0.255970 0.604512 0.190274
H10   H     H_    0.627858 0.161908 0.406652 0.191268
H11   H     H_    0.739060 0.247299 0.481646 0.247604
H12   H     H_    0.707270 0.144835 0.541424 0.303415
H13   H     H_    0.863812 0.412356 0.537004 0.242584
H14   H     H_    0.671884 0.062727 0.421473 0.246678
H15   H     H_    0.591244 0.060644 0.476778 0.278304
H16   H     H_    0.988286 0.173096 0.858282 0.092129
H17   H     H_    0.967203 0.058303 0.845307 0.140877
H18   H     H_    0.055267 0.271813 0.021206 0.253230
H19   H     H_    0.036914 0.159788 0.010342 0.276672
H20   H     H_    0.134156 0.155736 0.914696 0.275557
H21   H     H_    0.191610 0.276992 0.023127 0.282375
H22   H     H_    0.152406 0.268922 0.927214 0.257477
H23   H     H_    0.763314 0.810507 0.760895 0.059491
H24   H     H_    0.899477 0.536126 0.634160 0.216477
H25   H     H_    0.671343 0.930949 0.468494 0.047248
H26   H     H_    0.056488 0.587120 0.664074 0.269823
H27   H     H_    0.010190 0.558459 0.559051 0.280173
H28   H     H_    0.018447 0.465444 0.561429 0.258584
H29   H     H_    0.529114 0.832894 0.591406 0.068012
H30   H     H_    0.630779 0.091907 0.740623 0.075131
H31   H     H_    0.781154 0.295384 0.120983 0.111458
H32   H     H_    0.622900 0.244156 0.210529 0.055786
H33   H     H_    0.846800 0.694814 0.224014 0.182477
H34   H     H_    0.631147 0.719776 0.281944 0.194899
H35   H     H_    0.628920 0.654859 0.329286 0.242438
H36   H     H_    0.593105 0.576354 0.129694 0.232002
H37   H     H_    0.590744 0.502999 0.169229 0.241019
H38   H     H_    0.467407 0.500695 0.224989 0.287527
H39   H     H_    0.439676 0.445645 0.107227 0.254701
H40   H     H_    0.468483 0.573602 0.184259 0.266286
H41   H     H_    0.918690 0.801929 0.493858 0.161050
H42   H     H_    0.836510 0.665189 0.432697 0.136751
H43   H     H_    0.831417 0.836132 0.590253 0.236912
H44   H     H_    0.414534 0.095754 0.295745 0.201807
H45   H     H_    0.745190 0.700435 0.529345 0.231536
H46   H     H_    0.850999 0.670239 0.571717 0.273673
H47   H     H_    0.842509 0.760310 0.668013 0.250179
H48   H     H_    0.937891 0.807158 0.634090 0.278598
H49   H     H_    0.978881 0.831703 0.379023 0.100816
H50   H     H_    0.365886 0.832180 0.255055 0.156928
H51   H     H_    0.272275 0.830316 0.280177 0.138196
H52   H     H_    0.468651 0.020585 0.370022 0.237925
H53   H     H_    0.377323 0.024439 0.399674 0.231902
H54   H     H_    0.340816 0.900874 0.439608 0.291503
H55   H     H_    0.123512 0.097660 0.317378 0.203773
H56   H     H_    0.450712 0.018137 0.505096 0.273775
H57   H     H_    0.435985 0.902037 0.415661 0.274831
H58   H     H_    0.082132 0.860593 0.989264 0.152832
H59   H     H_    0.002123 0.818172 0.896638 0.131463
H60   H     H_    0.067802 0.690311 0.889421 0.224682
H61   H     H_    0.002806 0.669050 0.798070 0.201678
H62   H     H_    0.128823 0.833772 0.825780 0.258272
H63   H     H_    0.161422 0.750001 0.807651 0.261840
H64   H     H_    0.194335 0.858001 0.919144 0.279004
H65   H     H_    0.179287 0.055226 0.144076 0.053332
H66   H     H_    0.057430 0.890608 0.138949 0.092973
H67   H     H_    0.898639 0.817667 0.155668 0.163497
H68   H     H_    0.960175 0.954361 0.202925 0.153476
H69   H     H_    0.885251 0.865447 0.311131 0.252724
H70   H     H_    0.936458 0.994384 0.344080 0.209455
H71   H     H_    0.814108 0.932069 0.220929 0.251006
H72   H     H_    0.773127 0.898776 0.297105 0.276078
H73   H     H_    0.761925 0.801774 0.189235 0.272486
H74   H     H_    0.966957 0.370867 0.200294 0.193272
H75   H     H_    0.071024 0.480426 0.286376 0.116503
H76   H     H_    0.957255 0.268829 0.258836 0.262219
H77   H     H_    0.182122 0.360701 0.277944 0.221141
H78   H     H_    0.058993 0.382821 0.349625 0.215269
H79   H     H_    0.987169 0.476607 0.396669 0.276061
H80   H     H_    0.926895 0.361764 0.395486 0.269141
H81   H     H_    0.885439 0.361758 0.306331 0.261364
H82   H     H_    0.383730 0.696507 0.476927 0.029535
H83   H     H_    0.513089 0.821037 0.371955 0.076816
H84   H     H_    0.985626 0.907062 0.058391 0.057113
H85   H     H_    0.095786 0.285647 0.745245 0.116203
H86   H     H_    0.097077 0.226324 0.631487 0.174543
H87   H     H_    0.934260 0.194536 0.690264 0.250784
H88   H     H_    0.285161 0.702295 0.302594 0.230453
H89   H     H_    0.932101 0.138214 0.576557 0.218494
H90   H     H_    0.986100 0.044389 0.590458 0.273867
H91   H     H_    0.887664 0.016340 0.621159 0.297180
H92   H     H_    0.994286 0.104286 0.706789 0.242618
H93   H     H_    0.152209 0.362757 0.477070 0.162560
H94   H     H_    0.088790 0.374989 0.551247 0.118752
H95   H     H_    0.064700 0.170965 0.416182 0.229785
H96   H     H_    0.996403 0.189637 0.482589 0.227275
H97   H     H_    0.958319 0.252440 0.403180 0.265217
H98   H     H_    0.924874 0.121830 0.329471 0.277904
H99   H     H_    0.369036 0.710685 0.244847 0.166007
H100  H     H_    0.022511 0.223621 0.332953 0.286014
H101  H     H_    0.440129 0.452672 0.831236 0.208876
H102  H     H_    0.383018 0.447257 0.750290 0.147786
H103  H     H_    0.331400 0.430730 0.906583 0.252275
H104  H     H_    0.262114 0.419678 0.827650 0.233624
H105  H     H_    0.251352 0.267636 0.702712 0.271045
H106  H     H_    0.211549 0.248307 0.785960 0.262839
H107  H     H_    0.318917 0.275590 0.781881 0.286279
H108  H     H_    0.501869 0.858504 0.932614 0.175285
H109  H     H_    0.406254 0.750960 0.834412 0.130801
H110  H     H_    0.926006 0.383232 0.635576 0.190575
H111  H     H_    0.598225 0.840559 0.835519 0.283586
H112  H     H_    0.497798 0.744988 0.739921 0.226561
H113  H     H_    0.464513 0.874295 0.783535 0.271255
H114  H     H_    0.570591 0.916693 0.767210 0.250494
H115  H     H_    0.565636 0.970640 0.878780 0.300241
H116  H     H_    0.360168 0.618963 0.089496 0.170655
H117  H     H_    0.376866 0.728227 0.100552 0.153439
H118  H     H_    0.492798 0.645698 0.046786 0.258363
H119  H     H_    0.514980 0.756219 0.051389 0.245587
H120  H     H_    0.530234 0.844475 0.213683 0.271064
O1    O     O_3   0.000000 0.500000 0.000000 -0.515336
O2    O     O_R   0.323450 0.268330 0.384170 -0.620046
O3    O     O_R   0.444860 0.560620 0.384150 -0.607048
O4    O     O_R   0.055050 0.731580 0.115780 -0.615117
O5    O     O_R   0.615780 0.439200 0.555040 -0.602188
O6    O     O_R   0.323420 0.439190 0.384160 -0.640566
O7    O     O_R   0.615760 0.560630 0.676470 -0.641703
O8    O     O_R   0.615740 0.731500 0.676460 -0.675625
O9    O     O_R   0.444900 0.268330 0.384170 -0.634503
O10   O     O_R   0.615750 0.560630 0.384150 -0.662160
O11   O     O_R   0.323430 0.439200 0.555040 -0.613212
O12   O     O_R   0.055090 0.439280 0.823480 -0.636875
O13   O     O_R   0.884220 0.268410 0.823490 -0.648095
O14   O     O_R   0.176520 0.560720 0.944920 -0.583929
O15   O     O_R   0.884200 0.439290 0.115800 -0.686365
O16   O     O_R   0.176530 0.560720 0.115800 -0.648170
O17   O     O_R   0.884180 0.560710 0.944910 -0.604838
O18   O     O_R   0.055100 0.439290 0.115810 -0.643287
O19   O     O_R   0.884190 0.439280 0.823480 -0.607553
O20   O     O_3   0.819503 0.382537 0.665125 -0.603531
O21   O     O_2   0.524639 0.921201 0.560579 -0.593057
O22   O     O_2   0.688654 0.191532 0.707421 -0.571800
O23   O     O_R   0.884180 0.560710 0.115790 -0.630317
O24   O     O_2   0.654444 0.222225 0.057765 -0.561956
O25   O     O_2   0.531333 0.271311 0.215258 -0.564578
O26   O     O_3   0.731031 0.702647 0.277257 -0.684974
O27   O     O_3   0.802078 0.752777 0.416703 -0.613309
O28   O     O_2   0.975444 0.708345 0.345426 -0.586302
O29   O     O_3   0.334480 0.900931 0.215268 -0.611237
O30   O     O_3   0.960609 0.732160 0.953951 -0.650770
O31   O     O_2   0.148621 0.154565 0.210645 -0.542961
O32   O     O_3   0.018838 0.907973 0.253416 -0.616020
O33   O     O_3   0.065001 0.348108 0.186337 -0.628337
O34   O     O_R   0.176500 0.731590 0.115790 -0.603261
O35   O     O_2   0.323477 0.752410 0.456981 -0.574426
O36   O     O_2   0.525774 0.718117 0.368843 -0.587511
O37   O     O_2   0.911355 0.949432 0.043125 -0.514806
O38   O     O_3   0.067791 0.333829 0.673339 -0.623801
O39   O     O_3   0.174401 0.334725 0.567776 -0.627748
O40   O     O_3   0.441062 0.579996 0.883198 -0.658954
O41   O     O_3   0.490445 0.723140 0.879725 -0.621761
O42   O     O_3   0.335855 0.600136 0.970401 -0.631248
O43   O     O_2   0.313150 0.766207 0.965875 -0.550825
O44   O     O_2   0.679144 0.799091 0.935390 -0.529305
O45   O     O_R   0.884220 0.268420 0.944930 -0.604510
O46   O     O_2   0.562712 0.480797 0.779894 -0.631006
O47   O     O_3   0.689418 0.359470 0.565628 -0.621835
O48   O     O_3   0.894200 0.109927 0.911042 -0.563104
O49   O     O_2   0.820558 0.929914 0.886961 -0.462894
O50   O     O_2   0.715975 0.864235 0.493764 -0.523309
O51   O     O_3   0.499960 0.499910 0.499960 -0.510823
O52   O     O_R   0.615770 0.439200 0.384160 -0.616916
O53   O     O_R   0.444870 0.560630 0.676470 -0.635579
O54   O     O_R   0.615730 0.731500 0.555020 -0.597135
Zn1   Zn    Zn3+2 0.956630 0.413250 0.869870 0.984812
Zn2   Zn    Zn3+2 0.130130 0.586750 0.043370 0.990315
Zn3   Zn    Zn3+2 0.956630 0.413250 0.043380 0.979124
Zn4   Zn    Zn3+2 0.956610 0.586750 0.043370 1.014891
Zn5   Zn    Zn3+2 0.543330 0.586660 0.630080 0.966515
Zn6   Zn    Zn3+2 0.543320 0.586660 0.456570 0.997111
Zn7   Zn    Zn3+2 0.369830 0.413160 0.456580 0.993829
Zn8   Zn    Zn3+2 0.543350 0.413170 0.456590 1.009741

loop_
_geom_bond_atom_site_label_1
_geom_bond_atom_site_label_2
_ccdc_geom_bond_type
C105  O33   S    
C107  H81   S    
C55   C56   S    
C63   C65   A    
C96   H57   S    
C68   O52   A    
C112  H86   S    
C38   H33   S    
O54   Zn6   S    
C19   C20   S    
C5    O41   S    
C14   C31   S    
C87   C88   S    
C10   H3    S    
C91   H45   S    
C118  O40   S    
O51   Zn8   S    
C7    H115  S    
C82   H29   S    
C90   C91   S    
C17   H15   S    
C18   O48   S    
C89   H40   S    
C106  H76   S    
O1    Zn2   S    
C7    H113  S    
C45   C46   S    
C116  C117  S    
C65   C66   S    
C105  H75   S    
C94   O29   S    
C73   O6    A    
C29   C36   A    
C26   C27   S    
C102  H68   S    
C14   H7    S    
C96   H56   S    
C115  H94   S    
C110  H83   S    
O14   Zn2   S    
O51   Zn6   S    
C113  H89   S    
C114  H91   S    
C27   C28   S    
C36   C37   S    
C31   C42   A    
C37   C38   S    
C47   O15   A    
C51   O33   S    
C42   C53   A    
C10   H4    S    
C5    C6    S    
C53   C64   A    
O2    Zn7   S    
O1    Zn3   S    
C106  C107  S    
C58   C60   A    
C15   C16   S    
C98   C99   S    
C9    H118  S    
C49   C57   S    
C5    H108  S    
C77   C111  S    
C18   C19   S    
C71   O17   A    
C64   C71   S    
C20   H20   S    
C90   H41   S    
C117  H97   S    
C86   C97   A    
C33   C85   S    
C85   H32   S    
C23   O13   A    
C75   C86   A    
C1    C40   S    
C110  O36   D    
C9    H119  S    
C92   H47   S    
C64   C75   A    
C81   H26   S    
C95   C96   S    
C28   C83   S    
C98   O30   S    
C8    C9    S    
C15   H8    S    
C12   C78   S    
C22   H25   S    
C91   H43   S    
C87   H35   S    
C18   H16   S    
C62   O39   S    
C111  O37   D    
C100  H64   S    
C9    C10   S    
C61   C62   A    
C101  H65   S    
O19   Zn1   S    
C39   C45   A    
C84   H31   S    
C92   H46   S    
C10   H120  S    
C66   C67   S    
C59   O18   A    
C48   O32   S    
C47   O23   A    
C3    H103  S    
C80   H13   S    
C15   H9    S    
C59   O16   A    
C41   C43   A    
C105  H74   S    
O10   Zn6   S    
C94   C95   S    
C52   H77   S    
O34   Zn2   S    
C85   O25   D    
C94   H50   S    
C111  H84   S    
C56   C110  S    
C112  C113  S    
C8    O42   S    
C11   C67   S    
C33   C34   A    
C74   C97   S    
C7    H114  S    
C32   C84   S    
C46   C101  S    
C46   C48   S    
C102  H67   S    
C51   C52   A    
O13   Zn1   S    
C88   H37   S    
C63   C69   S    
C30   C47   S    
C18   H17   S    
C90   O27   S    
O52   Zn8   S    
C76   C77   A    
C99   H60   S    
C116  H96   S    
C42   C97   A    
O45   Zn3   S    
C91   C92   S    
C48   H66   S    
C74   O7    A    
C80   C81   S    
C89   H38   S    
C106  H78   S    
O1    Zn4   S    
O8    Zn5   S    
C14   O46   D    
C19   H18   S    
C4    H106  S    
C104  H73   S    
C101  O31   D    
C66   O40   S    
C35   O12   A    
C68   O10   A    
C5    H109  S    
C13   C24   A    
C60   C61   A    
C88   H36   S    
C29   C38   S    
C117  H98   S    
C43   C44   A    
C8    H117  S    
C99   H61   S    
C29   C30   A    
C16   H11   S    
C3    C118  S    
C92   H48   S    
C84   O24   D    
C54   C73   S    
C98   H58   S    
C58   C67   S    
C58   C65   A    
C99   C100  S    
C12   H6    S    
C75   O20   S    
C19   H19   S    
C104  H72   S    
C79   H2    S    
C2    C23   S    
C62   C63   A    
C72   O2    A    
C50   C51   A    
C46   H55   S    
C103  H69   S    
C117  H100  S    
C37   O27   S    
C4    H107  S    
C24   C25   A    
C98   H59   S    
O4    Zn4   S    
C100  H63   S    
C2    C13   A    
C21   O49   D    
C56   C109  S    
C6    C7    S    
C22   O50   D    
C70   O8    A    
O1    Zn1   S    
C74   O5    A    
C40   C41   A    
O11   Zn7   S    
C49   C50   A    
C3    H104  S    
C81   H27   S    
C87   H34   S    
C76   O30   S    
C118  H102  S    
C2    C108  A    
C86   O47   S    
C21   C24   S    
C6    H111  S    
C53   C76   A    
C56   C57   S    
C50   C59   S    
C26   C108  A    
C3    C4    S    
C100  H62   S    
C66   O41   S    
C79   H110  S    
C118  H101  S    
C44   C45   A    
C72   O9    A    
C31   C78   A    
C107  H79   S    
C113  C114  S    
C83   H30   S    
C54   C55   A    
C102  O32   S    
C69   O53   A    
O15   Zn3   S    
C17   H12   S    
C79   O20   S    
C27   C82   S    
C11   H5    S    
C103  H70   S    
C112  O38   S    
O17   Zn4   S    
O16   Zn2   S    
C28   H1    S    
O18   Zn3   S    
C89   H39   S    
O3    Zn6   S    
C93   O28   D    
C69   O11   A    
C71   O19   A    
C4    H105  S    
C105  C106  S    
O5    Zn8   S    
O51   Zn7   S    
C80   H24   S    
C115  H93   S    
C70   O54   A    
C22   C27   S    
O51   Zn5   S    
C32   C33   A    
C114  H92   S    
C6    H112  S    
C25   C26   A    
C37   O26   S    
C21   H23   S    
C94   H51   S    
C49   C55   A    
C116  H95   S    
C30   C32   A    
C23   O45   A    
C83   O22   D    
C115  O39   S    
C20   H22   S    
C16   C17   S    
O9    Zn8   S    
C57   H99   S    
C28   C108  S    
C104  H71   S    
C57   H88   S    
C38   C93   S    
C1    O34   A    
C35   O14   A    
C15   O47   S    
C61   O38   S    
C114  H90   S    
C52   C54   A    
C44   C72   S    
C34   C36   A    
C16   H10   S    
C90   H42   S    
C102  C103  S    
O53   Zn5   S    
C95   H52   S    
C107  H80   S    
C41   O29   S    
C1    O4    A    
C82   O21   D    
C79   C80   S    
C39   C40   A    
C43   H44   S    
O7    Zn5   S    
C13   O48   S    
C73   O3    A    
C88   C89   S    
C93   H49   S    
C81   H28   S    
C96   H54   S    
O23   Zn4   S    
C20   H21   S    
C103  C104  S    
O12   Zn1   S    
C11   O43   D    
C77   C78   A    
C35   C60   S    
C109  H82   S    
C25   C70   S    
C12   O44   D    
C112  H85   S    
C67   O42   S    
C34   C68   S    
C95   H53   S    
C87   O26   S    
C109  O35   D    
C115  C116  S    
O6    Zn7   S    
C113  H87   S    
C39   C48   S    
C17   H14   S    
C8    H116  S    
