data_mof_unit_35203.cif
_audit_creation_date              2013-03-05T16:00:22-0500
_audit_creation_method            fapswitch 2.2
_symmetry_space_group_name_H-M    P1
_symmetry_Int_Tables_number       1
_space_group_crystal_system       triclinic
_cell_length_a                    8.317474
_cell_length_b                    12.708179
_cell_length_c                    27.026988
_cell_angle_alpha                 97.483262
_cell_angle_beta                  91.744294
_cell_angle_gamma                 81.784963
_cell_volume                      2803.15231262

loop_
_atom_site_label
_atom_site_type_symbol
_atom_site_description
_atom_site_fract_x
_atom_site_fract_y
_atom_site_fract_z
_atom_type_partial_charge
P1    P     P_3+3 0.072810 0.589830 0.610360 0.559789
O1    O     O_2   0.907040 0.557650 0.617910 -0.374420
O2    O     O_3   0.139040 0.557570 0.557730 -0.285391
O3    O     O_3   0.684960 0.360550 0.588460 -0.407134
O4    O     O_2   0.837581 0.423828 0.671792 -0.383403
O5    O     O_3   0.029836 0.730167 0.617738 -0.538793
O6    O     O_3   0.674836 0.269848 0.679531 -0.498590
H1    H     H_    0.731491 0.178360 0.610904 0.135471
C1    C     C_3   0.661283 0.082072 0.663217 -0.991557
H2    H     H_    0.630852 0.017662 0.634086 0.211144
H3    H     H_    0.788283 0.060702 0.676113 0.256065
P2    P     P_3+3 0.661990 0.251250 0.462170 0.520822
P3    P     P_3+3 0.142121 0.167393 0.564164 0.477726
O7    O     O_2   0.841490 0.235060 0.476710 -0.409119
O8    O     O_3   0.099640 0.305100 0.564190 -0.343475
O9    O     O_2   0.030365 0.116615 0.524209 -0.372798
O10   O     O_3   0.653497 0.204334 0.398265 -0.650029
O11   O     O_3   0.074445 0.134997 0.620090 -0.538946
C2    C     C_3   0.195226 0.147791 0.656841 0.163528
H4    H     H_    0.228378 0.230419 0.660808 0.107740
H5    H     H_    0.304171 0.087617 0.647422 0.085426
C3    C     C_3   0.129280 0.128729 0.706373 0.062327
H6    H     H_    0.026813 0.192328 0.718199 0.169083
H7    H     H_    0.084917 0.049742 0.702177 0.123583
C4    C     C_3   0.201152 0.221635 0.418173 1.046455
H8    H     H_    0.086697 0.215346 0.435949 -0.026784
C5    C     C_3   0.292440 0.108598 0.404985 -0.126308
H9    H     H_    0.421813 0.111837 0.398772 0.176485
H10   H     H_    0.284307 0.061089 0.436202 0.115675
Ba1   Ba    Ba6+2 0.859560 0.448380 0.523550 1.681979
C6    C     C_3   0.144924 0.776843 0.649250 0.352927
H11   H     H_    0.174021 0.847893 0.633177 0.132491
H12   H     H_    0.261337 0.723565 0.652510 0.148394
C7    C     C_3   0.072338 0.815221 0.700493 -0.914021
H13   H     H_    0.963689 0.875957 0.697291 0.218732
H14   H     H_    0.163273 0.851572 0.725593 0.300103
H15   H     H_    0.035257 0.746936 0.716730 0.273104
C8    C     C_3   0.706752 0.270846 0.366853 0.627841
H16   H     H_    0.752818 0.342535 0.387119 -0.002021
C9    C     C_3   0.837868 0.202671 0.334260 0.377194
H17   H     H_    0.934584 0.169032 0.358656 0.073379
H18   H     H_    0.788458 0.134393 0.311945 0.122310
P4    P     P_3+3 0.116900 0.410080 0.389630 0.653354
O12   O     O_2   0.282660 0.442310 0.382060 -0.271335
O13   O     O_3   0.050670 0.442340 0.442260 -0.302249
O14   O     O_3   0.504750 0.639360 0.411530 -0.322901
O15   O     O_3   0.167384 0.271050 0.374942 -0.535599
P5    P     P_3+3 0.049311 0.835360 0.437767 0.539143
O16   O     O_3   0.618400 0.630290 0.524520 -0.285705
O17   O     O_3   0.090070 0.694820 0.435810 -0.307297
O18   O     O_2   0.199827 0.882328 0.461273 -0.374082
O19   O     O_3   0.041583 0.868350 0.376638 -0.507140
Ba2   Ba    Ba6+2 0.330270 0.551530 0.476440 1.725289
P6    P     P_3+3 0.672593 0.389599 0.653521 0.469383
C10   C     C_3   0.643317 0.188136 0.641860 0.513570
H19   H     H_    0.517237 0.206159 0.627698 -0.005281
H20   H     H_    0.578762 0.088020 0.695207 0.310424
O20   O     O_3   0.571310 0.369620 0.475470 -0.302970
C11   C     C_3   0.629744 0.736818 0.633626 0.145623
H21   H     H_    0.629703 0.648830 0.628058 0.126539
H22   H     H_    0.742103 0.758300 0.619296 0.108596
C12   C     C_3   0.624483 0.776227 0.689333 0.329065
H23   H     H_    0.736092 0.739647 0.707688 0.054543
H24   H     H_    0.618716 0.864822 0.695591 0.108505
P7    P     P_3+3 0.526708 0.763578 0.545091 0.502976
O21   O     O_2   0.348200 0.764910 0.523260 -0.316401
O22   O     O_3   0.493866 0.785894 0.609521 -0.605575
C13   C     C_3   0.051120 0.774201 0.342678 0.392569
H25   H     H_    0.155122 0.715456 0.351801 0.156531
H26   H     H_    0.936822 0.738562 0.342766 0.047469
C14   C     C_3   0.079130 0.799621 0.290427 -0.765766
H27   H     H_    0.197990 0.829196 0.289031 0.292347
H28   H     H_    0.080861 0.725810 0.263404 0.213642
H29   H     H_    0.981642 0.861731 0.279537 0.258862
P8    P     P_3+3 0.519447 0.613202 0.345937 0.519612
C15   C     C_3   0.562162 0.812844 0.358434 0.402699
H30   H     H_    0.669756 0.780307 0.379839 0.068172
O23   O     O_2   0.362211 0.570687 0.325638 -0.411754
O24   O     O_3   0.509845 0.735460 0.321777 -0.521859
H31   H     H_    0.461393 0.845686 0.384604 0.137821
H32   H     H_    0.715464 0.871798 0.308214 0.255713
C16   C     C_3   0.611592 0.903202 0.333135 -0.869272
H33   H     H_    0.647894 0.966931 0.361612 0.217681
H34   H     H_    0.509873 0.937707 0.310129 0.311583
C17   C     C_R   0.043615 0.416290 0.178207 0.566986
O25   O     O_2   0.087463 0.336701 0.198770 -0.514900
N1    N     N_R   0.951986 0.504820 0.204247 -0.168841
C18   C     C_R   0.900587 0.594398 0.180456 0.501532
C19   C     C_2   0.748183 0.524579 0.270000 -0.167347
C20   C     C_3   0.701496 0.516433 0.323164 0.235355
C21   C     C_1   0.989334 0.476523 0.342631 0.194433
C22   C     C_2   0.032703 0.475024 0.295408 -0.169985
C23   C     C_2   0.906491 0.502775 0.256055 0.122113
C24   C     C_R   0.030439 0.505986 0.102895 -0.059476
C25   C     C_R   0.084638 0.416120 0.127591 -0.090701
C26   C     C_R   0.177272 0.327147 0.101012 -0.064942
C27   C     C_R   0.937889 0.595667 0.129701 -0.048961
C28   C     C_2   0.845358 0.524315 0.358009 0.004321
H35   H     H_    0.158794 0.452312 0.284877 0.208406
H36   H     H_    0.220396 0.256515 0.118765 0.176170
C29   C     C_2   0.354113 0.484131 0.640822 -0.432331
C30   C     C_R   0.204290 0.416399 0.973882 0.039871
C31   C     C_R   0.044382 0.595780 0.975038 0.041748
C32   C     C_R   0.142840 0.506100 0.948984 0.088756
C33   C     C_R   0.304608 0.330408 0.946392 -0.205970
C34   C     C_R   0.341349 0.331858 0.896516 -0.035980
C35   C     C_R   0.280245 0.418985 0.871343 -0.074044
C36   C     C_R   0.180483 0.506200 0.897445 -0.067325
C37   C     C_R   0.118868 0.593688 0.872029 -0.060986
C38   C     C_R   0.158157 0.593185 0.821257 0.543124
N2    N     N_R   0.256543 0.507042 0.795836 -0.174283
C39   C     C_R   0.317634 0.420523 0.820602 0.550292
C40   C     C_2   0.455775 0.492828 0.729117 -0.075909
C41   C     C_3   0.499662 0.495179 0.675040 0.199267
C42   C     C_1   0.208255 0.526742 0.656936 0.218585
C43   C     C_2   0.168078 0.526537 0.704269 -0.224272
C44   C     C_2   0.298071 0.508128 0.743559 0.156515
O26   O     O_2   0.404276 0.344313 0.798420 -0.522521
C45   C     C_R   0.164260 0.415531 0.025064 0.042702
C46   C     C_R   0.068452 0.506105 0.051384 0.086698
C47   C     C_R   0.009994 0.596758 0.026777 0.039848
C48   C     C_R   0.216285 0.326689 0.051160 -0.196318
H37   H     H_    0.552864 0.483559 0.756651 0.142397
H38   H     H_    0.418913 0.263596 0.877615 0.188471
H39   H     H_    0.358909 0.260281 0.962341 0.132131
H40   H     H_    0.286581 0.254104 0.034081 0.130237
O27   O     O_2   0.822899 0.673570 0.203535 -0.590068
C49   C     C_R   0.884395 0.685179 0.105271 -0.072350
H41   H     H_    0.653009 0.540557 0.242479 0.172901
H42   H     H_    0.814120 0.755858 0.124888 0.173789
C50   C     C_R   0.982988 0.681572 0.948019 -0.199608
C51   C     C_R   0.019554 0.680411 0.897932 -0.070460
O28   O     O_2   0.106709 0.670541 0.800016 -0.593323
C52   C     C_R   0.919247 0.685899 0.055205 -0.200387
H43   H     H_    0.904272 0.751327 0.964253 0.130349
H44   H     H_    0.969033 0.748649 0.879441 0.173319
H45   H     H_    0.041500 0.541123 0.714940 0.170985
H46   H     H_    0.873853 0.758863 0.040130 0.130814
H47   H     H_    0.370479 0.444969 0.602771 0.152362
C53   C     C_R   0.787961 0.832737 0.501212 0.190690
C54   C     C_R   0.443508 0.192478 0.527841 -0.407360
C55   C     C_R   0.412758 0.012988 0.542130 -0.207173
C56   C     C_R   0.352616 0.120978 0.545344 0.135437
C57   C     C_R   0.581221 0.155087 0.498760 0.318904
C58   C     C_R   0.644263 0.043653 0.494789 -0.088481
C59   C     C_R   0.561791 0.973399 0.519070 -0.086194
C60   C     C_R   0.631077 0.865428 0.519708 0.063652
C61   C     C_R   0.861306 0.895172 0.472288 0.156759
C62   C     C_R   0.786816 0.999570 0.467802 -0.273300
H48   H     H_    0.341495 0.961424 0.558047 0.178669
H49   H     H_    0.844917 0.045799 0.444687 0.198732
H50   H     H_    0.398249 0.277200 0.533104 0.201690
Cl1   Cl    Cl    0.215801 0.040857 0.349431 -0.595811
Cl2   Cl    Cl    0.541807 0.308490 0.326387 -0.551058
F1    F     F_    0.900105 0.262516 0.302209 -0.647352
F2    F     F_    0.491195 0.747381 0.710765 -0.687122
Cl3   Cl    Cl    0.283386 0.128975 0.753463 -0.597077
Cl4   Cl    Cl    0.823022 0.599211 0.416902 -0.567711
Cl5   Cl    Cl    0.903674 0.720230 0.520530 -0.461329
F3    F     F_    0.293789 0.279887 0.451181 -0.721263

loop_
_geom_bond_atom_site_label_1
_geom_bond_atom_site_label_2
_geom_bond_distance
_ccdc_geom_bond_type
C5    Cl1   1.778675 S    
C8    C9    1.518403 S    
C10   H19   1.108349 S    
Ba2   O20   2.833226 S    
C5    H10   1.108493 S    
C7    H15   1.106640 S    
O2    Ba2   2.737988 S    
C35   C39   1.418601 A    
C55   C59   1.401866 A    
Ba1   O13   2.737385 S    
N2    C39   1.387946 Am   
C15   O24   1.407222 S    
O6    C10   1.403492 S    
N1    C18   1.388154 Am   
C53   C61   1.393441 A    
H32   C16   1.107337 S    
C29   H47   1.086146 S    
C17   O25   1.222098 D    
C43   C44   1.507946 S    
O16   P7    1.780780 S    
P3    O11   1.746749 S    
C2    H5    1.111747 S    
C7    H13   1.110490 S    
C18   O27   1.222359 D    
C50   H43   1.075785 S    
C62   H49   1.078929 S    
C53   Cl5   1.736007 S    
C8    H16   1.110775 S    
C34   C35   1.400533 A    
C42   C43   1.332418 D    
P6    C41   1.871760 S    
C19   H41   1.085671 S    
C36   C37   1.409006 A    
C53   C60   1.398533 A    
C30   C33   1.417077 A    
P1    O1    1.519846 D    
C38   N2    1.386517 Am   
P1    Ba1   3.382495 S    
C12   H24   1.110844 S    
P8    C20   1.873861 S    
C11   O22   1.396500 S    
Ba1   O20   2.931855 S    
C24   C46   1.437234 A    
O12   Ba2   2.786273 S    
P4    Ba2   3.383074 S    
P5    O18   1.547098 D    
C28   Cl4   1.745506 S    
C13   H25   1.103101 S    
P7    O22   1.750878 S    
P2    O10   1.754976 S    
C35   C36   1.408467 A    
C6    H12   1.107570 S    
C9    F1    1.381347 S    
C1    C10   1.520573 S    
C47   C52   1.416885 A    
P7    C60   1.867658 S    
P4    O15   1.752418 S    
C1    H2    1.110478 S    
C4    O15   1.399682 S    
C7    H14   1.110242 S    
C18   C27   1.418214 A    
O19   C13   1.404105 S    
P2    Ba1   3.414123 S    
P5    O17   1.763807 S    
O5    C6    1.405185 S    
O13   Ba2   2.940171 S    
C11   H21   1.108707 S    
C29   C41   1.512328 S    
O7    Ba1   2.860974 S    
C27   C49   1.400374 A    
H1    C10   1.112444 S    
O14   P8    1.765291 S    
C58   C59   1.432936 A    
C17   N1    1.386814 Am   
Ba1   Ba2   4.568639 S    
C11   H22   1.104701 S    
O17   Ba2   2.803708 S    
C59   C60   1.412326 A    
P1    O5    1.754331 S    
O4    P6    1.545843 D    
C2    C3    1.522764 S    
C61   C62   1.400407 A    
C54   C57   1.399113 A    
C15   C16   1.520428 S    
C21   C22   1.333855 D    
C14   H28   1.109878 S    
O11   C2    1.402182 S    
C24   C27   1.408719 A    
C4    H8    1.096839 S    
P4    C21   1.842146 S    
P2    C57   1.874171 S    
P1    O2    1.525154 S    
C48   H40   1.075731 S    
O2    Ba1   2.939325 S    
P4    O12   1.520137 D    
C12   H23   1.110254 S    
C49   C52   1.393889 A    
C1    H3    1.109643 S    
C6    H11   1.110647 S    
C40   H37   1.085746 S    
C51   H44   1.083651 S    
C37   C51   1.400409 A    
C6    C7    1.520280 S    
C15   H30   1.109747 S    
C30   C32   1.423343 A    
Ba2   O21   2.861285 S    
P4    O13   1.525159 S    
C40   C44   1.359870 D    
C9    H17   1.098855 S    
Ba1   O16   2.833819 S    
P2    O7    1.524247 D    
P7    O21   1.579539 D    
C16   H34   1.107991 S    
P3    O8    1.735029 S    
C29   C42   1.318210 D    
C3    H7    1.109150 S    
C8    Cl2   1.778916 S    
C50   C51   1.394188 A    
C31   C47   1.433926 A    
C32   C36   1.437162 A    
C46   C47   1.423264 A    
O8    Ba1   2.803148 S    
C40   C41   1.522219 S    
C45   C48   1.417242 A    
C11   C12   1.523448 S    
O3    P6    1.752121 S    
P5    C61   1.859554 S    
C4    F3    1.373570 S    
C15   H31   1.111838 S    
C57   C58   1.429515 A    
C49   H42   1.083648 S    
C52   H46   1.075784 S    
C14   H29   1.109143 S    
C45   C46   1.423038 A    
C3    Cl3   1.778617 S    
C33   H39   1.075732 S    
C4    C5    1.529208 S    
C33   C34   1.394265 A    
C26   H36   1.083613 S    
C26   C48   1.394540 A    
O1    Ba1   2.785872 S    
C55   H48   1.079695 S    
C2    H4    1.114337 S    
C54   C56   1.396766 A    
C25   C26   1.400461 A    
P2    O20   1.585031 S    
C14   H27   1.110041 S    
C37   C38   1.419217 A    
C39   O26   1.221606 D    
C17   C25   1.419610 A    
P8    O24   1.752787 S    
C13   C14   1.520931 S    
O16   Ba2   2.931003 S    
N1    C23   1.465952 S    
O14   Ba2   2.749086 S    
C9    H18   1.111763 S    
C22   C23   1.510468 S    
C12   F2    1.381831 S    
C1    H20   1.108431 S    
O10   C8    1.395785 S    
P3    C56   1.831075 S    
C21   C28   1.316190 D    
C19   C23   1.360632 D    
C24   C25   1.409289 A    
P8    O23   1.544119 D    
C58   C62   1.417070 A    
N2    C44   1.466947 S    
P5    O19   1.753762 S    
C22   H35   1.083731 S    
C13   H26   1.110121 S    
C16   H33   1.110320 S    
C43   H45   1.083851 S    
P3    O9    1.541211 D    
C34   H38   1.083688 S    
C31   C32   1.422910 A    
C55   C56   1.384397 A    
C3    H6    1.110941 S    
C38   O28   1.221028 D    
P1    C42   1.847958 S    
O6    P6    1.755043 S    
C19   C20   1.519964 S    
C31   C50   1.417138 A    
C20   C28   1.506581 S    
O3    Ba1   2.749687 S    
C30   C45   1.434401 A    
C54   H50   1.081058 S    
C5    H9    1.101476 S    
