data_mof_unit_15588.cif
_audit_creation_date              2013-03-05T15:54:09-0500
_audit_creation_method            fapswitch 2.2
_symmetry_space_group_name_H-M    P1
_symmetry_Int_Tables_number       1
_space_group_crystal_system       triclinic
_cell_length_a                    8.257977
_cell_length_b                    15.014451
_cell_length_c                    16.951528
_cell_angle_alpha                 98.377968
_cell_angle_beta                  94.696032
_cell_angle_gamma                 97.318732
_cell_volume                      2051.60190844

loop_
_atom_site_label
_atom_site_type_symbol
_atom_site_description
_atom_site_fract_x
_atom_site_fract_y
_atom_site_fract_z
_atom_type_partial_charge
P1    P     P_3+3 0.987060 0.708150 0.571770 0.521906
O1    O     O_2   0.162570 0.722330 0.548140 -0.271154
O2    O     O_3   0.890730 0.608900 0.545420 -0.455622
O3    O     O_3   0.394120 0.666550 0.400060 -0.342299
O4    O     O_2   0.307654 0.825608 0.458841 -0.353290
O5    O     O_3   0.019402 0.735514 0.676255 -0.538087
O6    O     O_3   0.377361 0.814404 0.311854 -0.555330
H1    H     H_    0.324816 0.681674 0.253102 0.156361
C1    C     C_3   0.371815 0.775541 0.170672 -0.798809
H2    H     H_    0.377522 0.718894 0.121652 0.238565
H3    H     H_    0.247364 0.795816 0.164876 0.275257
P2    P     P_3+3 0.349540 0.428350 0.313090 0.488541
P3    P     P_3+3 0.937003 0.619223 0.253198 0.480986
O7    O     O_2   0.182040 0.455740 0.301680 -0.370202
O8    O     O_3   0.971530 0.620720 0.357690 -0.380190
O9    O     O_2   0.060612 0.562134 0.213753 -0.368467
O10   O     O_3   0.305700 0.309451 0.286082 -0.562116
O11   O     O_3   0.998061 0.729216 0.233984 -0.527130
C2    C     C_3   0.946713 0.791687 0.293573 0.459379
H4    H     H_    0.019568 0.793096 0.351962 0.129903
H5    H     H_    0.814028 0.774653 0.300053 0.008188
C3    C     C_3   0.974680 0.886200 0.270430 -0.950799
H6    H     H_    0.107133 0.906443 0.265549 0.278368
H7    H     H_    0.903728 0.886775 0.211992 0.280299
C4    C     C_3   0.890165 0.276252 0.278095 0.413429
H8    H     H_    0.858061 0.306911 0.224134 0.107133
H9    H     H_    0.002089 0.318488 0.308499 0.125464
C5    C     C_3   0.914575 0.178253 0.249994 -1.044358
H10   H     H_    0.798486 0.139227 0.218174 0.280607
H11   H     H_    0.011120 0.176949 0.208147 0.266124
H12   H     H_    0.951680 0.145279 0.301672 0.233648
Ba1   Ba    Ba6+2 0.163630 0.544320 0.462600 1.625098
C6    C     C_3   0.047802 0.658629 0.709971 0.424233
H13   H     H_    0.142235 0.624236 0.680088 0.104126
H14   H     H_    0.932752 0.610245 0.704697 0.110592
C7    C     C_3   0.107225 0.689420 0.798351 -0.899484
H15   H     H_    0.225011 0.735728 0.805162 0.308818
H16   H     H_    0.124208 0.630141 0.828437 0.205479
H17   H     H_    0.016507 0.727033 0.828488 0.246472
C8    C     C_3   0.302071 0.265011 0.353553 0.490823
H18   H     H_    0.180187 0.261922 0.374947 -0.025134
H19   H     H_    0.390133 0.298704 0.404299 0.151664
C9    C     C_3   0.337544 0.168259 0.330062 -0.989215
H20   H     H_    0.239953 0.128987 0.284962 0.257076
H21   H     H_    0.343385 0.133695 0.383637 0.214049
H22   H     H_    0.456004 0.169428 0.303508 0.281434
P4    P     P_3+3 0.823240 0.291840 0.428170 0.520118
O12   O     O_2   0.647720 0.277620 0.451840 -0.355518
O13   O     O_3   0.919570 0.391090 0.454510 -0.348125
O14   O     O_3   0.416180 0.333440 0.599870 -0.431010
O15   O     O_3   0.758974 0.278784 0.325024 -0.526222
P5    P     P_3+3 0.866659 0.373245 0.745776 0.489827
O16   O     O_3   0.378690 0.546410 0.598100 -0.369333
O17   O     O_3   0.838770 0.379270 0.642240 -0.331809
O18   O     O_2   0.747835 0.435990 0.780092 -0.317639
O19   O     O_3   0.766974 0.267283 0.764834 -0.527965
Ba2   Ba    Ba6+2 0.646550 0.455670 0.537340 1.645683
P6    P     P_3+3 0.432559 0.785368 0.405681 0.498538
C10   C     C_3   0.407202 0.745713 0.251615 0.406338
H23   H     H_    0.536969 0.733310 0.258319 0.023291
H24   H     H_    0.463358 0.834402 0.164481 0.260140
O20   O     O_3   0.431610 0.453580 0.401830 -0.420119
C11   C     C_3   0.610028 0.742260 0.720496 0.987855
H25   H     H_    0.694448 0.702861 0.687081 -0.028429
C12   C     C_3   0.703702 0.799531 0.796458 -0.790897
H26   H     H_    0.734212 0.757743 0.842218 0.256409
H27   H     H_    0.820363 0.835536 0.781618 0.236303
H28   H     H_    0.629479 0.850180 0.824064 0.289848
P7    P     P_3+3 0.452492 0.571605 0.701293 0.514732
O21   O     O_2   0.628250 0.544210 0.698290 -0.338708
O22   O     O_3   0.471692 0.688519 0.740418 -0.594351
H29   H     H_    0.933847 0.936397 0.316583 0.215483
C13   C     C_3   0.868542 0.200055 0.778499 0.769775
C14   C     C_3   0.990615 0.231385 0.853497 -1.118594
H30   H     H_    0.930757 0.268918 0.901688 0.297091
H31   H     H_    0.037304 0.173444 0.877437 0.287298
H32   H     H_    0.097476 0.274333 0.839169 0.207762
P8    P     P_3+3 0.384997 0.216019 0.594004 0.526690
C15   C     C_3   0.383727 0.270643 0.745285 0.521289
H33   H     H_    0.255476 0.283239 0.732754 -0.014620
O23   O     O_2   0.528691 0.179659 0.552329 -0.334082
O24   O     O_3   0.413064 0.193890 0.692756 -0.421725
H34   H     H_    0.469101 0.331938 0.739195 0.137016
H35   H     H_    0.348308 0.189566 0.840943 0.272867
C16   C     C_3   0.412491 0.256408 0.832172 -0.822008
H36   H     H_    0.368813 0.311466 0.872232 0.189849
H37   H     H_    0.544861 0.261144 0.850626 0.307214
C17   C     C_R   0.646579 0.831680 0.449674 0.202597
H38   H     H_    0.663410 0.709786 0.497768 0.192545
H39   H     H_    0.519394 0.964851 0.384090 0.180768
C18   C     C_R   0.889822 0.795119 0.522442 0.256088
C19   C     C_R   0.086226 0.230645 0.510145 -0.419062
C20   C     C_R   0.182498 0.169796 0.538576 0.238505
C21   C     C_R   0.121814 0.077109 0.528497 -0.194389
C22   C     C_R   0.961004 0.043446 0.491334 0.090801
C23   C     C_R   0.868095 0.106423 0.457994 0.041263
C24   C     C_R   0.888066 0.949991 0.487838 0.031333
C25   C     C_R   0.724662 0.921614 0.449576 -0.045500
C26   C     C_R   0.642114 0.983944 0.413900 -0.166542
C27   C     C_R   0.713113 0.073585 0.417189 -0.146586
C28   C     C_R   0.968957 0.884281 0.523321 -0.221297
C29   C     C_R   0.729729 0.772371 0.488023 -0.307667
C30   C     C_R   0.931653 0.201190 0.467881 0.207788
H40   H     H_    0.090958 0.900758 0.553880 0.188108
H41   H     H_    0.133822 0.302333 0.519732 0.146809
H42   H     H_    0.201255 0.033826 0.552467 0.166131
H43   H     H_    0.643180 0.117458 0.388185 0.165278
C31   C     C_R   0.626898 0.520243 0.258584 -0.424210
C32   C     C_R   0.463167 0.484812 0.237645 0.216097
C33   C     C_R   0.391824 0.491347 0.160602 -0.249112
C34   C     C_R   0.480693 0.542547 0.109851 0.135693
C35   C     C_R   0.644710 0.585671 0.138106 -0.259233
C36   C     C_R   0.720655 0.569542 0.211095 0.057072
C37   C     C_R   0.392615 0.519416 0.855409 0.412107
C38   C     C_R   0.341487 0.507948 0.771408 0.104908
C39   C     C_R   0.278820 0.487141 0.908591 0.026912
N1    N     N_2   0.410267 0.552388 0.031615 0.011707
N2    N     N_2   0.325453 0.482434 0.992050 -0.028577
C40   C     C_R   0.187364 0.459717 0.741336 -0.566418
C41   C     C_R   0.075280 0.428837 0.792080 0.221756
C42   C     C_R   0.119618 0.445930 0.875523 -0.348186
H44   H     H_    0.266714 0.460005 0.141504 0.181031
H45   H     H_    0.031680 0.424051 0.915143 0.204225
H46   H     H_    0.150372 0.450846 0.677601 0.179613
S1    S     S_3+6 0.536425 0.818130 0.660267 -0.025834
O25   O     O_2   0.463556 0.761513 0.583070 -0.303456
O26   O     O_2   0.406378 0.864878 0.699496 -0.227074
O27   O     O_3   0.689712 0.895824 0.643976 -0.585799
H47   H     H_    0.636074 0.935915 0.611785 0.393573
S2    S     S_3+6 0.738636 0.101571 0.798401 0.030398
O28   O     O_2   0.659057 0.124508 0.873906 -0.239058
O29   O     O_2   0.607454 0.068203 0.730032 -0.201108
O30   O     O_3   0.850700 0.017954 0.811724 -0.528511
H48   H     H_    0.875453 0.992910 0.757525 0.375973
C43   C     C_2   0.948384 0.169526 0.703950 0.857923
O31   O     O_2   0.892731 0.186749 0.640014 -0.563322
O32   O     O_R   0.075437 0.116207 0.704571 -0.779902
H49   H     H_    0.112377 0.102631 0.759299 0.317578
S3    S     S_3+6 0.591141 0.575972 0.897090 -0.030533
O33   O     O_2   0.565007 0.664895 0.943838 -0.298918
O34   O     O_2   0.661838 0.516736 0.951363 -0.318119
O35   O     O_3   0.734527 0.600824 0.836808 -0.517791
H50   H     H_    0.839877 0.607976 0.871019 0.362607
C44   C     C_2   0.735313 0.652370 0.096226 1.238654
O36   O     O_2   0.688918 0.726123 0.094073 -0.646713
O37   O     O_R   0.881230 0.634024 0.064937 -0.730693
H51   H     H_    0.934452 0.685964 0.039556 0.327009
C45   C     C_2   0.691696 0.519665 0.338200 1.145496
O38   O     O_2   0.768842 0.460199 0.353923 -0.569837
O39   O     O_R   0.664252 0.589475 0.395436 -0.821074
H52   H     H_    0.677488 0.572833 0.449937 0.353573

loop_
_geom_bond_atom_site_label_1
_geom_bond_atom_site_label_2
_geom_bond_distance
_ccdc_geom_bond_type
C11   C12   1.529920 S    
C20   C21   1.398577 A    
H38   C29   1.067308 S    
C13   C14   1.532590 S    
H39   C26   1.079100 S    
C22   C23   1.439346 A    
O16   P7    1.774373 S    
O27   H47   0.990132 S    
C37   C38   1.430784 A    
P3    C36   1.885277 S    
O12   Ba2   2.850820 S    
P4    O13   1.580742 S    
C40   H46   1.082572 S    
C4    C5    1.523035 S    
C14   H31   1.110349 S    
P3    O11   1.749068 S    
C1    H24   1.110561 S    
C5    H10   1.110601 S    
C2    H5    1.111108 S    
C45   O39   1.375334 S    
O11   C2    1.405463 S    
P7    O21   1.560913 D    
H1    C10   1.109603 S    
S3    O35   1.667984 S    
P8    C20   1.848749 S    
C6    C7    1.522838 S    
O13   Ba2   2.945071 S    
C31   C32   1.385733 A    
O1    Ba1   2.850403 S    
P1    O1    1.532224 D    
C3    H29   1.109035 S    
P7    O22   1.766080 S    
C33   C34   1.421981 A    
P2    C32   1.882693 S    
P5    C41   1.871385 S    
C19   C30   1.397255 A    
C8    C9    1.521060 S    
P7    C38   1.858137 S    
C13   C43   1.512104 S    
C12   H27   1.109175 S    
C14   H32   1.090551 S    
P2    O10   1.760008 S    
S1    O27   1.677590 S    
Ba2   O21   2.880231 S    
C43   O31   1.217827 D    
C1    H2    1.107600 S    
O6    P6    1.749725 S    
P5    O18   1.535584 D    
C8    H19   1.096242 S    
C10   H23   1.110421 S    
P1    C18   1.877368 S    
O5    C6    1.397694 S    
P2    Ba1   3.441559 S    
O2    Ba1   2.944148 S    
Ba1   Ba2   4.505220 S    
C18   C28   1.410357 A    
O14   P8    1.735925 S    
O6    C10   1.402213 S    
C35   C36   1.407755 A    
P5    O17   1.768329 S    
C24   C25   1.432741 A    
C16   H37   1.102511 S    
P4    C30   1.893650 S    
C39   C42   1.412972 A    
P1    O5    1.749211 S    
Ba2   O20   2.779455 S    
C2    C3    1.521355 S    
C45   O38   1.208525 D    
C44   O37   1.398505 S    
C14   H30   1.110044 S    
O16   Ba2   2.922638 S    
P4    O15   1.760378 S    
C4    H8    1.110408 S    
C16   H36   1.107746 S    
C7    H17   1.107939 S    
P1    Ba1   3.410370 S    
C11   H25   1.108548 S    
P6    C17   1.866341 S    
P1    O2    1.580762 S    
O10   C8    1.406112 S    
C31   C36   1.387460 A    
S2    O29   1.501559 D    
C9    H20   1.108297 S    
C4    O15   1.396702 S    
P4    Ba2   3.410928 S    
P2    O20   1.570757 S    
P8    O24   1.756298 S    
C17   C29   1.392279 A    
P4    O12   1.532580 D    
S3    O33   1.500070 D    
C12   H28   1.111304 S    
C6    H13   1.105650 S    
O3    Ba1   2.849946 S    
C37   S3    1.785725 S    
H35   C16   1.109544 S    
C9    H21   1.110402 S    
C11   S1    1.767259 S    
O4    P6    1.547029 D    
C8    H18   1.095222 S    
C11   O22   1.406365 S    
C12   H26   1.099517 S    
C28   H40   1.076225 S    
C38   C40   1.398398 A    
C1    H3    1.109241 S    
S1    O25   1.487883 D    
C3    H7    1.110595 S    
P3    O9    1.546424 D    
S2    O30   1.681681 S    
C18   C29   1.380380 A    
O2    Ba2   2.838806 S    
Ba1   O16   2.779887 S    
C15   C16   1.522767 S    
C41   C42   1.409306 A    
O37   H51   1.013836 S    
C43   O32   1.398745 S    
C13   S2    1.803222 S    
C21   H42   1.076903 S    
C27   H43   1.074241 S    
O19   C13   1.424096 S    
C34   C35   1.436362 A    
O39   H52   0.992787 S    
O14   Ba2   2.849245 S    
C5    H12   1.107916 S    
O7    Ba1   2.880153 S    
C44   O36   1.221449 D    
O8    Ba1   2.755212 S    
C15   O24   1.409634 S    
C37   C39   1.442439 A    
C40   C41   1.396030 A    
C22   C24   1.445622 A    
C4    H9    1.095197 S    
O32   H49   1.009894 S    
C26   C27   1.389283 A    
C34   N1    1.439311 S    
C35   C44   1.473079 S    
C2    H4    1.111407 S    
P3    O8    1.767296 S    
S2    O28   1.501863 D    
P2    O7    1.498033 D    
Ba1   O20   2.923535 S    
C5    H11   1.109851 S    
C32   C33   1.410116 A    
C33   H44   1.081958 S    
C15   H34   1.108589 S    
S3    O34   1.503689 D    
P8    O23   1.547616 D    
O30   H48   0.988407 S    
C23   C27   1.398004 A    
C7    H16   1.106483 S    
C19   C20   1.396277 A    
C6    H14   1.108924 S    
C39   N2    1.449718 S    
C3    H6    1.110435 S    
C21   C22   1.419529 A    
C9    H22   1.109010 S    
C24   C28   1.434029 A    
Ba1   O13   2.838188 S    
C42   H45   1.081536 S    
C15   H33   1.108365 S    
C19   H41   1.081779 S    
C7    H15   1.108497 S    
C25   C26   1.402213 A    
C23   C30   1.433167 A    
O3    P6    1.758881 S    
S1    O26   1.503712 D    
O35   H50   0.990025 S    
C1    C10   1.521641 S    
N1    N2    1.254558 D    
C17   C25   1.420602 A    
P5    O19   1.781246 S    
C31   C45   1.412173 S    
O17   Ba2   2.755667 S    
