data_mof_unit_53830.cif
_audit_creation_date              2013-03-05T16:44:39-0500
_audit_creation_method            fapswitch 2.2
_symmetry_space_group_name_H-M    P1
_symmetry_Int_Tables_number       1
_space_group_crystal_system       triclinic
_cell_length_a                    27.089595
_cell_length_b                    10.646921
_cell_length_c                    9.874517
_cell_angle_alpha                 89.994413
_cell_angle_beta                  90.794821
_cell_angle_gamma                 90.448593
_cell_volume                      2847.65456107

loop_
_atom_site_label
_atom_site_type_symbol
_atom_site_description
_atom_site_fract_x
_atom_site_fract_y
_atom_site_fract_z
_atom_type_partial_charge
O1    O     O_R   0.500010 0.316790 0.614690 -0.613578
O2    O     O_R   0.500000 0.316760 0.385350 -0.592623
C1    C     C_R   0.503708 0.260255 0.500096 0.978851
O3    O     O_R   0.428760 0.500040 0.614660 -0.586844
O4    O     O_R   0.428750 0.500000 0.385310 -0.634245
C2    C     C_R   0.405714 0.496871 0.499172 1.005808
Zn1   Zn    Zn3+2 0.500000 0.500020 0.653130 1.015141
Zn2   Zn    Zn3+2 0.500000 0.499980 0.346870 0.992370
O5    O     O_R   0.500000 0.683240 0.614650 -0.588230
O6    O     O_R   0.499990 0.683210 0.385310 -0.557420
O7    O     O_R   0.571250 0.500000 0.614690 -0.572998
O8    O     O_R   0.571240 0.499960 0.385340 -0.603680
C3    C     C_R   0.503104 0.739985 0.500104 0.949588
C4    C     C_R   0.594481 0.496281 0.501121 0.861208
C5    C     C_R   0.178986 0.313988 0.402541 0.529123
O9    O     O_2   0.203090 0.309593 0.284006 -0.509529
N1    N     N_R   0.204246 0.348315 0.517523 -0.337613
C6    C     C_R   0.182394 0.349472 0.641169 0.512066
C7    C     C_R   0.267126 0.510565 0.473625 0.047909
C8    C     C_R   0.316792 0.548620 0.471830 0.418298
C9    C     C_R   0.341642 0.333958 0.525350 0.459015
C10   C     C_R   0.292122 0.297703 0.534848 0.034968
C11   C     C_R   0.254903 0.385695 0.508123 0.092692
C12   C     C_R   0.104333 0.293939 0.533795 -0.126126
C13   C     C_R   0.128144 0.285833 0.407795 -0.134129
C14   C     C_R   0.100188 0.254399 0.291071 0.529197
C15   C     C_R   0.132148 0.321288 0.651851 -0.029901
C16   C     C_R   0.353852 0.460231 0.498170 -0.358615
C17   C     C_R   0.647191 0.466398 0.506204 -0.019415
C18   C     C_R   0.972197 0.236405 0.432921 -0.029134
C19   C     C_R   0.977295 0.322844 0.663967 0.067000
C20   C     C_R   0.948961 0.287485 0.548415 -0.002597
C21   C     C_R   0.942326 0.180856 0.329025 0.508495
C22   C     C_R   0.890796 0.194862 0.333277 -0.250511
C23   C     C_R   0.868691 0.263981 0.436029 -0.082368
C24   C     C_R   0.897393 0.307468 0.546378 -0.099943
C25   C     C_R   0.874671 0.373047 0.653134 -0.003833
C26   C     C_R   0.823947 0.400023 0.641265 0.519351
N2    N     N_R   0.797110 0.358834 0.531380 -0.355051
C27   C     C_R   0.818047 0.289289 0.431488 0.537040
C28   C     C_R   0.713097 0.352628 0.619333 -0.116692
C29   C     C_R   0.664239 0.390270 0.613038 -0.268580
C30   C     C_R   0.680006 0.503995 0.404204 0.070224
C31   C     C_R   0.729496 0.467362 0.412668 -0.146849
C32   C     C_R   0.746041 0.391816 0.520039 0.284732
O10   O     O_2   0.789919 0.245772 0.327496 -0.567348
C33   C     C_R   0.024404 0.248157 0.424091 0.008249
C34   C     C_R   0.052486 0.279137 0.541638 0.027482
C35   C     C_R   0.028825 0.301554 0.666218 0.069896
C36   C     C_R   0.049063 0.240145 0.299652 -0.266325
H1    H     H_    0.639434 0.357364 0.690775 0.178314
H2    H     H_    0.725525 0.293454 0.702046 0.156203
H3    H     H_    0.867755 0.151121 0.256131 0.197669
H4    H     H_    0.029207 0.231321 0.205037 0.199875
O11   O     O_2   0.209143 0.380262 0.752850 -0.564008
C37   C     C_R   0.109278 0.319823 0.777770 -0.179924
H5    H     H_    0.130887 0.329349 0.870458 0.221851
C38   C     C_R   0.954086 0.388884 0.768565 -0.259881
C39   C     C_R   0.903654 0.413291 0.765044 0.122530
O12   O     O_2   0.801562 0.469174 0.736693 -0.539676
C40   C     C_R   0.058139 0.306930 0.786367 0.061405
H6    H     H_    0.975000 0.430976 0.850696 0.167122
H7    H     H_    0.755194 0.498312 0.336239 0.148749
C41   C     C_R   0.512927 0.064310 0.623295 -0.040184
C42   C     C_R   0.515202 0.129570 0.501417 -0.271105
C43   C     C_R   0.529648 0.065799 0.382781 0.393465
C44   C     C_R   0.531353 0.934062 0.385277 0.418758
C45   C     C_R   0.514535 0.870913 0.501713 -0.332491
C46   C     C_R   0.512216 0.936504 0.622948 -0.060292
C47   C     C_3   0.477690 0.930772 0.741824 0.672221
C48   C     C_3   0.479088 0.074395 0.741776 -0.541031
H8    H     H_    0.443340 0.118965 0.714541 0.218931
H9    H     H_    0.498012 0.116161 0.831756 0.185699
C49   C     C_R   0.456662 0.488463 0.069149 0.163167
N3    N     N_R   0.499670 0.499140 0.142800 -0.130312
C50   C     C_R   0.541297 0.531178 0.074563 -0.225587
H10   H     H_    0.573615 0.556796 0.133469 0.180284
C51   C     C_R   0.541816 0.532064 0.928943 0.561271
N4    N     N_R   0.499670 0.499180 0.857150 -0.156152
C52   C     C_R   0.457105 0.484949 0.927084 0.105048
C53   C     C_3   0.422116 0.376119 0.920634 -0.096676
C54   C     C_3   0.419112 0.384195 0.075441 -0.213506
H11   H     H_    0.439592 0.288939 0.883673 0.147821
H12   H     H_    0.432678 0.299918 0.129859 0.140252
O13   O     O_3   0.378356 0.247024 0.550347 -0.592449
C55   C     C_3   0.385884 0.177733 0.430669 -0.342105
H13   H     H_    0.401832 0.238482 0.350788 0.163235
H14   H     H_    0.351414 0.131714 0.392408 0.183170
H15   H     H_    0.412582 0.101923 0.452672 0.170265
N5    N     N_3   0.229428 0.600164 0.442408 -0.411861
H16   H     H_    0.205762 0.605665 0.524896 0.185861
H17   H     H_    0.209070 0.567633 0.358695 0.220209
N6    N     N_3   0.663555 0.580085 0.293344 -0.481110
H18   H     H_    0.670896 0.531571 0.203954 0.189319
H19   H     H_    0.684783 0.662531 0.293384 0.172394
N7    N     N_3   0.882617 0.480525 0.875788 -0.375902
H20   H     H_    0.900613 0.567478 0.884299 0.187034
H21   H     H_    0.889564 0.429999 0.964784 0.179117
N8    N     N_3   0.036885 0.288212 0.916921 -0.488279
H22   H     H_    0.051092 0.205041 0.957055 0.207290
H23   H     H_    0.048163 0.362206 0.980084 0.206770
O14   O     O_3   0.543553 0.132131 0.268398 -0.585095
C56   C     C_3   0.508272 0.113579 0.163482 -0.198328
H24   H     H_    0.511256 0.192951 0.091194 0.149155
H25   H     H_    0.469635 0.110778 0.200823 0.116598
H26   H     H_    0.516092 0.026687 0.106302 0.223250
O15   O     O_3   0.545375 0.868757 0.271378 -0.586865
C57   C     C_3   0.596517 0.847131 0.281546 -0.272114
H27   H     H_    0.607938 0.792697 0.191711 0.171565
H28   H     H_    0.605908 0.790722 0.373192 0.158189
H29   H     H_    0.617776 0.937031 0.281927 0.181471
N9    N     N_3   0.428978 0.879600 0.704924 -0.438269
H30   H     H_    0.404551 0.901903 0.782237 0.187025
H31   H     H_    0.415746 0.922959 0.616694 0.135458
N10   N     N_3   0.280173 0.170739 0.571133 -0.427568
H32   H     H_    0.257878 0.131903 0.494421 0.187373
H33   H     H_    0.260022 0.171804 0.660568 0.215330
O16   O     O_3   0.495440 0.875506 0.864884 -0.593210
C58   C     C_3   0.547464 0.875976 0.879094 -0.246642
H34   H     H_    0.563040 0.972662 0.874105 0.140420
H35   H     H_    0.564602 0.814718 0.802134 0.210038
H36   H     H_    0.557243 0.836871 0.979864 0.208852
O17   O     O_3   0.582283 0.573891 0.855851 -0.585194
C59   C     C_3   0.627923 0.555597 0.923052 -0.385685
H37   H     H_    0.634592 0.630920 0.999038 0.158629
H38   H     H_    0.630596 0.460377 0.969127 0.166281
H39   H     H_    0.657728 0.563657 0.847617 0.225805
N11   N     N_3   0.376493 0.406132 0.846211 -0.373511
H40   H     H_    0.349904 0.337985 0.869211 0.226694
H41   H     H_    0.363017 0.493840 0.875197 0.222559
N12   N     N_3   0.370663 0.426851 0.120709 -0.428912
H42   H     H_    0.353273 0.352506 0.170691 0.195387
H43   H     H_    0.374488 0.500629 0.189623 0.247331
O18   O     O_3   0.121696 0.248027 0.165164 -0.584207
C60   C     C_3   0.129832 0.120591 0.134245 -0.263233
H44   H     H_    0.094523 0.066589 0.127732 0.146725
H45   H     H_    0.155289 0.076571 0.209627 0.180226
H46   H     H_    0.147518 0.115181 0.033777 0.194147
O19   O     O_3   0.963243 0.097245 0.238299 -0.610663
C61   C     C_3   0.945793 0.117162 0.104395 -0.350118
H47   H     H_    0.941220 0.218684 0.079934 0.159274
H48   H     H_    0.910822 0.064496 0.085841 0.187854
H49   H     H_    0.973348 0.079251 0.033458 0.202555
O20   O     O_3   0.329217 0.670673 0.437744 -0.587767
C62   C     C_3   0.327259 0.745218 0.555498 -0.280467
H50   H     H_    0.354120 0.712345 0.633840 0.163160
H51   H     H_    0.289444 0.746981 0.597947 0.179434
H52   H     H_    0.337179 0.843166 0.528272 0.189774

loop_
_geom_bond_atom_site_label_1
_geom_bond_atom_site_label_2
_geom_bond_distance
_ccdc_geom_bond_type
C38   H6    1.078384 S    
C60   H46   1.109361 S    
N6    H18   1.045008 S    
C21   O19   1.392223 S    
C17   C29   1.405444 A    
O14   C56   1.412579 S    
C28   C29   1.386467 A    
C43   O14   1.387032 S    
C7    C8    1.402415 A    
C12   C15   1.408454 A    
N3    C50   1.362709 A    
N11   H40   1.045520 S    
N9    H31   1.046168 S    
C62   H50   1.112987 S    
C60   H44   1.113239 S    
C40   N8    1.432440 S    
O13   C55   1.411248 S    
C37   H5    1.083909 S    
Zn1   O7    1.972265 S    
C36   H4    1.075320 S    
C20   C24   1.414571 A    
C19   C38   1.407671 A    
Zn1   N4    2.014761 S    
C24   C25   1.415110 A    
C49   C54   1.501678 S    
C14   C36   1.395793 A    
C26   N2    1.367986 A    
O7    C4    1.294298 A    
C55   H14   1.112578 S    
C5    C13   1.408900 A    
C5    O9    1.349164 S    
C57   H27   1.108609 S    
C5    N1    1.365843 A    
C22   C23   1.397687 A    
C41   C48   1.500660 S    
C8    O20   1.382550 S    
O16   C58   1.414290 S    
O5    C3    1.285746 A    
C62   H51   1.112491 S    
C2    C16   1.455036 S    
C23   C24   1.406124 A    
C57   H28   1.113673 S    
C45   C46   1.388409 A    
N10   H33   1.044750 S    
N7    H21   1.045935 S    
O15   C57   1.408394 S    
C61   H49   1.109072 S    
C47   C48   1.529317 S    
C28   H2    1.083026 S    
C29   H1    1.083554 S    
N2    C32   1.432859 S    
C43   C44   1.403921 A    
N6    H19   1.045613 S    
C49   C52   1.403541 A    
C9    C10   1.397393 A    
C17   C30   1.408576 A    
C1    C42   1.428198 S    
C19   C35   1.415849 A    
O3    Zn1   1.961719 S    
C10   C11   1.404015 A    
N9    H30   1.045747 S    
C53   H11   1.109345 S    
C53   C54   1.534398 S    
C33   C36   1.409639 A    
C58   H35   1.110432 S    
C31   H7    1.083390 S    
C61   H47   1.115013 S    
O19   C61   1.414536 S    
C9    O13   1.383604 S    
C35   C40   1.419372 A    
C49   N3    1.368811 A    
C44   C45   1.411068 A    
C12   C34   1.415291 A    
C18   C33   1.422704 A    
O17   C59   1.409908 S    
C12   C13   1.412333 A    
O3    C2    1.292795 A    
N2    C27   1.365696 A    
C48   H9    1.110796 S    
C15   C37   1.396889 A    
C52   C53   1.492057 S    
C8    C16   1.403083 A    
C38   C39   1.392633 A    
O6    C3    1.286118 A    
Zn2   N3    2.015009 S    
O1    C1    1.287245 A    
C7    C11   1.410449 A    
C30   C31   1.400560 A    
C25   C26   1.409280 A    
C14   O18   1.382227 S    
N5    H17   1.044907 S    
C33   C34   1.416479 A    
Zn2   O8    1.961719 S    
N7    H20   1.045765 S    
N1    C6    1.364351 A    
C56   H25   1.114702 S    
N1    C11   1.430061 S    
C41   C46   1.360732 A    
C50   H10   1.077687 S    
C51   O17   1.391115 S    
C25   C39   1.411362 A    
C47   N9    1.465046 S    
C6    O11   1.350149 S    
C59   H39   1.108923 S    
C26   O12   1.349333 S    
C10   N10   1.434130 S    
N8    H23   1.045965 S    
C9    C16   1.408663 A    
O8    C4    1.298228 A    
C54   H12   1.108381 S    
C53   N11   1.466474 S    
C39   N7    1.434172 S    
C27   O10   1.350034 S    
C4    C17   1.465533 S    
N12   H42   1.045277 S    
C62   H52   1.108860 S    
C31   C32   1.401510 A    
C55   H13   1.110023 S    
C59   H38   1.113637 S    
C58   H36   1.108153 S    
C60   H45   1.113579 S    
C34   C35   1.416133 A    
C18   C21   1.423619 A    
O1    Zn1   1.987460 S    
C19   C20   1.415641 A    
O2    Zn2   1.987354 S    
C6    C15   1.396962 A    
C50   C51   1.438213 A    
O20   C62   1.409719 S    
N12   H43   1.042929 S    
C55   H15   1.107478 S    
N11   H41   1.046659 S    
O4    Zn2   1.972267 S    
C58   H34   1.110810 S    
O18   C60   1.410438 S    
C61   H48   1.110115 S    
C57   H29   1.113173 S    
C41   C42   1.391468 A    
O2    C1    1.285885 A    
C13   C14   1.409218 A    
C48   H8    1.111399 S    
C7    N5    1.433333 S    
N8    H22   1.044191 S    
C18   C20   1.420563 A    
C51   N4    1.378414 A    
C44   O15   1.381610 S    
N5    H16   1.045442 S    
O4    C2    1.293746 A    
C47   O16   1.429032 S    
C30   N6    1.430109 S    
C21   C22   1.406211 A    
C23   C27   1.400319 A    
C56   H26   1.107264 S    
C46   C47   1.511939 S    
N4    C52   1.359673 A    
Zn1   O5    1.987353 S    
C22   H3    1.081254 S    
Zn2   O6    1.987459 S    
C42   C43   1.415447 A    
C56   H24   1.109334 S    
C28   C32   1.396506 A    
C37   C40   1.394804 A    
C54   N12   1.467748 S    
N10   H32   1.045463 S    
C59   H37   1.110341 S    
C3    C45   1.425634 S    
