data_mof_unit_27958.cif
_audit_creation_date              2012-12-10T19:03:40-0500
_audit_creation_method            fapswitch 2.2
_symmetry_space_group_name_H-M    P1
_symmetry_Int_Tables_number       1
_space_group_crystal_system       triclinic
_cell_length_a                    15.873996
_cell_length_b                    10.82488
_cell_length_c                    9.583189
_cell_angle_alpha                 89.597972
_cell_angle_beta                  89.297313
_cell_angle_gamma                 90.826195
_cell_volume                      1646.3810336

loop_
_atom_site_label
_atom_site_type_symbol
_atom_type_description
_atom_site_fract_x
_atom_site_fract_y
_atom_site_fract_z
_atom_type_partial_charge
C1    C     C_R   0.501179 0.262366 0.500252 0.787192
C2    C     C_3   0.947544 0.418326 0.624792 -0.370441
C3    C     C_3   0.917076 0.498846 0.501508 0.300440
C4    C     C_3   0.952241 0.631971 0.519720 -0.383750
C5    C     C_3   0.049811 0.632340 0.518063 -0.369414
C6    C     C_1   0.824938 0.499494 0.498912 -0.109917
C7    C     C_1   0.175064 0.498990 0.504110 -0.106303
C8    C     C_1   0.250635 0.499386 0.502604 -0.193873
C9    C     C_R   0.509691 0.062526 0.625063 0.131291
C10   C     C_R   0.509241 0.129242 0.499952 -0.096306
C11   C     C_R   0.521326 0.065675 0.373785 -0.221392
C12   C     C_R   0.340303 0.499783 0.500803 0.827656
C13   C     C_R   0.521928 0.936846 0.373334 -0.225133
C14   C     C_R   0.510629 0.870769 0.499090 -0.098583
C15   C     C_R   0.510832 0.935386 0.624614 0.123885
C16   C     C_3   0.452215 0.924907 0.747276 -0.456353
C17   C     C_3   0.450047 0.064979 0.746860 -0.489227
C18   C     C_R   0.554100 0.575492 0.071638 0.238109
C19   C     C_R   0.441449 0.435167 0.078151 -0.077343
C20   C     C_R   0.440010 0.435294 0.929992 0.246725
C21   C     C_R   0.554310 0.575190 0.924645 0.219574
C22   C     C_3   0.648207 0.574226 0.917507 -0.496493
C23   C     C_R   0.501931 0.737548 0.499579 0.795206
C24   C     C_3   0.647969 0.574942 0.075780 -0.496916
C25   C     C_R   0.659705 0.500136 0.499256 0.826876
C26   C     C_3   0.045697 0.416461 0.627801 0.042483
C27   C     C_3   0.050231 0.444771 0.366417 -0.441599
C28   C     C_3   0.952694 0.445665 0.363636 -0.390569
C29   C     C_1   0.749382 0.499885 0.498117 -0.193401
C30   C     C_3   0.082750 0.498518 0.505866 0.327637
Cu1   Cu    Cu3+1 0.500000 0.499980 0.640670 0.934721
Cu2   Cu    Cu3+1 0.500000 0.500020 0.359330 0.934525
H1    H     H_    0.922801 0.322149 0.614000 0.136519
H2    H     H_    0.920900 0.454468 0.724272 0.173515
H3    H     H_    0.929473 0.692719 0.434336 0.161286
H4    H     H_    0.526332 0.114653 0.275019 0.166577
H5    H     H_    0.527107 0.889616 0.274388 0.163593
H6    H     H_    0.390757 0.880801 0.721024 0.197384
H7    H     H_    0.483535 0.885757 0.840482 0.195026
H8    H     H_    0.387273 0.101350 0.718966 0.190134
H9    H     H_    0.479155 0.106800 0.840642 0.205574
H10   H     H_    0.395121 0.382087 0.137908 0.148671
H11   H     H_    0.065827 0.319599 0.609874 0.140790
H12   H     H_    0.673346 0.487230 0.873526 0.218510
H13   H     H_    0.674874 0.660531 0.870181 0.192512
H14   H     H_    0.673081 0.488496 0.121530 0.218545
H15   H     H_    0.674319 0.661766 0.119895 0.190090
H16   H     H_    0.075879 0.499964 0.276658 0.177206
H17   H     H_    0.072496 0.348460 0.353198 0.158600
H18   H     H_    0.928189 0.349909 0.348370 0.162703
H19   H     H_    0.931664 0.502331 0.273509 0.170496
H20   H     H_    0.073971 0.677592 0.613600 0.164695
H21   H     H_    0.073462 0.688822 0.427891 0.158094
H22   H     H_    0.929058 0.670825 0.620095 0.160829
N1    N     N_R   0.500530 0.500930 0.147930 -0.203789
N2    N     N_R   0.500530 0.500890 0.852020 -0.185090
O1    O     O_R   0.500000 0.319640 0.618810 -0.584938
O2    O     O_R   0.500010 0.319680 0.381230 -0.585558
O3    O     O_R   0.379430 0.499990 0.618840 -0.578533
O4    O     O_R   0.379440 0.500030 0.381260 -0.578128
O5    O     O_R   0.499990 0.680320 0.618770 -0.576798
O6    O     O_R   0.500000 0.680360 0.381190 -0.581616
O7    O     O_R   0.620560 0.499970 0.618740 -0.578102
O8    O     O_R   0.620570 0.500010 0.381160 -0.577747
C31   C     C_3   0.078296 0.452476 0.773040 -0.913424
H23   H     H_    0.057757 0.546356 0.802652 0.241829
H24   H     H_    0.053134 0.386020 0.852545 0.231298
H25   H     H_    0.148094 0.449008 0.776044 0.241313
C32   C     C_3   0.367617 0.366061 0.865547 -0.815184
H26   H     H_    0.386617 0.314653 0.772498 0.264062
H27   H     H_    0.340226 0.296081 0.939066 0.177263
H28   H     H_    0.316676 0.431383 0.840516 0.232488

loop_
_geom_bond_atom_site_label_1
_geom_bond_atom_site_label_2
_ccdc_geom_bond_type
C14   C23   S    
C27   H16   S    
C21   N2    A    
C26   C31   S    
C5    H20   S    
C1    O1    A    
Cu1   N2    S    
C32   H28   S    
C18   C21   A    
C9    C10   A    
Cu1   O5    S    
Cu2   N1    S    
C13   H5    S    
Cu1   Cu2   S    
C19   H10   S    
Cu2   O2    S    
C8    C12   S    
C3    C6    S    
C24   H14   S    
C2    H2    S    
C19   C20   A    
C2    C3    S    
C9    C15   A    
C4    H3    S    
Cu2   O6    S    
C7    C8    T    
C2    C26   S    
C7    C30   S    
C21   C22   S    
C27   C30   S    
C11   C13   A    
Cu1   O1    S    
C16   C17   S    
C1    O2    A    
C18   N1    A    
C18   C24   S    
C2    H1    S    
C9    C17   S    
C3    C28   S    
C26   H11   S    
C26   C30   S    
C17   H9    S    
C20   N2    A    
C25   C29   S    
C32   H26   S    
C28   H19   S    
C22   C24   S    
C20   C32   S    
C10   C11   A    
Cu2   O4    S    
C16   H7    S    
Cu1   O3    S    
C15   C16   S    
C12   O4    A    
Cu1   O7    S    
C23   O5    A    
C6    C29   T    
C22   H13   S    
C27   H17   S    
Cu2   O8    S    
C31   H23   S    
C5    C30   S    
C5    H21   S    
C27   C28   S    
C32   H27   S    
C19   N1    A    
C14   C15   A    
C25   O7    A    
C24   H15   S    
C31   H25   S    
C4    H22   S    
C13   C14   A    
C12   O3    A    
C28   H18   S    
C17   H8    S    
C23   O6    A    
C22   H12   S    
C1    C10   S    
C3    C4    S    
C16   H6    S    
C4    C5    S    
C31   H24   S    
C25   O8    A    
C11   H4    S    
