data_mof_unit_60261.cif
_audit_creation_date              2012-12-10T20:02:46-0500
_audit_creation_method            fapswitch 2.2
_symmetry_space_group_name_H-M    P1
_symmetry_Int_Tables_number       1
_space_group_crystal_system       triclinic
_cell_length_a                    38.569588
_cell_length_b                    32.069084
_cell_length_c                    21.526936
_cell_angle_alpha                 89.999975
_cell_angle_beta                  56.268515
_cell_angle_gamma                 90.000049
_cell_volume                      22143.8890383

loop_
_atom_site_label
_atom_site_type_symbol
_atom_type_description
_atom_site_fract_x
_atom_site_fract_y
_atom_site_fract_z
_atom_type_partial_charge
C1    C     C_R   0.919291 0.499979 0.580341 0.906633
C2    C     C_3   0.999851 0.499212 0.689931 -0.168221
C3    C     C_R   0.497505 0.228304 0.946178 -0.170750
C4    C     C_R   0.000000 0.706670 0.000000 0.170285
C5    C     C_R   0.500000 0.206670 1.000000 0.170172
C6    C     C_1   0.500000 0.337887 0.000000 -0.038138
C7    C     C_1   0.000000 0.837887 0.000000 -0.038680
C8    C     C_1   0.000000 0.662232 0.000000 -0.074513
C9    C     C_1   0.500000 0.162231 1.000000 -0.074328
C10   C     C_1   0.000000 0.624911 0.000000 -0.187376
C11   C     C_1   0.500000 0.124910 1.000000 -0.187314
C12   C     C_1   0.500000 0.624666 0.000000 -0.050481
C13   C     C_3   0.500152 0.999212 0.310065 -0.168219
C14   C     C_1   0.000001 0.124665 0.999999 -0.050639
C15   C     C_1   0.500000 0.375232 0.000000 -0.126953
C16   C     C_1   0.000000 0.875232 0.000000 -0.127618
C17   C     C_R   0.532372 0.728385 0.998055 0.421261
C18   C     C_R   0.467627 0.728385 0.001948 0.421265
C19   C     C_R   0.033401 0.228383 0.994437 0.420887
C20   C     C_R   0.966600 0.228383 0.005559 0.420866
C21   C     C_R   0.500000 0.706563 0.000001 -0.157823
C22   C     C_R   0.000001 0.206561 0.999998 -0.157713
C23   C     C_R   1.000000 0.293393 0.999999 0.003023
C24   C     C_3   0.499847 0.999212 0.689935 -0.168219
C25   C     C_R   0.500000 0.793395 0.000001 0.003479
C26   C     C_R   0.966996 0.271920 0.005378 -0.241053
C27   C     C_R   0.033005 0.271920 0.994619 -0.241067
C28   C     C_R   0.468016 0.771922 0.001803 -0.241157
C29   C     C_R   0.531983 0.771922 0.998200 -0.241150
C30   C     C_3   0.995791 0.544492 0.287751 -0.536889
C31   C     C_3   0.004207 0.544492 0.712251 -0.536891
C32   C     C_3   0.495831 0.044495 0.287710 -0.536830
C33   C     C_3   0.504169 0.044495 0.712290 -0.536828
C34   C     C_3   0.995408 0.544270 0.216276 0.201756
C35   C     C_3   0.000534 0.498163 0.188794 -0.236218
C36   C     C_3   0.004589 0.544270 0.783726 0.201758
C37   C     C_3   0.495451 0.044272 0.216232 0.201720
C38   C     C_3   0.504549 0.044272 0.783768 0.201721
C39   C     C_3   0.042309 0.480448 0.245129 0.225424
C40   C     C_3   0.957692 0.480446 0.754871 0.225429
C41   C     C_3   0.542298 0.980415 0.245137 0.225415
C42   C     C_3   0.457702 0.980415 0.754863 0.225414
C43   C     C_3   0.977469 0.403582 0.208955 -0.161271
C44   C     C_3   0.022536 0.403583 0.791040 -0.161268
C45   C     C_3   0.477386 0.903596 0.209049 -0.161053
C46   C     C_3   0.999466 0.498163 0.811206 -0.236218
C47   C     C_3   0.522614 0.903596 0.790951 -0.161050
C48   C     C_3   0.083970 0.432866 0.258076 -0.188254
C49   C     C_3   0.916032 0.432862 0.741922 -0.188253
C50   C     C_3   0.583933 0.932807 0.258105 -0.187938
C51   C     C_3   0.416067 0.932806 0.741895 -0.187935
C52   C     C_3   0.097096 0.442179 0.073983 -0.237980
C53   C     C_3   0.902907 0.442174 0.926015 -0.237985
C54   C     C_3   0.597040 0.942089 0.074020 -0.237632
C55   C     C_3   0.402960 0.942088 0.925980 -0.237635
C56   C     C_3   0.014675 0.611140 0.165657 -0.271327
C57   C     C_3   0.500535 0.998160 0.188792 -0.236228
C58   C     C_3   0.985319 0.611139 0.834348 -0.271325
C59   C     C_3   0.514782 0.111124 0.165552 -0.271219
C60   C     C_3   0.485217 0.111124 0.834448 -0.271224
C61   C     C_3   0.896484 0.454817 0.426512 -0.265125
C62   C     C_3   0.103518 0.454822 0.573486 -0.265127
C63   C     C_3   0.396450 0.954906 0.426551 -0.264933
C64   C     C_3   0.603550 0.954906 0.573449 -0.264931
C65   C     C_3   0.499465 0.998160 0.811207 -0.236229
C66   C     C_3   0.043738 0.482230 0.171847 0.346531
C67   C     C_3   0.956263 0.482228 0.828152 0.346527
C68   C     C_3   0.543725 0.982190 0.171857 0.346440
C69   C     C_R   0.080709 0.499979 0.419659 0.906634
C70   C     C_3   0.456275 0.982190 0.828143 0.346440
C71   C     C_3   0.961467 0.473864 0.254155 0.218968
C72   C     C_3   0.038534 0.473866 0.745844 0.218971
C73   C     C_3   0.461448 0.973895 0.254178 0.219015
C74   C     C_3   0.538552 0.973896 0.745822 0.219014
C75   C     C_R   0.728557 0.469884 0.806699 0.427420
C76   C     C_R   0.271443 0.469890 0.193291 0.427406
C77   C     C_R   0.228567 0.971139 0.808930 0.427246
C78   C     C_R   0.771433 0.971136 0.191076 0.427245
C79   C     C_R   0.706547 0.500031 0.793828 -0.167508
C80   C     C_R   0.419291 0.999979 0.580341 0.906595
C81   C     C_R   0.293453 0.500032 0.206171 -0.167528
C82   C     C_R   0.206548 0.000043 0.793813 -0.167587
C83   C     C_R   0.793452 0.000043 0.206188 -0.167591
C84   C     C_R   0.728214 0.530188 0.737063 0.422157
C85   C     C_R   0.271785 0.530185 0.262944 0.422176
C86   C     C_R   0.228207 0.028954 0.734795 0.422592
C87   C     C_R   0.771792 0.028957 0.265199 0.422594
C88   C     C_R   0.771750 0.529782 0.693534 -0.235607
C89   C     C_R   0.228250 0.529779 0.306472 -0.235624
C90   C     C_R   0.271743 0.028551 0.691291 -0.236067
C91   C     C_R   0.580709 0.999979 0.419659 0.906595
C92   C     C_R   0.728257 0.028553 0.308704 -0.236065
C93   C     C_R   0.793387 0.499954 0.706390 -0.002271
C94   C     C_R   0.206613 0.499954 0.293608 -0.002270
C95   C     C_R   0.293388 0.999951 0.706371 -0.001898
C96   C     C_R   0.706612 0.999950 0.293629 -0.001900
C97   C     C_R   0.000218 0.499949 0.378158 0.987613
C98   C     C_R   0.999781 0.499949 0.621842 0.987610
C99   C     C_R   0.500223 0.999949 0.378154 0.987545
C100  C     C_R   0.499777 0.999949 0.621846 0.987544
C101  C     C_R   0.772070 0.470186 0.762533 -0.241958
C102  C     C_3   0.963011 0.471604 0.324340 0.276833
C103  C     C_R   0.227931 0.470191 0.237457 -0.241948
C104  C     C_R   0.272079 0.971420 0.764737 -0.241478
C105  C     C_R   0.727920 0.971417 0.235269 -0.241476
C106  C     C_1   0.661932 0.499955 0.838477 0.193510
C107  C     C_1   0.338068 0.499956 0.161523 0.193547
C108  C     C_1   0.161933 0.999966 0.838473 0.193454
C109  C     C_1   0.838067 0.999967 0.161527 0.193462
C110  C     C_1   0.837792 0.499957 0.661799 0.014133
C111  C     C_1   0.162208 0.499958 0.338199 0.014129
C112  C     C_1   0.337793 0.999955 0.661785 0.014213
C113  C     C_3   0.036990 0.471606 0.675659 0.276831
C114  C     C_1   0.662207 0.999954 0.338216 0.014213
C115  C     C_1   0.875082 0.499976 0.624476 -0.184568
C116  C     C_1   0.124918 0.499976 0.375523 -0.184573
C117  C     C_1   0.375082 0.999975 0.624468 -0.184515
C118  C     C_1   0.624918 0.999975 0.375532 -0.184514
C119  C     C_1   0.624633 0.499938 0.875684 -0.049556
C120  C     C_1   0.375367 0.499939 0.124316 -0.049472
C121  C     C_1   0.124634 0.999946 0.875684 -0.049441
C122  C     C_1   0.875366 0.999946 0.124316 -0.049434
C123  C     C_1   0.500000 0.661959 0.000000 0.201980
C124  C     C_3   0.462992 0.971635 0.324363 0.276754
C125  C     C_1   0.000001 0.161958 0.999998 0.201863
C126  C     C_R   0.000000 0.580650 0.000000 0.927099
C127  C     C_R   0.500000 0.080650 1.000000 0.926953
C128  C     C_R   0.000104 0.498031 0.121318 1.009340
C129  C     C_R   0.999896 0.498031 0.878682 1.009337
C130  C     C_R   0.500104 0.998028 0.121318 1.009210
C131  C     C_R   0.499896 0.998028 0.878682 1.009209
C132  C     C_1   1.000000 0.337792 0.999999 0.018376
C133  C     C_1   0.500000 0.837793 0.000000 0.018488
C134  C     C_R   1.000000 0.419277 0.000000 0.902014
C135  C     C_3   0.537008 0.971635 0.675637 0.276754
C136  C     C_R   0.500000 0.919277 0.000000 0.901904
C137  C     C_1   1.000000 0.375079 1.000000 -0.181356
C138  C     C_1   0.500000 0.875080 0.000000 -0.181323
C139  C     C_R   0.500000 0.419534 0.000000 0.897078
C140  C     C_R   1.000000 0.919534 0.000000 0.896327
C141  C     C_R   0.580427 0.499956 0.919686 0.879659
C142  C     C_R   0.419573 0.499956 0.080314 0.879689
C143  C     C_R   0.080427 0.999958 0.919686 0.879113
C144  C     C_R   0.919573 0.999958 0.080314 0.879105
C145  C     C_R   0.500000 0.580474 1.000000 0.881966
C146  C     C_3   0.000148 0.499212 0.310070 -0.168220
C147  C     C_R   0.000000 0.080474 1.000000 0.882091
C148  C     C_R   0.497508 0.271764 0.946178 -0.155101
C149  C     C_R   0.502492 0.271764 0.053822 -0.155100
C150  C     C_R   0.999545 0.771764 0.944030 -0.155347
C151  C     C_R   0.000455 0.771764 0.055970 -0.155347
C152  C     C_R   0.500000 0.293417 0.000000 0.156058
C153  C     C_R   1.000000 0.793416 0.000000 0.156215
C154  C     C_R   0.000460 0.728304 0.055967 -0.170989
C155  C     C_R   0.999540 0.728304 0.944033 -0.170989
C156  C     C_R   0.502495 0.228304 0.053822 -0.170751
H1    H     H_    0.022066 0.564117 0.278593 0.223923
H2    H     H_    0.211072 0.552612 0.350409 0.203022
H3    H     H_    0.958244 0.630477 0.875330 0.197174
H4    H     H_    0.997916 0.624214 0.777775 0.166223
H5    H     H_    0.009009 0.613262 0.848365 0.153466
H6    H     H_    0.541876 0.130439 0.124554 0.196730
H7    H     H_    0.502196 0.124211 0.222113 0.166338
H8    H     H_    0.491095 0.113269 0.151531 0.153723
H9    H     H_    0.458124 0.130438 0.875446 0.196731
H10   H     H_    0.497803 0.124211 0.777887 0.166339
H11   H     H_    0.508904 0.113269 0.848469 0.153724
H12   H     H_    0.907662 0.433674 0.452806 0.168873
H13   H     H_    0.288914 0.050438 0.645657 0.202940
H14   H     H_    0.890309 0.436960 0.389325 0.200587
H15   H     H_    0.866559 0.468622 0.471916 0.201557
H16   H     H_    0.092340 0.433679 0.547191 0.168873
H17   H     H_    0.109694 0.436965 0.610672 0.200588
H18   H     H_    0.133442 0.468628 0.528082 0.201557
H19   H     H_    0.407610 0.933752 0.452862 0.168794
H20   H     H_    0.390259 0.937055 0.389380 0.200647
H21   H     H_    0.366538 0.968737 0.471945 0.201505
H22   H     H_    0.592390 0.933753 0.547138 0.168794
H23   H     H_    0.609742 0.937055 0.610620 0.200648
H24   H     H_    0.711086 0.050443 0.354334 0.202942
H25   H     H_    0.633462 0.968737 0.528055 0.201506
H26   H     H_    0.999181 0.711606 0.900620 0.136219
H27   H     H_    0.000819 0.711606 0.099380 0.136218
H28   H     H_    0.495569 0.211605 0.904427 0.136142
H29   H     H_    0.504431 0.211605 0.095573 0.136142
H30   H     H_    0.495577 0.288444 0.904416 0.153499
H31   H     H_    0.504423 0.288444 0.095584 0.153499
H32   H     H_    0.999196 0.788443 0.900602 0.153344
H33   H     H_    0.977932 0.564116 0.721410 0.223922
H34   H     H_    0.000804 0.788443 0.099399 0.153344
H35   H     H_    0.058308 0.289228 0.990576 0.200103
H36   H     H_    0.941692 0.289227 0.009420 0.200098
H37   H     H_    0.556502 0.789230 0.996901 0.199842
H38   H     H_    0.443497 0.789230 0.003101 0.199841
H39   H     H_    0.966486 0.559107 0.334014 0.224141
H40   H     H_    0.033511 0.559109 0.665988 0.224142
H41   H     H_    0.466537 0.059133 0.333959 0.224222
H42   H     H_    0.533463 0.059133 0.666041 0.224222
H43   H     H_    0.964338 0.555852 0.230925 0.111534
H44   H     H_    0.522119 0.064100 0.278541 0.223895
H45   H     H_    0.035659 0.555854 0.769078 0.111532
H46   H     H_    0.464392 0.055883 0.230866 0.111625
H47   H     H_    0.535607 0.055883 0.769134 0.111625
H48   H     H_    0.067723 0.501286 0.237582 0.036740
H49   H     H_    0.932277 0.501283 0.762419 0.036739
H50   H     H_    0.567727 0.001236 0.237569 0.036769
H51   H     H_    0.432273 0.001236 0.762431 0.036768
H52   H     H_    0.067406 0.506504 0.135987 0.127156
H53   H     H_    0.932593 0.506501 0.864013 0.127158
H54   H     H_    0.567416 0.006441 0.135969 0.127230
H55   H     H_    0.477880 0.064100 0.721459 0.223894
H56   H     H_    0.432584 0.006441 0.864031 0.127230
H57   H     H_    0.968948 0.439017 0.334025 0.151837
H58   H     H_    0.031054 0.439019 0.665972 0.151836
H59   H     H_    0.468902 0.939044 0.334078 0.151834
H60   H     H_    0.531098 0.939044 0.665922 0.151834
H61   H     H_    0.934511 0.494689 0.270939 0.177152
H62   H     H_    0.065489 0.494692 0.729061 0.177151
H63   H     H_    0.434510 0.994743 0.270944 0.177250
H64   H     H_    0.565490 0.994744 0.729055 0.177251
H65   H     H_    0.996386 0.401934 0.233004 0.212716
H66   H     H_    0.789488 0.447314 0.771620 0.205225
H67   H     H_    0.997241 0.404971 0.147082 0.197349
H68   H     H_    0.959918 0.373844 0.223722 0.169204
H69   H     H_    0.003619 0.401934 0.766991 0.212714
H70   H     H_    0.002764 0.404970 0.852914 0.197349
H71   H     H_    0.040088 0.373846 0.776271 0.169203
H72   H     H_    0.496304 0.901935 0.233095 0.212765
H73   H     H_    0.497158 0.904962 0.147173 0.197257
H74   H     H_    0.459808 0.873875 0.223853 0.169251
H75   H     H_    0.503696 0.901935 0.766905 0.212764
H76   H     H_    0.502842 0.904962 0.852827 0.197257
H77   H     H_    0.210513 0.447322 0.228363 0.205222
H78   H     H_    0.540193 0.873875 0.776147 0.169253
H79   H     H_    0.084768 0.453117 0.299058 0.144196
H80   H     H_    0.111656 0.439100 0.201066 0.147926
H81   H     H_    0.085663 0.399998 0.272204 0.192883
H82   H     H_    0.915233 0.453113 0.700940 0.144199
H83   H     H_    0.888347 0.439095 0.798932 0.147925
H84   H     H_    0.914340 0.399994 0.727793 0.192883
H85   H     H_    0.584748 0.953055 0.299073 0.144102
H86   H     H_    0.611618 0.939025 0.201089 0.148066
H87   H     H_    0.585608 0.899937 0.272247 0.192993
H88   H     H_    0.289504 0.949494 0.775530 0.204791
H89   H     H_    0.415252 0.953055 0.700927 0.144102
H90   H     H_    0.388382 0.939025 0.798911 0.148065
H91   H     H_    0.414392 0.899937 0.727753 0.192992
H92   H     H_    0.118463 0.453031 0.089978 0.143517
H93   H     H_    0.101579 0.461449 0.027182 0.177094
H94   H     H_    0.105626 0.409595 0.053818 0.198625
H95   H     H_    0.881540 0.453025 0.910021 0.143520
H96   H     H_    0.898423 0.461444 0.972816 0.177096
H97   H     H_    0.894379 0.409589 0.946179 0.198626
H98   H     H_    0.618424 0.952922 0.089988 0.143760
H99   H     H_    0.710496 0.949488 0.224480 0.204792
H100  H     H_    0.601532 0.961354 0.027208 0.177095
H101  H     H_    0.605539 0.909496 0.053883 0.198706
H102  H     H_    0.381576 0.952921 0.910012 0.143761
H103  H     H_    0.398468 0.961353 0.972792 0.177095
H104  H     H_    0.394462 0.909496 0.946117 0.198705
H105  H     H_    0.719548 0.380297 0.920228 0.395428
H106  H     H_    0.280453 0.380315 0.079738 0.395428
H107  H     H_    0.219587 0.885296 0.929188 0.395482
H108  H     H_    0.780414 0.885283 0.070834 0.395483
H109  H     H_    0.652303 0.612705 0.787578 0.402766
H110  H     H_    0.788927 0.552619 0.649603 0.203014
H111  H     H_    0.347612 0.612789 0.212529 0.402826
H112  H     H_    0.152400 0.110625 0.779034 0.402084
H113  H     H_    0.847578 0.110655 0.220961 0.402108
H114  H     H_    0.616123 0.652524 0.928166 0.404043
H115  H     H_    0.383881 0.652519 0.071832 0.404030
H116  H     H_    0.117378 0.152391 0.917817 0.404481
H117  H     H_    0.882673 0.152344 0.082101 0.404445
H118  H     H_    0.041750 0.630479 0.124676 0.197171
H119  H     H_    0.002078 0.624215 0.222230 0.166224
H120  H     H_    0.990985 0.613262 0.151640 0.153467
O1    O     O_R   0.939010 0.534400 0.560970 -0.606219
O2    O     O_R   0.439030 0.499940 0.008670 -0.595032
O3    O     O_3   0.471742 0.069555 0.840078 -0.595535
O4    O     O_3   0.925277 0.487345 0.387611 -0.629150
O5    O     O_3   0.074723 0.487348 0.612389 -0.629150
O6    O     O_3   0.425272 0.987408 0.387621 -0.629103
O7    O     O_3   0.574728 0.987408 0.612379 -0.629103
O8    O     O_R   0.060970 0.999940 0.991330 -0.594229
O9    O     O_R   0.939030 0.999940 0.008670 -0.594239
O10   O     O_R   0.500000 0.561000 0.947810 -0.597791
O11   O     O_R   0.500000 0.561000 0.052190 -0.597773
O12   O     O_R   0.000000 0.061000 0.947810 -0.598185
O13   O     O_R   0.000000 0.061000 0.052190 -0.598170
O14   O     O_R   0.938970 0.465540 0.561010 -0.633240
O15   O     O_R   0.061030 0.465540 0.438990 -0.633239
O16   O     O_R   0.438970 0.965540 0.561010 -0.633248
O17   O     O_R   0.060990 0.534400 0.439030 -0.606220
O18   O     O_R   0.561030 0.965540 0.438990 -0.633248
O19   O     O_R   0.999990 0.534400 0.407410 -0.635474
O20   O     O_R   0.000010 0.534400 0.592590 -0.635471
O21   O     O_R   0.499990 0.034400 0.407410 -0.635435
O22   O     O_R   0.500010 0.034400 0.592590 -0.635434
O23   O     O_R   0.999950 0.465540 0.407450 -0.604051
O24   O     O_R   0.000050 0.465540 0.592550 -0.604051
O25   O     O_R   0.499950 0.965540 0.407450 -0.604027
O26   O     O_R   0.500050 0.965540 0.592550 -0.604027
O27   O     O_R   0.965540 0.560940 0.034450 -0.612670
O28   O     O_R   0.439010 0.034400 0.560970 -0.606151
O29   O     O_R   0.034460 0.560940 0.965550 -0.612671
O30   O     O_R   0.465540 0.060940 0.034450 -0.612591
O31   O     O_R   0.534460 0.060940 0.965550 -0.612592
O32   O     O_R   0.965550 0.499950 0.127040 -0.626874
O33   O     O_R   0.034450 0.499950 0.872960 -0.626870
O34   O     O_R   0.465550 0.999950 0.127040 -0.626760
O35   O     O_R   0.534450 0.999950 0.872960 -0.626758
O36   O     O_R   0.034410 0.500000 0.058200 -0.611721
O37   O     O_R   0.965590 0.500000 0.941800 -0.611722
O38   O     O_R   0.534410 1.000000 0.058200 -0.611731
O39   O     O_R   0.560990 0.034400 0.439030 -0.606152
O40   O     O_R   0.465590 0.000000 0.941800 -0.611731
O41   O     O_R   0.965550 0.438960 0.034430 -0.609788
O42   O     O_R   0.034450 0.438960 0.965570 -0.609789
O43   O     O_R   0.465550 0.938960 0.034430 -0.609782
O44   O     O_R   0.534450 0.938960 0.965570 -0.609780
O45   O     O_R   0.499940 0.439020 0.947690 -0.608602
O46   O     O_R   0.500060 0.439020 0.052310 -0.608605
O47   O     O_R   0.999940 0.939020 0.947690 -0.608571
O48   O     O_R   0.000060 0.939020 0.052310 -0.608572
O49   O     O_3   0.948496 0.436502 0.236781 -0.621452
O50   O     O_R   0.560960 0.500010 0.886780 -0.602607
O51   O     O_3   0.051507 0.436504 0.763216 -0.621450
O52   O     O_3   0.448445 0.936543 0.236838 -0.621417
O53   O     O_3   0.551556 0.936544 0.763162 -0.621415
O54   O     O_3   0.046611 0.438491 0.261653 -0.582033
O55   O     O_3   0.953391 0.438489 0.738344 -0.582032
O56   O     O_3   0.546572 0.938457 0.261696 -0.581968
O57   O     O_3   0.453428 0.938456 0.738304 -0.581968
O58   O     O_3   0.054968 0.442987 0.134976 -0.604071
O59   O     O_3   0.945035 0.442983 0.865022 -0.604073
O60   O     O_3   0.554917 0.942934 0.135027 -0.604177
O61   O     O_R   0.439040 0.500010 0.113220 -0.602590
O62   O     O_3   0.445083 0.942934 0.864973 -0.604177
O63   O     O_2   0.675507 0.452932 0.951768 -0.279052
O64   O     O_2   0.675331 0.405832 0.862350 -0.293149
O65   O     O_3   0.736831 0.400427 0.879475 -0.554471
O66   O     O_2   0.324494 0.452948 0.048218 -0.279055
O67   O     O_2   0.324670 0.405838 0.137624 -0.293156
O68   O     O_3   0.263170 0.400441 0.120496 -0.554470
O69   O     O_2   0.175520 0.957380 0.955172 -0.278000
O70   O     O_2   0.175364 0.907246 0.869467 -0.292951
O71   O     O_3   0.236863 0.904577 0.886906 -0.555002
O72   O     O_R   0.060960 0.000010 0.886780 -0.602418
O73   O     O_2   0.824480 0.957370 0.044837 -0.278003
O74   O     O_2   0.824637 0.907242 0.130550 -0.292952
O75   O     O_3   0.763137 0.904567 0.113112 -0.554998
O76   O     O_2   0.731649 0.598178 0.659735 -0.265051
O77   O     O_2   0.676238 0.547108 0.695247 -0.282139
O78   O     O_3   0.669259 0.595093 0.798825 -0.550702
O79   O     O_2   0.268347 0.598165 0.340294 -0.265222
O80   O     O_2   0.323761 0.547096 0.304768 -0.281998
O81   O     O_3   0.330739 0.595093 0.201205 -0.550743
O82   O     O_2   0.231626 0.094301 0.652371 -0.265362
O83   O     O_R   0.939040 0.000010 0.113220 -0.602415
O84   O     O_2   0.176183 0.042647 0.691916 -0.282223
O85   O     O_3   0.169280 0.093900 0.791632 -0.551315
O86   O     O_2   0.768373 0.094313 0.347608 -0.265392
O87   O     O_2   0.823816 0.042662 0.308076 -0.282190
O88   O     O_3   0.830719 0.093903 0.208347 -0.551318
O89   O     O_2   0.604900 0.732157 0.989434 -0.266484
O90   O     O_2   0.555466 0.676763 0.066086 -0.279262
O91   O     O_3   0.596830 0.669462 0.921785 -0.550513
O92   O     O_2   0.395096 0.732156 0.010579 -0.266499
O93   O     O_2   0.444531 0.676766 0.933917 -0.279259
O94   O     O_R   0.560970 0.499940 0.991330 -0.595024
O95   O     O_3   0.403171 0.669459 0.078216 -0.550522
O96   O     O_2   0.108092 0.232152 0.977835 -0.265977
O97   O     O_2   0.059681 0.176797 0.057398 -0.279561
O98   O     O_3   0.097317 0.169424 0.913695 -0.549726
O99   O     O_2   0.891909 0.232149 0.022157 -0.265892
O100  O     O_2   0.940326 0.176799 0.942586 -0.279631
O101  O     O_3   0.902687 0.169418 0.086289 -0.549713
O102  O     O_3   0.028190 0.569584 0.159987 -0.595563
O103  O     O_3   0.971806 0.569582 0.840016 -0.595561
O104  O     O_3   0.528258 0.069555 0.159922 -0.595535
S1    S     S_3+6 0.702423 0.431639 0.877441 0.031679
S2    S     S_3+6 0.426620 0.701845 0.004348 0.045815
S3    S     S_3+6 0.075707 0.201843 0.987476 0.045967
S4    S     S_3+6 0.924296 0.201841 0.012513 0.045980
S5    S     S_3+6 0.297578 0.431650 0.122539 0.031673
S6    S     S_3+6 0.202445 0.934482 0.882534 0.032168
S7    S     S_3+6 0.797555 0.934475 0.117478 0.032167
S8    S     S_3+6 0.701481 0.568438 0.719644 0.045786
S9    S     S_3+6 0.298517 0.568430 0.280376 0.045749
S10   S     S_3+6 0.201463 0.065644 0.714547 0.045662
S11   S     S_3+6 0.798536 0.065652 0.285439 0.045662
S12   S     S_3+6 0.573378 0.701845 0.995658 0.045828
Zn1   Zn    Zn3+2 0.000000 0.545950 0.500000 0.989658
Zn2   Zn    Zn3+2 0.500030 0.500020 0.069780 1.068549
Zn3   Zn    Zn3+2 0.999970 0.000020 0.930220 1.068947
Zn4   Zn    Zn3+2 0.000030 0.000020 0.069780 1.068961
Zn5   Zn    Zn3+2 0.500000 0.045950 0.500000 0.989776
Zn6   Zn    Zn3+2 0.000000 0.454000 0.500000 0.984236
Zn7   Zn    Zn3+2 0.500000 0.954000 0.500000 0.984404
Zn8   Zn    Zn3+2 0.954000 0.499940 0.045990 1.004992
Zn9   Zn    Zn3+2 0.046000 0.499940 0.954010 1.004992
Zn10  Zn    Zn3+2 0.454000 0.999940 0.045990 1.005313
Zn11  Zn    Zn3+2 0.546000 0.999940 0.954010 1.005315
Zn12  Zn    Zn3+2 0.499970 0.500020 0.930220 1.068529

loop_
_geom_bond_atom_site_label_1
_geom_bond_atom_site_label_2
_ccdc_geom_bond_type
O19   Zn1   S    
C69   C116  S    
C18   C21   A    
C4    C154  A    
C46   C129  S    
C130  O38   A    
C48   H81   S    
C155  H26   S    
C90   C95   A    
O71   S6    S    
C156  H29   S    
C27   H35   S    
O28   Zn5   S    
C136  O43   A    
C148  H30   S    
C94   C111  S    
C17   C29   A    
C73   H63   S    
C55   H104  S    
C53   H95   S    
C89   C94   A    
C59   H8    S    
C92   H24   S    
C126  O27   A    
C25   C133  S    
C44   H69   S    
C46   C72   S    
C99   O25   A    
C93   C110  S    
O76   S8    D    
O30   Zn10  S    
C76   C103  A    
C35   C71   S    
O17   Zn1   S    
C39   H48   S    
O75   S7    S    
C140  O48   A    
C96   C114  S    
C52   H92   S    
C15   C139  S    
C77   S6    S    
C25   C29   A    
H114  O91   S    
O9    Zn3   S    
C86   C90   A    
C93   C101  A    
C13   C124  S    
C35   C66   S    
C132  C137  T    
C131  O35   A    
C72   C113  S    
C17   C21   A    
C69   O15   A    
C85   S9    S    
C55   O62   S    
C68   O60   S    
C51   H91   S    
C1    O1    A    
C32   H41   S    
C102  H57   S    
O35   Zn11  S    
C30   H39   S    
C51   H90   S    
O33   Zn9   S    
C91   C118  S    
C42   H51   S    
C145  O10   A    
O97   S3    D    
C126  O29   A    
H117  O101  S    
O86   S11   D    
C53   O59   S    
C71   C102  S    
O44   Zn11  S    
C56   H118  S    
C119  C141  S    
C61   O4    S    
C71   O49   S    
C105  H99   S    
C107  C120  T    
C44   O51   S    
C109  C122  T    
C147  O13   A    
O64   S1    D    
C80   C117  S    
O14   Zn6   S    
C24   C100  S    
C54   H100  S    
C84   C88   A    
O100  S4    D    
O26   Zn7   S    
C34   O102  S    
C124  O6    S    
C72   H62   S    
O74   S7    D    
C55   H102  S    
C61   H12   S    
C59   H6    S    
C45   O52   S    
C62   H17   S    
C77   C82   A    
C29   H37   S    
C67   H53   S    
C54   O60   S    
C151  C153  A    
C66   O58   S    
C44   H71   S    
C87   S11   S    
C38   O3    S    
C4    C155  A    
C47   O53   S    
C43   O49   S    
O101  S4    S    
C74   H64   S    
O25   Zn7   S    
C31   C36   S    
C1    C115  S    
O73   S7    D    
C52   H94   S    
C37   C57   S    
C101  H66   S    
C78   S7    S    
C128  O32   A    
C70   H56   S    
C76   S5    S    
C13   C32   S    
O65   S1    S    
O8    Zn4   S    
C62   O5    S    
O1    Zn1   S    
C49   H83   S    
C68   H54   S    
C17   S12   S    
C72   O51   S    
O79   S9    D    
C51   H89   S    
O16   Zn7   S    
C34   C35   S    
C58   H3    S    
C150  H32   S    
C79   C84   A    
O13   Zn4   S    
C65   C70   S    
C92   C96   A    
C57   C73   S    
C142  O61   A    
O24   Zn6   S    
C135  H60   S    
O42   Zn9   S    
C56   H120  S    
C28   H38   S    
C37   H46   S    
C38   C65   S    
C36   C46   S    
C61   H15   S    
C82   C108  S    
O43   Zn10  S    
C40   O55   S    
O40   Zn10  S    
C131  O40   A    
O89   S12   D    
C54   H98   S    
C16   C140  S    
C113  H58   S    
O22   Zn5   S    
C134  O41   A    
C19   S3    S    
O61   Zn2   S    
C60   H11   S    
C30   C34   S    
C57   C130  S    
C18   C28   A    
O12   Zn3   S    
C50   H87   S    
C64   H23   S    
C129  O33   A    
C80   O16   A    
C22   C125  S    
C47   H76   S    
C127  O30   A    
C14   C147  S    
C65   C74   S    
C79   C106  S    
O45   Zn12  S    
C12   C145  S    
C13   C99   S    
C11   C127  S    
O82   S10   D    
C5    C9    S    
C99   O21   A    
C2    C40   S    
C141  O94   A    
C139  O46   A    
O31   Zn11  S    
C154  H27   S    
C114  C118  T    
C32   C37   S    
C8    C10   T    
O2    Zn12  S    
C20   S4    S    
C150  C155  A    
H115  O95   S    
C45   H74   S    
C147  O12   A    
C57   C68   S    
O80   S9    D    
C75   C101  A    
C3    H28   S    
C40   H49   S    
C86   S10   S    
C148  C152  A    
C77   C104  A    
O66   S5    D    
C129  O37   A    
C91   O18   A    
C6    C152  S    
C58   H5    S    
C12   C123  T    
C75   C79   A    
C33   H42   S    
C136  O44   A    
C90   H13   S    
C55   H103  S    
C48   H79   S    
C59   H7    S    
C67   O59   S    
C36   H45   S    
C33   C38   S    
C10   C126  S    
C44   H70   S    
C81   C85   A    
C43   H67   S    
C63   O6    S    
C124  H59   S    
C30   H1    S    
C83   C87   A    
C96   C105  A    
C81   C107  S    
C50   O56   S    
C106  C119  T    
C37   O104  S    
C24   C42   S    
O18   Zn7   S    
C108  C121  T    
C50   H85   S    
C142  O2    A    
C134  C137  S    
C13   C41   S    
C63   H20   S    
C25   C28   A    
O32   Zn8   S    
O84   S10   D    
C43   H65   S    
C95   C112  S    
C130  O34   A    
C112  C117  T    
H106  O68   S    
C59   O104  S    
C23   C26   A    
O36   Zn9   S    
C78   C83   A    
C151  H34   S    
C150  C153  A    
C111  C116  T    
H105  O65   S    
O99   S4    D    
C133  C138  T    
C103  H77   S    
C87   C92   A    
C53   H97   S    
O68   S5    S    
H113  O88   S    
C41   C68   S    
C70   O62   S    
C135  O7    S    
O88   S11   S    
C85   C89   A    
O93   S2    D    
C82   C86   A    
C60   H10   S    
C53   H96   S    
C42   C70   S    
C74   O53   S    
H116  O98   S    
C64   H22   S    
O41   Zn8   S    
O46   Zn2   S    
C127  O31   A    
C74   C135  S    
H111  O81   S    
O10   Zn12  S    
C14   C125  T    
C7    C16   T    
C20   C22   A    
C94   C103  A    
C149  H31   S    
C38   H47   S    
C140  O47   A    
C69   O17   A    
O48   Zn4   S    
O50   Zn12  S    
C100  O22   A    
C80   O28   A    
C41   H50   S    
C39   O54   S    
C26   H36   S    
O37   Zn8   S    
C97   O19   A    
C98   O20   A    
C102  O4    S    
C49   H82   S    
C3    C5    A    
C63   H21   S    
O81   S9    S    
C5    C156  A    
C31   H33   S    
C144  O83   A    
C24   C33   S    
C71   H61   S    
O67   S5    D    
C32   H44   S    
C58   H4    S    
H112  O85   S    
C39   C146  S    
C1    O14   A    
O94   Zn2   S    
C35   C128  S    
C145  O11   A    
C48   O54   S    
O78   S8    S    
C54   H101  S    
O23   Zn6   S    
C61   H14   S    
O72   Zn3   S    
C110  C115  T    
C84   S8    S    
C113  O5    S    
C21   C123  S    
H109  O78   S    
C97   C146  S    
C121  C143  S    
O90   S12   D    
C97   O23   A    
C122  C144  S    
C4    C8    S    
C98   O24   A    
C134  O42   A    
C89   H2    S    
O21   Zn5   S    
C143  O8    A    
O95   S2    S    
C78   C105  A    
C149  C156  A    
C31   H40   S    
C2    C113  S    
O91   S12   S    
C47   H75   S    
C62   H18   S    
C66   H52   S    
C151  C154  A    
C60   H9    S    
O87   S11   D    
C6    C15   T    
C34   H43   S    
C139  O45   A    
O96   S3    D    
C83   C109  S    
C23   C27   A    
C19   C27   A    
C52   H93   S    
O92   S2    D    
O34   Zn10  S    
C47   H78   S    
C3    C148  A    
C18   S2    S    
C41   O56   S    
H108  O75   S    
C45   H73   S    
O63   S1    D    
C49   H84   S    
C65   C131  S    
C30   C146  S    
C141  O50   A    
C19   C22   A    
C120  C142  S    
C42   O57   S    
C136  C138  S    
C149  C152  A    
C91   O39   A    
O38   Zn11  S    
C143  O72   A    
C104  H88   S    
O27   Zn8   S    
C40   C67   S    
O69   S6    D    
C2    C31   S    
C45   H72   S    
C7    C153  S    
C73   C124  S    
H107  O71   S    
O20   Zn1   S    
C56   H119  S    
O29   Zn9   S    
O11   Zn2   S    
C9    C11   T    
C2    C98   S    
C58   O103  S    
C48   H80   S    
C64   H25   S    
C24   C135  S    
O98   S3    S    
O47   Zn3   S    
C95   C104  A    
C88   C93   A    
C144  O9    A    
O77   S8    D    
C50   H86   S    
C76   C81   A    
C49   O55   S    
C63   H19   S    
C51   O57   S    
C62   H16   S    
C128  O36   A    
C43   H68   S    
C46   C67   S    
O83   Zn4   S    
C102  C146  S    
C33   H55   S    
C64   O7    S    
C88   H110  S    
C20   C26   A    
C52   O58   S    
C39   C66   S    
C23   C132  S    
C100  O26   A    
O15   Zn6   S    
O70   S6    D    
C73   O52   S    
C36   O103  S    
O39   Zn5   S    
C60   O3    S    
O85   S10   S    
C75   S1    S    
C56   O102  S    
