data_mof_unit_22466.cif
_audit_creation_date              2012-12-10T20:28:46-0500
_audit_creation_method            fapswitch 2.2
_symmetry_space_group_name_H-M    P1
_symmetry_Int_Tables_number       1
_space_group_crystal_system       triclinic
_cell_length_a                    10.687003
_cell_length_b                    10.717094
_cell_length_c                    9.860195
_cell_angle_alpha                 89.90591
_cell_angle_beta                  90.882618
_cell_angle_gamma                 87.795717
_cell_volume                      1128.35141985

loop_
_atom_site_label
_atom_site_type_symbol
_atom_type_description
_atom_site_fract_x
_atom_site_fract_y
_atom_site_fract_z
_atom_type_partial_charge
C1    C     C_R   0.504007 0.260213 0.500077 0.894619
C2    C     C_R   0.551104 0.935614 0.378964 0.187946
C3    C     C_R   0.521316 0.870766 0.498462 -0.164179
C4    C     C_R   0.259984 0.506733 0.498757 0.935763
C5    C     C_R   0.482845 0.936028 0.613295 0.071219
C6    C     C_3   0.532948 0.928369 0.755389 -0.482472
C7    C     C_3   0.525864 0.069823 0.755905 -0.457303
C8    C     C_R   0.392089 0.481415 0.069568 0.213237
C9    C     C_R   0.608581 0.507226 0.073564 -0.130713
C10   C     C_R   0.608579 0.507200 0.929810 -0.158371
C11   C     C_R   0.392046 0.481751 0.926938 0.218804
C12   C     C_R   0.059917 0.614281 0.564793 0.065695
C13   C     C_3   0.276048 0.563652 0.919566 -0.495154
C14   C     C_3   0.275733 0.562627 0.073473 -0.510214
C15   C     C_R   0.511701 0.738726 0.499752 0.914184
C16   C     C_R   0.739580 0.501593 0.501292 0.855858
C17   C     C_R   0.116232 0.723415 0.614506 0.200311
C18   C     C_R   0.049624 0.804710 0.700947 -0.194932
C19   C     C_R   0.923776 0.788285 0.724026 -0.181965
C20   C     C_R   0.862722 0.693027 0.658143 -0.214078
C21   C     C_R   0.930105 0.604249 0.578176 0.062803
C22   C     C_3   0.204728 0.821752 0.423365 -0.799345
C23   C     C_R   0.126773 0.518357 0.494436 -0.110845
C24   C     C_3   0.511227 0.872002 0.147679 -0.754606
C25   C     C_R   0.066058 0.425817 0.423332 -0.239743
C26   C     C_R   0.938302 0.423010 0.425901 -0.215827
C27   C     C_R   0.871387 0.509305 0.504499 -0.078355
C28   C     C_R   0.475866 0.063177 0.613607 0.129273
C29   C     C_R   0.509513 0.128266 0.498958 -0.137796
C30   C     C_R   0.544676 0.064987 0.380534 -0.289875
H1    H     H_    0.118055 0.354224 0.367661 0.151899
H2    H     H_    0.195712 0.512889 0.115911 0.207478
H3    H     H_    0.092794 0.886833 0.741402 0.131665
H4    H     H_    0.871470 0.854570 0.786012 0.141764
H5    H     H_    0.762713 0.692289 0.670084 0.164433
H6    H     H_    0.891464 0.350975 0.369648 0.147948
H7    H     H_    0.571234 0.115413 0.290698 0.174986
H8    H     H_    0.465686 0.886212 0.825353 0.201387
H9    H     H_    0.274682 0.823917 0.620176 0.223326
H10   H     H_    0.292779 0.855626 0.382134 0.239351
H11   H     H_    0.136914 0.902740 0.430219 0.236594
H12   H     H_    0.630257 0.888037 0.761784 0.198370
H13   H     H_    0.167878 0.752051 0.351269 0.246192
H14   H     H_    0.684722 0.900971 0.234664 0.216235
H15   H     H_    0.495537 0.967999 0.106442 0.219884
H16   H     H_    0.420296 0.834752 0.177941 0.245736
H17   H     H_    0.550823 0.811146 0.066684 0.235027
H18   H     H_    0.455090 0.109498 0.826944 0.196800
H19   H     H_    0.619250 0.112023 0.762413 0.205262
H20   H     H_    0.695959 0.516600 0.128491 0.162091
H21   H     H_    0.695852 0.516469 0.877434 0.159204
H22   H     H_    0.292861 0.657092 0.875606 0.208854
H23   H     H_    0.195788 0.515125 0.873465 0.208548
H24   H     H_    0.291573 0.655483 0.119264 0.208677
N1    N     N_R   0.499160 0.499140 0.142800 -0.105137
N2    N     N_R   0.499160 0.499180 0.857150 -0.108852
N3    N     N_2   0.227098 0.766057 0.556152 -0.305771
N4    N     N_2   0.597612 0.872297 0.262163 -0.277365
O1    O     O_R   0.500020 0.316790 0.614690 -0.615054
O2    O     O_R   0.500000 0.316760 0.385350 -0.626416
O3    O     O_R   0.316770 0.500020 0.614690 -0.615838
O4    O     O_R   0.316760 0.499980 0.385350 -0.619437
O5    O     O_R   0.500000 0.683240 0.614650 -0.627415
O6    O     O_R   0.499980 0.683210 0.385310 -0.578652
O7    O     O_R   0.683240 0.500020 0.614650 -0.643338
O8    O     O_R   0.683230 0.499980 0.385310 -0.627454
Zn1   Zn    Zn3+2 0.500010 0.500020 0.653130 0.935481
Zn2   Zn    Zn3+2 0.499990 0.499980 0.346870 0.949594

loop_
_geom_bond_atom_site_label_1
_geom_bond_atom_site_label_2
_ccdc_geom_bond_type
C12   C17   A    
C25   H1    S    
O8    Zn2   S    
C15   O6    A    
C6    H8    S    
C6    C7    S    
C9    N1    A    
C9    H20   S    
C13   H22   S    
C10   N2    A    
C9    C10   A    
O3    Zn1   S    
H14   N4    S    
C19   C20   A    
O4    Zn2   S    
C2    C30   A    
C22   H10   S    
C7    H18   S    
C3    C5    A    
C16   C27   S    
C2    N4    S    
C2    C3    A    
C21   C27   A    
C5    C28   A    
C24   H16   S    
C4    O3    A    
C13   C14   S    
C11   C13   S    
C12   C23   A    
O2    Zn2   S    
C26   C27   A    
C29   C30   A    
C22   N3    S    
C8    C11   A    
C24   H15   S    
O6    Zn2   S    
C8    N1    A    
C1    C29   S    
C28   C29   A    
C14   H24   S    
C17   C18   A    
C13   H23   S    
C1    O1    A    
C5    C6    S    
C18   H3    S    
O5    Zn1   S    
C22   H11   S    
C16   O8    A    
C11   N2    A    
N2    Zn1   S    
C4    O4    A    
C10   H21   S    
C23   C25   A    
C3    C15   S    
C20   C21   A    
C7    H19   S    
C24   N4    S    
C18   C19   A    
C6    H12   S    
C1    O2    A    
C26   H6    S    
C4    C23   S    
N1    Zn2   S    
C15   O5    A    
C16   O7    A    
C8    C14   S    
O1    Zn1   S    
C25   C26   A    
C24   H17   S    
C14   H2    S    
C12   C21   A    
C20   H5    S    
C7    C28   S    
C22   H13   S    
C30   H7    S    
C17   N3    S    
O7    Zn1   S    
C19   H4    S    
H9    N3    S    
