data_mof_unit_43308.cif
_audit_creation_date              2012-12-10T17:48:57-0500
_audit_creation_method            fapswitch 2.2
_symmetry_space_group_name_H-M    P1
_symmetry_Int_Tables_number       1
_space_group_crystal_system       triclinic
_cell_length_a                    10.732411
_cell_length_b                    14.698717
_cell_length_c                    14.739961
_cell_angle_alpha                 65.057926
_cell_angle_beta                  103.468863
_cell_angle_gamma                 103.145519
_cell_volume                      2028.28342384

loop_
_atom_site_label
_atom_site_type_symbol
_atom_type_description
_atom_site_fract_x
_atom_site_fract_y
_atom_site_fract_z
_atom_type_partial_charge
C1    C     C_R   0.478374 0.119685 0.312320 0.828072
C2    C     C_3   0.877934 0.002082 0.496650 0.079874
C3    C     C_3   0.956610 0.986630 0.603758 -0.368501
C4    C     C_3   0.936343 0.106580 0.417697 0.376485
C5    C     C_R   0.474510 0.187151 0.205088 -0.051480
C6    C     C_R   0.541434 0.812759 0.795212 -0.054852
C7    C     C_R   0.472721 0.216172 0.030711 -0.200945
C8    C     C_R   0.464030 0.149375 0.130467 -0.193104
C9    C     C_R   0.491424 0.291792 0.178774 -0.218131
C10   C     C_R   0.507443 0.360744 0.080016 0.084916
C11   C     C_R   0.494702 0.321317 0.004996 0.153698
C12   C     C_R   0.259970 0.000020 0.500017 0.771494
C13   C     C_R   0.534161 0.467442 0.053743 0.067316
C14   C     C_R   0.533575 0.533555 0.950173 0.063936
C15   C     C_R   0.522960 0.491168 0.877895 -0.220662
C16   C     C_R   0.504840 0.387033 0.905266 -0.221216
C17   C     C_R   0.564444 0.510162 0.127697 -0.211925
C18   C     C_R   0.585333 0.614331 0.100496 -0.229229
C19   C     C_R   0.574017 0.679704 0.998951 0.162110
C20   C     C_R   0.546007 0.640033 0.922666 0.089002
C21   C     C_R   0.589552 0.784682 0.972815 -0.195901
C22   C     C_R   0.574270 0.850946 0.871468 -0.199274
C23   C     C_R   0.522978 0.880280 0.687693 0.788076
C24   C     C_R   0.526940 0.708213 0.821217 -0.258629
C25   C     C_R   0.717238 0.286071 0.667177 -0.316077
C26   C     C_R   0.683292 0.204036 0.638009 0.103707
C27   C     C_R   0.518237 0.284813 0.509485 0.012276
C28   C     C_R   0.548282 0.371265 0.535163 -0.022599
C29   C     C_R   0.649955 0.369622 0.616449 0.160980
C30   C     C_R   0.481358 0.458078 0.484284 0.077487
C31   C     C_R   0.517705 0.541492 0.516349 0.079574
C32   C     C_R   0.618897 0.534870 0.598602 -0.242689
C33   C     C_R   0.683482 0.450851 0.647160 -0.199332
C34   C     C_R   0.739876 0.000596 0.498716 0.784342
C35   C     C_R   0.379444 0.464345 0.402567 -0.235574
C36   C     C_R   0.314360 0.548107 0.354409 -0.191488
C37   C     C_R   0.348520 0.629653 0.384644 0.162637
C38   C     C_R   0.451047 0.628440 0.465266 -0.023068
C39   C     C_R   0.280904 0.713035 0.334175 -0.314302
C40   C     C_R   0.315466 0.795383 0.362863 0.074612
C41   C     C_R   0.482082 0.715391 0.490163 0.007311
C42   C     C_3   0.034909 0.913014 0.470842 -0.369537
C43   C     C_3   0.892756 0.911664 0.472986 -0.444793
C44   C     C_3   0.100738 0.987623 0.604129 -0.373008
C45   C     C_3   0.080834 0.102476 0.418345 -0.468631
C46   C     C_3   0.121866 0.000654 0.498578 0.109869
Cu1   Cu    Cu3+1 0.465900 0.918260 0.475680 0.932619
Cu2   Cu    Cu3+1 0.534100 0.081740 0.524320 0.960939
H1    H     H_    0.064591 0.838661 0.525413 0.181009
H2    H     H_    0.160246 0.050734 0.624772 0.185218
H3    H     H_    0.947540 0.046953 0.627638 0.208966
H4    H     H_    0.497760 0.357785 0.847604 0.151182
H5    H     H_    0.496710 0.681382 0.760806 0.151973
H6    H     H_    0.586432 0.931696 0.852916 0.153812
H7    H     H_    0.608453 0.643839 0.159540 0.150587
H8    H     H_    0.464106 0.185647 0.973841 0.138301
H9    H     H_    0.451108 0.068527 0.149369 0.161904
H10   H     H_    0.490937 0.317583 0.236994 0.145220
H11   H     H_    0.045786 0.922391 0.393933 0.192275
H12   H     H_    0.532527 0.536484 0.799642 0.142004
H13   H     H_    0.576816 0.465302 0.207933 0.153451
H14   H     H_    0.612530 0.815445 0.030869 0.138868
H15   H     H_    0.760606 0.449380 0.709907 0.144986
H16   H     H_    0.560098 0.722106 0.548867 0.119536
H17   H     H_    0.263838 0.859997 0.323610 0.124098
H18   H     H_    0.236382 0.549154 0.292306 0.144974
H19   H     H_    0.795268 0.283981 0.729449 0.140836
H20   H     H_    0.734499 0.139207 0.677594 0.120758
H21   H     H_    0.441236 0.278596 0.449977 0.116356
H22   H     H_    0.833056 0.912750 0.400183 0.221377
H23   H     H_    0.650640 0.593523 0.627969 0.126759
H24   H     H_    0.347044 0.405393 0.373641 0.128826
H25   H     H_    0.202055 0.714709 0.272537 0.140290
H26   H     H_    0.857230 0.838639 0.532432 0.176940
H27   H     H_    0.132240 0.915510 0.662774 0.153462
H28   H     H_    0.917898 0.913073 0.660781 0.142127
H29   H     H_    0.145263 0.166252 0.435209 0.171607
H30   H     H_    0.097579 0.112215 0.342785 0.148808
N1    N     N_R   0.585360 0.204570 0.560800 -0.175421
N2    N     N_R   0.414550 0.795430 0.439160 -0.176347
O1    O     O_R   0.455060 0.022100 0.338110 -0.591395
O2    O     O_R   0.512640 0.160150 0.379180 -0.572700
O3    O     O_R   0.288900 0.930980 0.479450 -0.592738
O4    O     O_R   0.346480 0.069030 0.520520 -0.594252
O5    O     O_R   0.487360 0.839850 0.620820 -0.590299
O6    O     O_R   0.544940 0.977900 0.661890 -0.595838
O7    O     O_R   0.653520 0.930970 0.479480 -0.600262
O8    O     O_R   0.711100 0.069020 0.520550 -0.531075
O9    O     O_3   0.932310 0.184366 0.448976 -0.717757
H31   H     H_    0.972392 0.249705 0.401040 0.333110
C47   C     C_2   0.859708 0.130498 0.310963 0.760839
O10   O     O_2   0.860302 0.079575 0.263491 -0.635098
O11   O     O_R   0.791065 0.213073 0.265902 -0.742558
H32   H     H_    0.748963 0.223862 0.193732 0.338895

loop_
_geom_bond_atom_site_label_1
_geom_bond_atom_site_label_2
_ccdc_geom_bond_type
O11   H32   S    
C15   H12   S    
C19   C20   A    
C25   H19   S    
C41   N2    A    
C7    C8    A    
C22   H6    S    
C45   C46   S    
C7    C11   A    
C30   C35   A    
C1    C5    S    
Cu1   O5    S    
Cu2   N1    S    
C28   C29   A    
C19   C21   A    
C18   C19   A    
C27   N1    A    
C30   C31   A    
C36   H18   S    
C1    O1    A    
C15   C16   A    
C6    C22   A    
C29   C33   A    
C12   O4    A    
C9    H10   S    
C42   C46   S    
C17   H13   S    
C20   C24   A    
C23   O6    A    
Cu2   O8    S    
C45   H30   S    
Cu1   O3    S    
C9    C10   A    
C27   H21   S    
C4    C47   S    
C2    C34   S    
C43   H26   S    
C39   H25   S    
C21   C22   A    
Cu1   N2    S    
C44   C46   S    
C32   H23   S    
C4    C45   S    
C25   C29   A    
C3    C44   S    
Cu1   Cu2   S    
C14   C20   A    
C38   C41   A    
C12   C46   S    
C47   O10   D    
C3    H3    S    
C25   C26   A    
Cu2   O4    S    
C12   O3    A    
C35   C36   A    
Cu1   O7    S    
C44   H27   S    
C2    C4    S    
C5    C9    A    
C37   C38   A    
C8    H9    S    
C47   O11   S    
C11   C16   A    
C31   C32   A    
C2    C43   S    
C33   H15   S    
C6    C24   A    
C40   N2    A    
C17   C18   A    
C34   O8    A    
C3    H28   S    
C21   H14   S    
C18   H7    S    
C35   H24   S    
C43   H22   S    
C40   H17   S    
Cu2   O6    S    
C42   C43   S    
C39   C40   A    
C4    O9    S    
C44   H2    S    
C36   C37   A    
C16   H4    S    
C10   C13   A    
C42   H11   S    
C5    C8    A    
C24   H5    S    
C26   N1    A    
C31   C38   A    
C13   C17   A    
C26   H20   S    
C32   C33   A    
C28   C30   A    
C2    C3    S    
C1    O2    A    
C37   C39   A    
C6    C23   S    
Cu2   O2    S    
C7    H8    S    
C34   O7    A    
Cu1   O1    S    
C10   C11   A    
C42   H1    S    
C23   O5    A    
C27   C28   A    
C14   C15   A    
C45   H29   S    
C41   H16   S    
O9    H31   S    
C13   C14   A    
