data_mof_unit_49948.cif
_audit_creation_date              2013-03-05T16:02:15-0500
_audit_creation_method            fapswitch 2.2
_symmetry_space_group_name_H-M    P1
_symmetry_Int_Tables_number       1
_space_group_crystal_system       triclinic
_cell_length_a                    22.204774
_cell_length_b                    6.967564
_cell_length_c                    14.47751
_cell_angle_alpha                 90.075702
_cell_angle_beta                  104.208158
_cell_angle_gamma                 89.512915
_cell_volume                      2171.26608382

loop_
_atom_site_label
_atom_site_type_symbol
_atom_site_description
_atom_site_fract_x
_atom_site_fract_y
_atom_site_fract_z
_atom_type_partial_charge
O1    O     O_R   0.835850 0.638310 0.002120 -0.604805
O2    O     O_R   0.164150 0.361690 0.997880 -0.590718
O3    O     O_R   0.664150 0.138310 0.997880 -0.605405
O4    O     O_R   0.335850 0.861690 0.002120 -0.591587
O5    O     O_R   0.717530 0.306070 0.861970 -0.594188
O6    O     O_R   0.282470 0.693930 0.138030 -0.607348
O7    O     O_R   0.782470 0.806070 0.138030 -0.597101
O8    O     O_R   0.217530 0.193930 0.861970 -0.607898
C1    C     C_R   0.702491 0.476577 0.823643 0.923632
C2    C     C_R   0.298081 0.523712 0.175553 0.969619
C3    C     C_R   0.796751 0.976596 0.176484 0.938003
C4    C     C_R   0.201252 0.024388 0.824575 0.957333
O9    O     O_R   0.838690 0.308440 0.993250 -0.570127
O10   O     O_R   0.161310 0.691560 0.006750 -0.589656
O11   O     O_R   0.661310 0.808440 0.006750 -0.567249
O12   O     O_R   0.338690 0.191560 0.993250 -0.589514
O13   O     O_R   0.786170 0.140510 0.130090 -0.601152
O14   O     O_R   0.213830 0.859490 0.869910 -0.597346
O15   O     O_R   0.713830 0.640510 0.869910 -0.595388
O16   O     O_R   0.286170 0.359490 0.130090 -0.598758
C5    C     C_R   0.866012 0.476916 0.000840 0.961734
C6    C     C_R   0.133883 0.523020 0.997873 0.946020
C7    C     C_R   0.634006 0.978024 0.999595 0.976864
C8    C     C_R   0.365952 0.021580 0.001934 0.939926
O17   O     O_3   0.732630 0.472520 0.044740 -0.290756
O18   O     O_3   0.267370 0.527480 0.955260 -0.282225
O19   O     O_3   0.767370 0.972520 0.955260 -0.280355
O20   O     O_3   0.232630 0.027480 0.044740 -0.281989
V1    V     V_3+5 0.753220 0.196740 0.991700 1.159980
V2    V     V_3+5 0.246780 0.803260 0.008300 1.159528
V3    V     V_3+5 0.746780 0.696740 0.008300 1.161937
V4    V     V_3+5 0.253220 0.303260 0.991700 1.159539
H1    H     H_    0.608330 0.167018 0.308985 0.192024
H2    H     H_    0.389607 0.084584 0.679097 0.175273
H3    H     H_    0.888868 0.674048 0.692036 0.195222
H4    H     H_    0.107422 0.616630 0.318221 0.170577
C9    C     C_R   0.528910 0.945084 0.818055 -0.051062
C10   C     C_R   0.471548 0.985174 0.181370 -0.038937
C11   C     C_R   0.970806 0.454035 0.181047 -0.045916
C12   C     C_R   0.026976 0.488745 0.816898 -0.037706
C13   C     C_R   0.482037 0.983718 0.733490 0.321163
C14   C     C_R   0.518764 0.038850 0.262912 0.358606
C15   C     C_R   0.016711 0.502135 0.265334 0.340130
C16   C     C_R   0.979039 0.542501 0.736109 0.350672
C17   C     C_R   0.423773 0.042365 0.741915 -0.112112
C18   C     C_R   0.573807 0.113389 0.248911 -0.152866
C19   C     C_R   0.073900 0.567880 0.256074 -0.141072
C20   C     C_R   0.923740 0.616213 0.750930 -0.141891
C21   C     C_R   0.407887 0.039018 0.828444 -0.150198
C22   C     C_R   0.587246 0.104916 0.160335 -0.217588
C23   C     C_R   0.090228 0.560881 0.169782 -0.159915
C24   C     C_R   0.910920 0.604798 0.839614 -0.204120
C25   C     C_R   0.452671 0.005395 0.913693 0.100533
C26   C     C_R   0.545202 0.029190 0.081430 0.134507
C27   C     C_R   0.046559 0.516015 0.085208 0.112753
C28   C     C_R   0.953817 0.527624 0.917800 0.122070
C29   C     C_R   0.516329 0.975945 0.909745 0.042625
C30   C     C_R   0.482640 0.001969 0.087904 0.010630
C31   C     C_R   0.983433 0.481623 0.089488 0.035551
C32   C     C_R   0.016615 0.503163 0.911006 0.006573
C33   C     C_R   0.434462 0.005396 0.001776 -0.245930
C34   C     C_R   0.564400 0.990506 0.996227 -0.251483
C35   C     C_R   0.065062 0.510272 0.997271 -0.247772
C36   C     C_R   0.935308 0.488212 0.003147 -0.240404
H5    H     H_    0.360221 0.069713 0.828204 0.136047
H6    H     H_    0.629898 0.165130 0.151696 0.140276
H7    H     H_    0.137146 0.598134 0.169365 0.144411
H8    H     H_    0.868227 0.665470 0.848948 0.136844
C37   C     C_R   0.170526 0.019616 0.720587 -0.170240
C38   C     C_R   0.824210 0.986309 0.281962 -0.223388
C39   C     C_R   0.328204 0.517941 0.279413 -0.177194
C40   C     C_R   0.674301 0.484545 0.718114 -0.208686
C41   C     C_R   0.177526 0.035380 0.556231 -0.149374
C42   C     C_R   0.815392 0.057783 0.442917 -0.111135
C43   C     C_R   0.320888 0.536773 0.443537 -0.157506
C44   C     C_R   0.682669 0.548013 0.556412 -0.096343
C45   C     C_R   0.205115 0.049666 0.653387 0.168207
C46   C     C_R   0.789025 0.048144 0.345162 0.201580
C47   C     C_R   0.293460 0.552252 0.346249 0.174218
C48   C     C_R   0.708947 0.542896 0.654253 0.201559
C49   C     C_R   0.105997 0.995086 0.687794 -0.240387
C50   C     C_R   0.887733 0.950804 0.319347 -0.249307
C51   C     C_R   0.392543 0.488316 0.312235 -0.263044
C52   C     C_R   0.611254 0.443320 0.680651 -0.265267
C53   C     C_R   0.075865 0.998480 0.588568 0.189076
C54   C     C_R   0.917031 0.981219 0.417554 0.208377
C55   C     C_R   0.422576 0.490831 0.411429 0.190038
C56   C     C_R   0.581622 0.471024 0.582183 0.210660
C57   C     C_R   0.113111 0.019208 0.522185 0.000662
C58   C     C_R   0.879395 0.031867 0.480247 -0.033769
C59   C     C_R   0.385238 0.512979 0.477734 -0.001250
C60   C     C_R   0.618802 0.522873 0.519291 -0.030400
C61   C     C_R   0.009805 0.994163 0.553428 0.098556
C62   C     C_R   0.982942 0.978537 0.453547 0.121962
C63   C     C_R   0.488641 0.484060 0.446503 0.098869
C64   C     C_R   0.515656 0.466919 0.546296 0.123291
C65   C     C_R   0.022138 0.991259 0.391049 -0.227987
C66   C     C_R   0.970124 0.029403 0.613947 -0.222517
C67   C     C_R   0.476273 0.476863 0.608791 -0.219336
C68   C     C_R   0.527970 0.521137 0.385944 -0.231183
C69   C     C_R   0.085025 0.031667 0.423411 0.340210
C70   C     C_R   0.906766 0.064059 0.578013 0.337874
C71   C     C_R   0.413145 0.517407 0.576643 0.338755
C72   C     C_R   0.591046 0.558343 0.421762 0.347422
H9    H     H_    0.913597 0.905863 0.269113 0.094478
H10   H     H_    0.080357 0.976963 0.741330 0.095619
H11   H     H_    0.585700 0.398611 0.730821 0.103557
H12   H     H_    0.417921 0.462657 0.258656 0.101443
H13   H     H_    0.207510 0.044990 0.508070 0.160418
H14   H     H_    0.784926 0.093506 0.488407 0.178237
H15   H     H_    0.290796 0.549732 0.491511 0.161847
H16   H     H_    0.713097 0.580406 0.510691 0.178130
H17   H     H_    0.003307 0.999424 0.315390 0.153450
H18   H     H_    0.988359 0.057599 0.688666 0.159666
H19   H     H_    0.494768 0.482281 0.684608 0.154114
H20   H     H_    0.509077 0.550696 0.311469 0.165715
N1    N     N_2   0.587706 0.873254 0.811582 -0.113728
H21   H     H_    0.586383 0.742815 0.778180 0.203811
C73   C     C_3   0.627733 0.012451 0.784049 -0.740395
H22   H     H_    0.676492 0.962775 0.806180 0.268496
H23   H     H_    0.622576 0.149373 0.819453 0.227987
H24   H     H_    0.616632 0.036559 0.706331 0.269881
N2    N     N_2   0.418086 0.889506 0.194764 -0.109310
H25   H     H_    0.402868 0.771257 0.153274 0.177128
C74   C     C_3   0.372870 0.000543 0.229380 -0.699859
H26   H     H_    0.331360 0.028173 0.171347 0.252634
H27   H     H_    0.392254 0.138508 0.259215 0.227612
H28   H     H_    0.358947 0.919742 0.286490 0.260604
N3    N     N_2   0.915746 0.357686 0.187014 -0.114541
H29   H     H_    0.922656 0.216600 0.207776 0.184538
C75   C     C_3   0.870803 0.462004 0.225363 -0.690514
H30   H     H_    0.827769 0.480074 0.169573 0.260750
H31   H     H_    0.887978 0.604152 0.251482 0.228944
H32   H     H_    0.859387 0.381156 0.284631 0.256750
N4    N     N_2   0.082691 0.409514 0.801312 -0.101437
H33   H     H_    0.100532 0.291375 0.841557 0.176525
C76   C     C_3   0.126489 0.546326 0.781552 -0.733902
H34   H     H_    0.173662 0.512695 0.823759 0.261852
H35   H     H_    0.114701 0.692306 0.801245 0.211642
H36   H     H_    0.127235 0.542340 0.705386 0.270987
N5    N     N_R   0.492013 0.969801 0.638508 0.242195
O21   O     O_R   0.453037 0.050694 0.566894 -0.379194
O22   O     O_R   0.534166 0.856976 0.619650 -0.413772
N6    N     N_R   0.513204 0.016006 0.360044 0.246474
O23   O     O_R   0.555684 0.084371 0.430651 -0.381838
O24   O     O_R   0.471297 0.906802 0.380742 -0.365686
N7    N     N_R   0.007573 0.486541 0.360786 0.246087
O25   O     O_R   0.046994 0.564380 0.432324 -0.380868
O26   O     O_R   0.965575 0.376186 0.380054 -0.396414
N8    N     N_R   0.984987 0.523571 0.639049 0.247163
O27   O     O_R   0.941883 0.591777 0.568688 -0.381401
O28   O     O_R   0.028049 0.416915 0.618239 -0.368718
N9    N     N_R   0.116851 0.108125 0.355739 0.218685
O29   O     O_R   0.158306 0.240923 0.381817 -0.452576
O30   O     O_R   0.093441 0.085008 0.264723 -0.451966
N10   N     N_R   0.872853 0.151191 0.640419 0.214629
O31   O     O_R   0.838051 0.301382 0.612125 -0.423357
O32   O     O_R   0.887683 0.110401 0.730964 -0.451093
N11   N     N_R   0.380400 0.582662 0.645620 0.214961
O33   O     O_R   0.341548 0.726139 0.625446 -0.460037
O34   O     O_R   0.400432 0.533557 0.734701 -0.449888
N12   N     N_R   0.623574 0.654778 0.360360 0.219125
O35   O     O_R   0.660228 0.796963 0.393270 -0.416293
O36   O     O_R   0.604230 0.637637 0.268269 -0.456487
N13   N     N_2   0.727742 0.116109 0.311230 -0.100869
H37   H     H_    0.704051 0.040449 0.253060 0.172433
C77   C     C_3   0.724515 0.322889 0.300106 -0.845650
H38   H     H_    0.675965 0.370360 0.275356 0.272210
H39   H     H_    0.748815 0.369341 0.245897 0.254769
H40   H     H_    0.745021 0.394944 0.369056 0.264985
N14   N     N_2   0.266857 0.114164 0.682248 -0.140806
H41   H     H_    0.293020 0.065861 0.637381 0.197557
C78   C     C_3   0.271408 0.320019 0.695915 -0.767221
H42   H     H_    0.279222 0.388962 0.631054 0.250661
H43   H     H_    0.309967 0.352183 0.758319 0.282705
H44   H     H_    0.228513 0.384094 0.709660 0.246515
N15   N     N_2   0.769409 0.614209 0.687463 -0.103133
H45   H     H_    0.794223 0.545886 0.747557 0.167430
C79   C     C_3   0.772715 0.822145 0.687766 -0.787947
H46   H     H_    0.799665 0.866387 0.636666 0.256231
H47   H     H_    0.795226 0.875629 0.760110 0.258796
H48   H     H_    0.726101 0.891902 0.665178 0.249240
N16   N     N_2   0.230887 0.612074 0.316457 -0.138361
H49   H     H_    0.204766 0.555418 0.359123 0.215849
C80   C     C_3   0.223832 0.818354 0.309863 -0.847299
H50   H     H_    0.236763 0.883863 0.381875 0.254623
H51   H     H_    0.175233 0.853585 0.275116 0.284413
H52   H     H_    0.252643 0.881252 0.265453 0.268939

loop_
_geom_bond_atom_site_label_1
_geom_bond_atom_site_label_2
_geom_bond_distance
_ccdc_geom_bond_type
O17   V3    1.705758 S    
C51   C55   1.427360 A    
N14   H41   1.026650 S    
C56   C64   1.429464 A    
O1    C5    1.306398 A    
C8    C33   1.525025 S    
C12   C32   1.439583 A    
C27   C31   1.440288 A    
O19   V1    1.699577 S    
O13   V1    1.995143 S    
O3    C7    1.310277 A    
C63   C64   1.426620 A    
C68   H20   1.076121 S    
C1    C40   1.503069 S    
C68   C72   1.395377 A    
C4    C37   1.493030 S    
C75   H32   1.108300 S    
O15   V3    1.996546 S    
C39   C47   1.396905 A    
C3    C38   1.500535 S    
O4    V2    2.045974 S    
N2    H25   1.028396 S    
C77   H39   1.106041 S    
N13   H37   1.024661 S    
C78   H42   1.106903 S    
O7    C3    1.319169 A    
N14   C78   1.448624 S    
C31   C36   1.431828 A    
C61   C62   1.426859 A    
C21   H5    1.077185 S    
C32   C35   1.435500 A    
O9    V1    2.052361 S    
N10   O31   1.300793 A    
N7    O26   1.295827 A    
C10   C14   1.425010 A    
C55   C59   1.421538 A    
N1    C73   1.441899 S    
C67   H19   1.074146 S    
O4    C8    1.304384 A    
C80   H51   1.098722 S    
C38   C46   1.406177 A    
C64   C67   1.405465 A    
O1    V3    2.039224 S    
C52   H11   1.073538 S    
C51   H12   1.078751 S    
H4    C19   1.074094 S    
O2    V4    2.039226 S    
C14   C18   1.391870 A    
C50   H9    1.076163 S    
O3    V1    2.045976 S    
C58   C70   1.415011 A    
C5    C36   1.533543 S    
C54   C62   1.427938 A    
N2    C74   1.445867 S    
C6    C35   1.529366 S    
C10   C30   1.438718 A    
C37   C45   1.396541 A    
N10   O32   1.301954 A    
C1    O15   1.317880 A    
C7    C34   1.536064 S    
C56   C60   1.419872 A    
C2    O16   1.315339 A    
C45   N14   1.408853 S    
N15   C79   1.451235 S    
C27   C35   1.430932 A    
O2    C6    1.304746 A    
C74   H28   1.107153 S    
C28   C36   1.422379 A    
O14   V2    1.995143 S    
C69   N9    1.445941 S    
N9    O30   1.302718 A    
C12   C16   1.422855 A    
N12   O36   1.302157 A    
C10   N2    1.420540 S    
C24   H8    1.073121 S    
C43   C59   1.401148 A    
C79   H48   1.113646 S    
C2    C39   1.488602 S    
C30   C33   1.429913 A    
O11   C7    1.315970 A    
O12   C8    1.317489 A    
O10   C6    1.318998 A    
H1    C18   1.077217 S    
N13   C77   1.449150 S    
C53   C61   1.430289 A    
O10   V2    2.052359 S    
H3    C20   1.077248 S    
O20   V4    2.163811 S    
C12   N4    1.418195 S    
O16   V4    1.996546 S    
C77   H40   1.111430 S    
O5    V1    1.999674 S    
C73   H23   1.100747 S    
O17   V1    2.155089 S    
C9    C29   1.437583 A    
C76   H36   1.107182 S    
O7    V3    2.002915 S    
N7    O25   1.301755 A    
O8    V4    2.002914 S    
C44   C48   1.393649 A    
N4    H33   1.027808 S    
C37   C49   1.406288 A    
N6    O24   1.297759 A    
C67   C71   1.390909 A    
C54   C58   1.418876 A    
C77   H38   1.097543 S    
C25   C29   1.441571 A    
O18   V4    1.705758 S    
C80   H52   1.105492 S    
C11   C15   1.426363 A    
C11   N3    1.420857 S    
C62   C65   1.404319 A    
C29   C34   1.436209 A    
C66   C70   1.394064 A    
O19   V3    2.163811 S    
C16   N8    1.449035 S    
C28   C32   1.430514 A    
C55   C63   1.430111 A    
N16   H49   1.026753 S    
C13   N5    1.448519 S    
N16   C80   1.445196 S    
C76   H35   1.102578 S    
N11   O33   1.300516 A    
C17   C21   1.382541 A    
O8    C4    1.314807 A    
C11   C31   1.434096 A    
N11   O34   1.301978 A    
O9    C5    1.318003 A    
H2    C17   1.071162 S    
C23   H7    1.077230 S    
C13   C17   1.387072 A    
O11   V3    2.040109 S    
C22   H6    1.074082 S    
C40   C52   1.403656 A    
C78   H43   1.105690 S    
C44   C60   1.400185 A    
O6    V2    1.999676 S    
O18   V2    2.155088 S    
C14   N6    1.450586 S    
C74   H26   1.099906 S    
N8    O28   1.298475 A    
C65   H17   1.073690 S    
C75   H30   1.095745 S    
C70   N10   1.441062 S    
N12   O35   1.301156 A    
C26   C30   1.429331 A    
C73   H24   1.103915 S    
N4    C76   1.445476 S    
C49   H10   1.076530 S    
C3    O13   1.315557 A    
C46   N13   1.406695 S    
C53   C57   1.421639 A    
C57   C69   1.415266 A    
C63   C68   1.406528 A    
C25   C33   1.429253 A    
C52   C56   1.428480 A    
C44   H16   1.080800 S    
C59   C71   1.414234 A    
N6    O23   1.301762 A    
C75   H31   1.097277 S    
C42   H14   1.081081 S    
C19   C23   1.384358 A    
C73   H22   1.103746 S    
C41   H13   1.078272 S    
O12   V4    2.040111 S    
C66   H18   1.076323 S    
C26   C34   1.425224 A    
C76   H34   1.098864 S    
C18   C22   1.387206 A    
C43   H15   1.078730 S    
C48   N15   1.405102 S    
C42   C58   1.401178 A    
N5    O22   1.296524 A    
N3    H29   1.027525 S    
C41   C57   1.399286 A    
C22   C26   1.392196 A    
C50   C54   1.427290 A    
N1    H21   1.026170 S    
C72   N12   1.445121 S    
C71   N11   1.443012 S    
C80   H50   1.109836 S    
C43   C47   1.394485 A    
C21   C25   1.400466 A    
O20   V2    1.699578 S    
C78   H44   1.109802 S    
C47   N16   1.409496 S    
C23   C27   1.399463 A    
C9    C13   1.423107 A    
C38   C50   1.401198 A    
C65   C69   1.390636 A    
C15   N7    1.449499 S    
O6    C2    1.313064 A    
C60   C72   1.416251 A    
C79   H46   1.105198 S    
C16   C20   1.391374 A    
C20   C24   1.384152 A    
C9    N1    1.418643 S    
C40   C48   1.402626 A    
N15   H45   1.023942 S    
C42   C46   1.394234 A    
C4    O14   1.317342 A    
C74   H27   1.100257 S    
C41   C45   1.393316 A    
N8    O27   1.301735 A    
C39   C51   1.404062 A    
O5    C1    1.317130 A    
C79   H47   1.109439 S    
N9    O29   1.299603 A    
N5    O21   1.301691 A    
C15   C19   1.390681 A    
C61   C66   1.406785 A    
C49   C53   1.428251 A    
C24   C28   1.393327 A    
N3    C75   1.446039 S    
