data_mof_unit_54472.cif
_audit_creation_date              2012-12-11T15:31:38-0500
_audit_creation_method            fapswitch 2.2
_symmetry_space_group_name_H-M    P1
_symmetry_Int_Tables_number       1
_space_group_crystal_system       triclinic
_cell_length_a                    6.944591
_cell_length_b                    14.723444
_cell_length_c                    21.314325
_cell_angle_alpha                 74.812127
_cell_angle_beta                  90.439231
_cell_angle_gamma                 90.413598
_cell_volume                      2103.14044395

loop_
_atom_site_label
_atom_site_type_symbol
_atom_type_description
_atom_site_fract_x
_atom_site_fract_y
_atom_site_fract_z
_atom_type_partial_charge
O1    O     O_R   0.648150 0.130050 0.214300 -0.543327
O2    O     O_R   0.351850 0.869950 0.785700 -0.543328
O3    O     O_R   0.320490 0.006660 0.340150 -0.551873
O4    O     O_R   0.679510 0.993340 0.659850 -0.551877
O5    O     O_R   0.146100 0.869940 0.285700 -0.533042
O6    O     O_R   0.853900 0.130060 0.714300 -0.533037
C1    C     C_R   0.489423 0.001582 0.367146 0.675220
C2    C     C_R   0.510577 0.998418 0.632853 0.675202
O7    O     O_R   0.318690 0.137980 0.218120 -0.536807
O8    O     O_R   0.681310 0.862020 0.781880 -0.536809
O9    O     O_R   0.144280 0.002190 0.162800 -0.518048
O10   O     O_R   0.855720 0.997810 0.837200 -0.517997
C3    C     C_R   0.487777 0.175808 0.205831 0.705161
C4    C     C_R   0.512223 0.824191 0.794169 0.705137
O11   O     O_R   0.649960 0.997790 0.337200 -0.544444
O12   O     O_R   0.350040 0.002210 0.662800 -0.544450
O13   O     O_3   0.479300 0.955290 0.231990 -0.353630
O14   O     O_3   0.520700 0.044710 0.768010 -0.353574
V1    V     V_3+5 0.206040 0.008290 0.253340 1.518131
V2    V     V_3+5 0.793960 0.991710 0.746660 1.518204
O15   O     O_R   0.814320 0.993320 0.159850 -0.549038
O16   O     O_R   0.185680 0.006680 0.840150 -0.549032
C5    C     C_R   0.982511 0.997603 0.133172 0.815931
C6    C     C_R   0.017489 0.002401 0.866827 0.815889
O17   O     O_R   0.816120 0.862000 0.281880 -0.533602
O18   O     O_R   0.183880 0.138000 0.718120 -0.533598
C7    C     C_R   0.984636 0.824187 0.294080 0.731680
C8    C     C_R   0.015363 0.175813 0.705920 0.731602
V3    V     V_3+5 0.705540 0.991700 0.246660 1.516451
V4    V     V_3+5 0.294460 0.008300 0.753340 1.516531
O19   O     O_3   0.982150 0.044700 0.268010 -0.384534
O20   O     O_3   0.017850 0.955300 0.731990 -0.384546
C9    C     C_R   0.992734 0.722256 0.321592 -0.090581
C10   C     C_R   0.007263 0.277744 0.678411 -0.090553
C11   C     C_R   0.030739 0.565212 0.307355 0.030058
C12   C     C_R   0.969212 0.434783 0.692654 0.030058
C13   C     C_R   0.010558 0.662358 0.281141 -0.135228
C14   C     C_R   0.989380 0.337636 0.718865 -0.135220
C15   C     C_R   0.983352 0.685528 0.388747 -0.126060
C16   C     C_R   0.016692 0.314480 0.611259 -0.126063
C17   C     C_R   0.992342 0.587598 0.417421 0.085970
C18   C     C_R   0.007696 0.412411 0.582587 0.085974
C19   C     C_R   0.034642 0.528241 0.376269 0.003839
C20   C     C_R   0.965362 0.471763 0.623740 0.003828
C21   C     C_R   0.973431 0.547875 0.486101 -0.116237
C22   C     C_R   0.026623 0.452136 0.513908 -0.116237
C23   C     C_R   0.101938 0.400533 0.472162 0.589557
C24   C     C_R   0.898120 0.599481 0.527846 0.589558
C25   C     C_R   0.096610 0.436414 0.405098 -0.206570
C26   C     C_R   0.903417 0.563594 0.594910 -0.206592
H1    H     H_    0.157050 0.393208 0.376405 0.191042
H2    H     H_    0.842968 0.606801 0.623601 0.191065
H3    H     H_    0.018725 0.264260 0.582463 0.171273
H4    H     H_    0.981358 0.735751 0.417540 0.171267
H5    H     H_    0.989053 0.308119 0.771129 0.171260
H6    H     H_    0.010833 0.691868 0.228876 0.171394
C27   C     C_3   0.923455 0.921897 0.990470 0.642045
C28   C     C_3   0.076548 0.078111 0.009529 0.641907
C29   C     C_3   0.098057 0.925851 0.034542 -0.146585
C30   C     C_3   0.901945 0.074158 0.965456 -0.146546
C31   C     C_3   0.990744 0.997144 0.063064 -0.185060
C32   C     C_3   0.009256 0.002864 0.936935 -0.185054
C33   C     C_3   0.813509 0.992878 0.019163 -0.323793
C34   C     C_3   0.186492 0.007132 0.980836 -0.323947
H7    H     H_    0.660502 0.986148 0.034527 0.161739
H8    H     H_    0.339499 0.013861 0.965472 0.161807
C35   C     C_3   0.681199 0.994428 0.479671 -0.112060
C36   C     C_3   0.318801 0.005572 0.520329 -0.112064
C37   C     C_3   0.603003 0.073653 0.507947 -0.124343
C38   C     C_3   0.396997 0.926347 0.492053 -0.124347
H9    H     H_    0.687859 0.134463 0.514989 0.126815
H10   H     H_    0.312141 0.865537 0.485011 0.126814
H11   H     H_    0.830697 0.989885 0.462681 0.119553
H12   H     H_    0.169303 0.010115 0.537319 0.119548
C39   C     C_3   0.502287 0.998994 0.562250 -0.031018
C40   C     C_3   0.497713 0.001005 0.437750 -0.031020
C41   C     C_3   0.580552 0.919781 0.534787 -0.115074
C42   C     C_3   0.419448 0.080218 0.465213 -0.115071
H13   H     H_    0.646596 0.853510 0.563924 0.145139
H14   H     H_    0.353404 0.146490 0.436076 0.145132
C43   C     C_R   0.498282 0.277773 0.178369 -0.037969
C44   C     C_R   0.501719 0.722223 0.821630 -0.037975
C45   C     C_R   0.543597 0.434690 0.192664 0.023260
C46   C     C_R   0.456340 0.565308 0.807337 0.023263
C47   C     C_R   0.525931 0.337325 0.218733 -0.212083
C48   C     C_R   0.474009 0.662675 0.781268 -0.212076
C49   C     C_R   0.480248 0.314854 0.111440 -0.151637
C50   C     C_R   0.519806 0.685139 0.888557 -0.151632
C51   C     C_R   0.497567 0.412638 0.082661 0.026907
C52   C     C_R   0.502453 0.587357 0.917338 0.026911
C53   C     C_R   0.544266 0.472353 0.123713 -0.029664
C54   C     C_R   0.455707 0.527645 0.876289 -0.029673
C55   C     C_R   0.477490 0.451788 0.013977 -0.030047
C56   C     C_R   0.522530 0.548207 0.986023 -0.030033
C57   C     C_R   0.592287 0.601904 0.027338 -0.243159
C58   C     C_R   0.407705 0.398094 0.972665 -0.243185
C59   C     C_R   0.601677 0.565629 0.094345 0.641499
C60   C     C_R   0.398278 0.434373 0.905658 0.641497
H15   H     H_    0.538278 0.735217 0.917113 0.131895
H16   H     H_    0.461833 0.264775 0.082881 0.131882
H17   H     H_    0.469003 0.692451 0.729023 0.103783
H18   H     H_    0.530897 0.307549 0.270978 0.103789
H19   H     H_    0.647614 0.672326 0.008960 0.208468
H20   H     H_    0.352362 0.327675 0.991046 0.208490
F1    F     F_    0.686120 0.620534 0.128977 -0.648777
F2    F     F_    0.313786 0.379477 0.871030 -0.648797
C61   C     C_2   0.549855 0.492629 0.240178 0.481680
H21   H     H_    0.608729 0.463075 0.288500 0.054499
O21   O     O_2   0.477344 0.570617 0.228016 -0.497985
C62   C     C_2   0.450036 0.507372 0.759822 0.481697
H22   H     H_    0.391150 0.536932 0.711503 0.054491
O22   O     O_2   0.522520 0.429378 0.771981 -0.497986
C63   C     C_2   0.043320 0.506755 0.260185 0.362252
H23   H     H_    0.084367 0.539466 0.210275 0.122150
O23   O     O_2   0.998289 0.423618 0.274797 -0.556153
C64   C     C_2   0.956582 0.493231 0.739828 0.362277
H24   H     H_    0.915523 0.460509 0.789735 0.122114
O24   O     O_2   0.001587 0.576371 0.725225 -0.556156
F3    F     F_    0.196285 0.317965 0.494878 -0.718846
F4    F     F_    0.803799 0.682056 0.505130 -0.718852
C65   C     C_2   0.207962 0.840653 0.070426 0.486553
H25   H     H_    0.276758 0.796828 0.043495 0.069250
O25   O     O_2   0.220973 0.820076 0.129571 -0.520741
C66   C     C_2   0.792055 0.159362 0.929574 0.486402
H26   H     H_    0.723702 0.203326 0.956497 0.069322
O26   O     O_2   0.778574 0.179798 0.870442 -0.520684
F5    F     F_    0.844723 0.840312 0.980412 -0.705036
F6    F     F_    0.155280 0.159696 0.019589 -0.705050

loop_
_geom_bond_atom_site_label_1
_geom_bond_atom_site_label_2
_ccdc_geom_bond_type
C29   C65   S    
C33   H7    S    
C28   F6    S    
C55   C56   A    
O11   V3    S    
O13   V3    S    
C35   C41   S    
O4    C2    A    
V1    O19   S    
C54   C60   A    
C27   C32   S    
C23   C25   A    
C21   C22   A    
C7    C9    S    
C36   C39   S    
O9    V1    S    
C29   C34   S    
C9    C15   A    
C30   C33   S    
C10   C16   A    
C45   C61   S    
C11   C13   A    
C40   C42   S    
C49   H16   S    
O3    C1    A    
C42   H14   S    
C27   C29   S    
C15   H4    S    
C36   H12   S    
C3    C43   S    
C64   H24   S    
C30   C32   S    
C18   C22   A    
C37   H9    S    
O7    C3    A    
C62   H22   S    
C32   C34   S    
O5    C7    A    
C13   H6    S    
O7    V1    S    
O6    C8    A    
C14   H5    S    
O8    V2    S    
C25   H1    S    
C58   C60   A    
C26   H2    S    
C61   H21   S    
O3    V1    S    
O14   V4    S    
C51   C53   A    
C11   C19   A    
C59   F1    S    
C28   C31   S    
C24   C26   A    
C8    C10   S    
C2    O12   A    
C38   C41   S    
O17   V3    S    
C17   C19   A    
C37   C42   S    
C18   C20   A    
C57   H19   S    
C52   C56   A    
C28   C30   S    
C62   O22   D    
C41   H13   S    
C36   C42   S    
C29   C31   S    
C24   F4    S    
O8    C4    A    
C19   C25   A    
C1    O11   A    
C28   C34   S    
C44   C48   A    
O15   V3    S    
C2    C39   S    
C46   C62   S    
C35   C37   S    
C34   H8    S    
C52   C54   A    
O10   V2    S    
O1    V3    S    
C53   C59   A    
C39   C41   S    
C65   H25   S    
C43   C49   A    
C35   H11   S    
C45   C47   A    
C50   C52   A    
O18   V4    S    
C55   C58   A    
O15   C5    A    
C38   C40   S    
O16   C6    A    
C12   C20   A    
O1    C3    A    
C4    C44   S    
C37   C39   S    
C12   C64   S    
O6    V2    S    
C23   F3    S    
C66   O26   D    
C63   H23   S    
V2    O20   S    
C21   C24   A    
C20   C26   A    
C58   H20   S    
C22   C23   A    
C6    C32   S    
O16   V4    S    
C10   C14   A    
C31   C33   S    
C27   C33   S    
C46   C48   A    
C16   C18   A    
C27   F5    S    
C57   C59   A    
C30   C66   S    
C1    C40   S    
O5    V1    S    
O17   C7    A    
C45   C53   A    
O10   C6    A    
O18   C8    A    
C60   F2    S    
O2    V4    S    
C12   C14   A    
V3    O19   S    
V4    O20   S    
C61   O21   D    
C44   C50   A    
O9    C5    A    
O13   V1    S    
C64   O24   D    
C11   C63   S    
O14   V2    S    
C51   C55   A    
C56   C57   A    
O2    C4    A    
C9    C13   A    
C65   O25   D    
C50   H15   S    
O4    V2    S    
C5    C31   S    
C15   C17   A    
C36   C38   S    
C16   H3    S    
C49   C51   A    
C17   C21   A    
C38   H10   S    
C35   C40   S    
C46   C54   A    
C48   H17   S    
O12   V4    S    
C43   C47   A    
C47   H18   S    
C66   H26   S    
C63   O23   D    
