data_mof_unit_44584.cif
_audit_creation_date              2012-12-11T14:38:17-0500
_audit_creation_method            fapswitch 2.2
_symmetry_space_group_name_H-M    P1
_symmetry_Int_Tables_number       1
_space_group_crystal_system       triclinic
_cell_length_a                    19.492895
_cell_length_b                    10.99809
_cell_length_c                    19.73589
_cell_angle_alpha                 89.990197
_cell_angle_beta                  96.524552
_cell_angle_gamma                 89.923279
_cell_volume                      4203.6635927

loop_
_atom_site_label
_atom_site_type_symbol
_atom_type_description
_atom_site_fract_x
_atom_site_fract_y
_atom_site_fract_z
_atom_type_partial_charge
C1    C     C_R   0.706835 0.998448 0.366208 0.546929
C2    C     C_R   0.293163 0.998524 0.633755 0.547235
C3    C     C_R   0.206834 0.498449 0.366208 0.548858
C4    C     C_R   0.793164 0.498526 0.633755 0.547377
C5    C     C_3   0.689057 0.397229 0.467630 -0.032125
C6    C     C_3   0.310905 0.396892 0.532374 -0.032035
C7    C     C_3   0.189057 0.897223 0.467631 -0.033364
C8    C     C_3   0.810906 0.896895 0.532374 -0.032017
C9    C     C_3   0.792470 0.578952 0.514195 -0.253379
C10   C     C_3   0.207540 0.579037 0.485702 -0.253177
C11   C     C_3   0.292467 0.078950 0.514199 -0.253970
C12   C     C_3   0.707539 0.079036 0.485702 -0.253125
C13   C     C_3   0.831059 0.367907 0.542195 -0.235635
C14   C     C_3   0.168847 0.368222 0.457830 -0.235764
C15   C     C_3   0.331059 0.867906 0.542196 -0.235492
C16   C     C_3   0.668849 0.868218 0.457829 -0.235655
C17   C     C_3   0.780285 0.467458 0.560134 0.026553
C18   C     C_3   0.219684 0.467398 0.439834 0.025998
C19   C     C_3   0.280284 0.967453 0.560136 0.026887
C20   C     C_3   0.719685 0.967397 0.439834 0.026613
C21   C     C_3   0.755357 0.415106 0.430431 0.057851
C22   C     C_3   0.244591 0.415088 0.569556 0.058024
C23   C     C_3   0.255356 0.915104 0.430432 0.055508
C24   C     C_3   0.744592 0.915087 0.569556 0.057917
C25   C     C_3   0.775391 0.550082 0.436745 -0.236980
C26   C     C_3   0.224541 0.550150 0.563175 -0.236833
C27   C     C_3   0.275388 0.050082 0.436748 -0.236026
C28   C     C_3   0.724540 0.050149 0.563175 -0.236882
C29   C     C_3   0.821703 0.346760 0.466509 -0.242910
C30   C     C_3   0.178246 0.347020 0.533517 -0.242970
C31   C     C_3   0.321703 0.846761 0.466509 -0.243651
C32   C     C_3   0.678248 0.847017 0.533516 -0.242966
C33   C     C_3   0.494049 0.310307 0.961600 -0.018927
C34   C     C_3   0.506165 0.310376 0.038291 -0.019110
C35   C     C_3   0.990825 0.810663 0.962127 -0.016792
C36   C     C_3   0.004069 0.810240 0.038743 -0.017564
C37   C     C_3   0.427713 0.112908 0.968357 -0.246838
C38   C     C_3   0.572295 0.112414 0.031676 -0.246957
C39   C     C_3   0.928483 0.609131 0.968293 -0.247002
C40   C     C_3   0.072349 0.614599 0.031755 -0.246161
C41   C     C_3   0.554504 0.106685 0.953609 -0.250572
C42   C     C_3   0.445514 0.107261 0.046429 -0.249202
C43   C     C_3   0.055377 0.611130 0.953606 -0.250151
C44   C     C_3   0.945705 0.605044 0.046484 -0.250219
C45   C     C_R   0.535844 0.180222 0.338748 0.540967
C46   C     C_R   0.464164 0.180161 0.661256 0.539459
C47   C     C_R   0.035842 0.680222 0.338747 0.540382
C48   C     C_R   0.964164 0.680161 0.661256 0.538945
C49   C     C_3   0.486724 0.176542 0.933961 0.038029
C50   C     C_3   0.513354 0.176636 0.066021 0.037135
C51   C     C_3   0.986288 0.676866 0.934109 0.036740
C52   C     C_3   0.012775 0.676565 0.066199 0.038627
C53   C     C_1   0.763777 0.429573 0.905511 0.017004
C54   C     C_1   0.236196 0.429843 0.094443 0.015792
C55   C     C_1   0.258723 0.914065 0.901501 0.014162
C56   C     C_1   0.736076 0.929843 0.094407 0.017279
C57   C     C_1   0.749671 0.408861 0.035344 -0.021746
C58   C     C_1   0.250247 0.409133 0.964594 -0.022222
C59   C     C_1   0.237192 0.864356 0.027366 -0.019522
C60   C     C_1   0.750117 0.909072 0.964561 -0.022126
C61   C     C_1   0.756305 0.418748 0.965032 -0.012112
C62   C     C_1   0.243649 0.419085 0.034913 -0.012853
C63   C     C_1   0.247524 0.889043 0.958830 -0.007749
C64   C     C_1   0.743464 0.919038 0.034864 -0.012259
C65   C     C_1   0.744102 0.393826 0.094981 0.001329
C66   C     C_1   0.255810 0.393954 0.904965 0.000791
C67   C     C_1   0.230005 0.842918 0.086183 -0.006215
C68   C     C_1   0.755761 0.893919 0.904950 0.000964
C69   C     C_R   0.741051 0.367280 0.359855 0.535506
C70   C     C_R   0.258927 0.367233 0.640142 0.535014
C71   C     C_R   0.241051 0.867282 0.359853 0.545481
C72   C     C_R   0.758927 0.867232 0.640142 0.535206
C73   C     C_R   0.721772 0.954820 0.162714 0.556135
C74   C     C_R   0.277537 0.952739 0.836483 0.553065
C75   C     C_R   0.221794 0.454810 0.162724 0.552346
C76   C     C_R   0.778187 0.454693 0.837254 0.556259
C77   C     C_R   0.533466 0.179753 0.140035 0.556347
C78   C     C_R   0.466587 0.179673 0.859946 0.555256
C79   C     C_R   0.033147 0.679701 0.140175 0.548229
C80   C     C_R   0.966398 0.679757 0.860039 0.553567
C81   C     C_R   0.736110 0.358813 0.163631 0.539647
C82   C     C_R   0.263869 0.358772 0.836353 0.539412
C83   C     C_R   0.223039 0.812070 0.155944 0.542050
C84   C     C_R   0.763865 0.858757 0.836351 0.539362
C85   C     C_1   0.485473 0.172547 0.594157 -0.006152
C86   C     C_1   0.514527 0.172645 0.405844 -0.005311
C87   C     C_1   0.985471 0.672547 0.594155 -0.006343
C88   C     C_1   0.014524 0.672645 0.405842 -0.006536
C89   C     C_1   0.504288 0.169483 0.464943 -0.042203
C90   C     C_1   0.495708 0.169436 0.535055 -0.042359
C91   C     C_1   0.004285 0.669482 0.464941 -0.042363
C92   C     C_1   0.995705 0.669435 0.535053 -0.042317
C93   C     C_3   0.705864 0.418147 0.543948 -0.199054
C94   C     C_3   0.294071 0.417589 0.456035 -0.199135
C95   C     C_3   0.205864 0.918138 0.543950 -0.198803
C96   C     C_3   0.794073 0.917592 0.456035 -0.199150
Cr1   Cr    Cr6+3 0.765780 0.160710 0.267420 1.050260
Cr2   Cr    Cr6+3 0.234220 0.160710 0.732580 1.049309
Cr3   Cr    Cr6+3 0.265780 0.660710 0.267420 1.046479
Cr4   Cr    Cr6+3 0.734220 0.660710 0.732580 1.049518
Cr5   Cr    Cr6+3 0.612200 0.009560 0.248850 1.034046
Cr6   Cr    Cr6+3 0.387800 0.009560 0.751150 1.031820
Cr7   Cr    Cr6+3 0.112200 0.509560 0.248850 1.028617
Cr8   Cr    Cr6+3 0.887800 0.509560 0.751150 1.032161
Cr9   Cr    Cr6+3 0.616030 0.323720 0.248510 1.078142
Cr10  Cr    Cr6+3 0.383970 0.323720 0.751490 1.077377
Cr11  Cr    Cr6+3 0.116030 0.823720 0.248510 1.078228
Cr12  Cr    Cr6+3 0.883970 0.823720 0.751490 1.078198
H1    H     H_    0.667880 0.482664 0.561724 0.182921
H2    H     H_    0.332107 0.481695 0.438135 0.183241
H3    H     H_    0.167878 0.982649 0.561727 0.182845
H4    H     H_    0.832108 0.981700 0.438137 0.183107
H5    H     H_    0.868359 0.382027 0.445100 0.142692
H6    H     H_    0.131593 0.382461 0.554946 0.142538
H7    H     H_    0.368358 0.882031 0.445101 0.143413
H8    H     H_    0.631594 0.882456 0.554945 0.142553
H9    H     H_    0.847412 0.607049 0.524059 0.107141
H10   H     H_    0.152617 0.607484 0.475787 0.107015
H11   H     H_    0.347409 0.107048 0.524062 0.107108
H12   H     H_    0.652616 0.107482 0.475786 0.106838
H13   H     H_    0.821281 0.568983 0.409631 0.113481
H14   H     H_    0.178613 0.569267 0.590228 0.113111
H15   H     H_    0.321277 0.068989 0.409635 0.115744
H16   H     H_    0.678612 0.069263 0.590228 0.113353
H17   H     H_    0.444994 0.360093 0.946404 0.185971
H18   H     H_    0.555267 0.359794 0.053463 0.185860
H19   H     H_    0.940370 0.856448 0.947532 0.183558
H20   H     H_    0.052995 0.860510 0.053358 0.184198
H21   H     H_    0.378334 0.163467 0.955951 0.125218
H22   H     H_    0.621742 0.162545 0.044048 0.123997
H23   H     H_    0.877988 0.655913 0.955293 0.122276
H24   H     H_    0.121507 0.664925 0.045005 0.107098
H25   H     H_    0.402763 0.146893 0.072068 0.156019
H26   H     H_    0.597301 0.145901 0.927942 0.152123
H27   H     H_    0.902368 0.643954 0.071548 0.152044
H28   H     H_    0.097501 0.654840 0.928859 0.151202
H29   H     H_    0.548431 0.010208 0.937010 0.139956
H30   H     H_    0.451513 0.010781 0.063115 0.141945
H31   H     H_    0.051638 0.515069 0.935850 0.139032
H32   H     H_    0.952413 0.508969 0.063724 0.140896
H33   H     H_    0.580653 0.018192 0.051514 0.152737
H34   H     H_    0.419201 0.018716 0.948588 0.153238
H35   H     H_    0.080931 0.519907 0.050787 0.153330
H36   H     H_    0.922450 0.514325 0.948833 0.154353
H37   H     H_    0.700247 0.331281 0.571761 0.112805
H38   H     H_    0.299596 0.330554 0.428348 0.113328
H39   H     H_    0.200249 0.831269 0.571761 0.112621
H40   H     H_    0.799600 0.830558 0.428348 0.112606
H41   H     H_    0.667694 0.305414 0.458599 0.117441
H42   H     H_    0.332367 0.305062 0.541538 0.117549
H43   H     H_    0.167694 0.805408 0.458598 0.117059
H44   H     H_    0.832369 0.805065 0.541539 0.117524
H45   H     H_    0.260723 0.153820 0.527754 0.116832
H46   H     H_    0.739331 0.153675 0.472116 0.117017
H47   H     H_    0.760728 0.653825 0.527749 0.116823
H48   H     H_    0.239333 0.653674 0.472115 0.116761
H49   H     H_    0.233782 0.109381 0.412646 0.150582
H50   H     H_    0.766104 0.109293 0.587299 0.149581
H51   H     H_    0.733788 0.609382 0.412640 0.149582
H52   H     H_    0.266106 0.609292 0.587299 0.149429
H53   H     H_    0.885531 0.395596 0.558058 0.151903
H54   H     H_    0.114391 0.396308 0.441994 0.151804
H55   H     H_    0.385531 0.895598 0.558058 0.151957
H56   H     H_    0.614393 0.896301 0.441993 0.151923
H57   H     H_    0.822005 0.281767 0.568980 0.160308
H58   H     H_    0.177806 0.281997 0.431059 0.160645
H59   H     H_    0.322007 0.781765 0.568980 0.160302
H60   H     H_    0.677810 0.781993 0.431059 0.160366
H61   H     H_    0.825382 0.248128 0.457282 0.157841
H62   H     H_    0.174606 0.248392 0.542754 0.157685
H63   H     H_    0.325384 0.748129 0.457282 0.157546
H64   H     H_    0.674609 0.748389 0.542754 0.157718
O1    O     O_R   0.783100 0.287550 0.345460 -0.540962
O2    O     O_R   0.216900 0.287550 0.654540 -0.541171
O3    O     O_R   0.283100 0.787550 0.345460 -0.537457
O4    O     O_R   0.716900 0.787550 0.654540 -0.541187
O5    O     O_R   0.554710 0.081900 0.170950 -0.508773
O6    O     O_R   0.445290 0.081900 0.829050 -0.509191
O7    O     O_R   0.054710 0.581900 0.170950 -0.511068
O8    O     O_R   0.945290 0.581900 0.829050 -0.509873
O9    O     O_R   0.545650 0.284910 0.163740 -0.489633
O10   O     O_R   0.454350 0.284910 0.836260 -0.489755
O11   O     O_R   0.045650 0.784910 0.163740 -0.496273
O12   O     O_R   0.954350 0.784910 0.836260 -0.488126
O13   O     O_R   0.677950 0.374280 0.185410 -0.493982
O14   O     O_R   0.322050 0.374280 0.814590 -0.494007
O15   O     O_R   0.177950 0.874280 0.185410 -0.483751
O16   O     O_R   0.822050 0.874280 0.814590 -0.493355
O17   O     O_3   0.664670 0.164660 0.254930 -0.289800
O18   O     O_3   0.335330 0.164660 0.745070 -0.288140
O19   O     O_3   0.164670 0.664660 0.254930 -0.308466
O20   O     O_3   0.835330 0.664660 0.745070 -0.289205
O21   O     O_R   0.760020 0.037400 0.337700 -0.502900
O22   O     O_R   0.239980 0.037400 0.662300 -0.503495
O23   O     O_R   0.260020 0.537400 0.337700 -0.501693
O24   O     O_R   0.739980 0.537400 0.662300 -0.502875
O25   O     O_R   0.666600 0.921990 0.332020 -0.511700
O26   O     O_R   0.333400 0.921990 0.667980 -0.512420
O27   O     O_R   0.166600 0.421990 0.332020 -0.509167
O28   O     O_R   0.833400 0.421990 0.667980 -0.511732
O29   O     O_R   0.557260 0.082670 0.312540 -0.519084
O30   O     O_R   0.442740 0.082670 0.687460 -0.520132
O31   O     O_R   0.057260 0.582670 0.312540 -0.518361
O32   O     O_R   0.942740 0.582670 0.687460 -0.520121
O33   O     O_R   0.548410 0.285740 0.316480 -0.463187
O34   O     O_R   0.451590 0.285740 0.683520 -0.463108
O35   O     O_R   0.048410 0.785740 0.316480 -0.462784
O36   O     O_R   0.951590 0.785740 0.683520 -0.463264
O37   O     O_R   0.680500 0.375040 0.327000 -0.469761
O38   O     O_R   0.319500 0.375040 0.673000 -0.469719
O39   O     O_R   0.180500 0.875040 0.327000 -0.465097
O40   O     O_R   0.819500 0.875040 0.673000 -0.469457
O41   O     O_R   0.780350 0.286720 0.192720 -0.500397
O42   O     O_R   0.219650 0.286720 0.807280 -0.500055
O43   O     O_R   0.280350 0.786720 0.192720 -0.491686
O44   O     O_R   0.719650 0.786720 0.807280 -0.500763
O45   O     O_R   0.757470 0.036630 0.196110 -0.473670
O46   O     O_R   0.242530 0.036630 0.803890 -0.474118
O47   O     O_R   0.257470 0.536630 0.196110 -0.489334
O48   O     O_R   0.742530 0.536630 0.803890 -0.474040
O49   O     O_R   0.663840 0.921160 0.179280 -0.508279
O50   O     O_R   0.336160 0.921160 0.820720 -0.508255
O51   O     O_R   0.163840 0.421160 0.179280 -0.504175
O52   O     O_R   0.836160 0.421160 0.820720 -0.507933
I1    I     I_    0.573183 0.417688 0.919990 -0.382190
I2    I     I_    0.427081 0.418500 0.079761 -0.379595
I3    I     I_    0.066520 0.926313 0.920431 -0.374708
I4    I     I_    0.925175 0.916310 0.081664 -0.377804
I5    I     I_    0.601059 0.511733 0.430954 -0.384448
I6    I     I_    0.398816 0.511305 0.568871 -0.385111
I7    I     I_    0.101055 0.011722 0.430959 -0.383240
I8    I     I_    0.898816 0.011309 0.568874 -0.385074

loop_
_geom_bond_atom_site_label_1
_geom_bond_atom_site_label_2
_ccdc_geom_bond_type
C94   H38   S    
C39   C51   S    
C79   O11   A    
C58   C62   S    
C8    C24   S    
Cr11  O15   S    
C42   H30   S    
C9    H9    S    
C14   C18   S    
C1    O21   A    
C35   C36   S    
C8    C96   S    
Cr12  O36   S    
C83   O15   A    
Cr3   O43   S    
Cr7   O19   S    
C9    C25   S    
C7    I7    S    
C16   H56   S    
C67   C83   S    
C96   H4    S    
C11   C19   S    
C28   H50   S    
C31   H63   S    
C48   O36   A    
C82   O14   A    
C42   H25   S    
C35   I3    S    
Cr8   O32   S    
C13   C29   S    
C16   C20   S    
C8    H44   S    
C10   C18   S    
C75   O47   A    
C72   O40   A    
Cr5   O17   S    
C74   O46   A    
Cr6   O26   S    
Cr2   O2    S    
Cr5   O25   S    
Cr7   O7    S    
Cr11  O39   S    
C33   C49   S    
C6    C22   S    
Cr3   O23   S    
Cr9   O37   S    
C49   C78   S    
Cr2   O22   S    
C3    C18   S    
C46   O34   A    
C48   O32   A    
C95   H3    S    
Cr1   O21   S    
C37   C42   S    
C51   C80   S    
Cr10  O10   S    
C21   C25   S    
Cr9   O9    S    
Cr7   O51   S    
C43   C51   S    
C12   H12   S    
C55   C74   S    
C13   H57   S    
C41   C49   S    
C40   C43   S    
C81   O41   A    
C57   C61   S    
C71   O3    A    
C78   O6    A    
C6    C94   S    
Cr8   O20   S    
C55   C63   T    
Cr11  O11   S    
C25   H51   S    
C3    O27   A    
C56   C64   T    
C93   H37   S    
C73   O49   A    
C23   C27   S    
C14   H58   S    
C52   C79   S    
Cr11  O35   S    
C36   C52   S    
Cr2   O18   S    
C46   C85   S    
C59   C67   T    
C5    C93   S    
C44   C52   S    
C44   H27   S    
Cr1   O17   S    
C32   H64   S    
C20   C96   S    
C75   O51   A    
C36   I4    S    
C45   O29   A    
C82   O42   A    
C87   C92   T    
Cr8   O28   S    
Cr6   O6    S    
C15   H59   S    
Cr4   O20   S    
C69   O1    A    
C14   C30   S    
C40   H24   S    
C31   H7    S    
C41   H26   S    
Cr12  O40   S    
C58   C66   T    
Cr7   O31   S    
Cr4   O24   S    
C96   H40   S    
C34   C50   S    
Cr1   O1    S    
C37   H34   S    
Cr12  O12   S    
C73   O45   A    
C68   C84   S    
Cr9   O17   S    
C95   H39   S    
Cr10  O14   S    
C38   C41   S    
C11   H11   S    
C10   H48   S    
C77   O9    A    
C81   O13   A    
C27   H15   S    
C27   H49   S    
C54   C62   T    
C40   C52   S    
C21   C29   S    
C15   C31   S    
C94   H2    S    
C3    O23   A    
C21   C69   S    
C2    O22   A    
C23   C31   S    
C14   H54   S    
C15   C19   S    
C24   C32   S    
Cr4   O4    S    
C10   H10   S    
C23   C71   S    
C66   C82   S    
C37   C49   S    
C65   C81   S    
C88   C91   T    
C11   C27   S    
C34   H18   S    
C57   C65   T    
C12   C20   S    
C22   C70   S    
C33   H17   S    
C33   C34   S    
C7    H43   S    
C48   C87   S    
C47   O31   A    
Cr7   O27   S    
C32   H8    S    
C35   H19   S    
C70   O2    A    
Cr4   O48   S    
Cr12  O20   S    
C42   C50   S    
C30   H62   S    
C4    C17   S    
C9    C17   S    
Cr3   O47   S    
C71   O39   A    
Cr2   O46   S    
C35   C51   S    
C18   C94   S    
C38   H33   S    
Cr1   O45   S    
C59   C63   S    
C84   O16   A    
C53   C76   S    
C17   C93   S    
Cr10  O18   S    
C53   C61   T    
C13   H53   S    
C50   C77   S    
C38   H22   S    
C36   H20   S    
C19   C95   S    
C24   C72   S    
C12   C28   S    
C30   H6    S    
C33   I1    S    
Cr5   O49   S    
C4    O24   A    
C29   H5    S    
Cr4   O44   S    
C1    C20   S    
C45   O33   A    
C56   C73   S    
C22   C30   S    
C34   I2    S    
C2    C19   S    
C2    O26   A    
C41   H29   S    
Cr12  O16   S    
C1    O25   A    
C24   C28   S    
C12   H46   S    
C86   C89   T    
Cr10  O34   S    
C83   O43   A    
C85   C90   T    
C28   H16   S    
Cr9   O33   S    
C39   C44   S    
C38   C50   S    
C47   O35   A    
C43   H31   S    
C16   C32   S    
C7    C95   S    
C74   O50   A    
Cr9   O13   S    
C13   C17   S    
C60   C64   S    
C60   C68   T    
C29   H61   S    
C47   C88   S    
C6    I6    S    
C45   C86   S    
Cr6   O30   S    
C80   O8    A    
Cr5   O29   S    
Cr3   O19   S    
C8    I8    S    
C10   C26   S    
Cr8   O8    S    
C26   H52   S    
C39   H23   S    
C16   H60   S    
C7    C23   S    
C5    H41   S    
Cr6   O18   S    
C37   H21   S    
C69   O37   A    
C5    I5    S    
C80   O12   A    
Cr2   O42   S    
C43   H28   S    
C72   O4    A    
C77   O5    A    
Cr3   O3    S    
Cr5   O5    S    
C11   H45   S    
C54   C75   S    
C6    H42   S    
C76   O52   A    
C4    O28   A    
C79   O7    A    
C5    C21   S    
C39   H36   S    
C9    H47   S    
C44   H32   S    
C22   C26   S    
C40   H35   S    
Cr11  O19   S    
C76   O48   A    
Cr1   O41   S    
C26   H14   S    
C70   O38   A    
C78   O10   A    
C89   C90   S    
Cr6   O50   S    
C25   H13   S    
Cr8   O52   S    
C15   H55   S    
C91   C92   S    
C84   O44   A    
C93   H1    S    
C46   O30   A    
Cr10  O38   S    
