data_mof_unit_26214.cif
_audit_creation_date              2012-12-10T18:58:41-0500
_audit_creation_method            fapswitch 2.2
_symmetry_space_group_name_H-M    P1
_symmetry_Int_Tables_number       1
_space_group_crystal_system       triclinic
_cell_length_a                    10.610047
_cell_length_b                    9.924587
_cell_length_c                    17.425758
_cell_angle_alpha                 90.414883
_cell_angle_beta                  91.065438
_cell_angle_gamma                 89.638327
_cell_volume                      1834.53778638

loop_
_atom_site_label
_atom_site_type_symbol
_atom_type_description
_atom_site_fract_x
_atom_site_fract_y
_atom_site_fract_z
_atom_type_partial_charge
C1    C     C_R   0.260423 0.500865 0.500138 1.035251
C2    C     C_R   0.498104 0.500139 0.646414 0.934968
C3    C     C_R   0.871451 0.499190 0.500685 -0.407280
C4    C     C_R   0.127629 0.504199 0.499532 -0.397633
C5    C     C_R   0.384902 0.592850 0.842186 0.512882
C6    C     C_R   0.465639 0.367283 0.151943 0.484906
C7    C     C_R   0.415742 0.608298 0.152333 0.501725
C8    C     C_R   0.503768 0.380985 0.848947 0.493209
C9    C     C_R   0.406981 0.597454 0.763361 -0.299629
C10   C     C_R   0.493194 0.373996 0.230254 -0.273276
C11   C     C_R   0.445483 0.613482 0.230859 -0.330263
C12   C     C_R   0.739246 0.499669 0.500320 1.045228
C13   C     C_R   0.530121 0.390748 0.771375 -0.310472
C14   C     C_R   0.481648 0.498564 0.728644 -0.171935
C15   C     C_R   0.481727 0.496423 0.270090 -0.172637
C16   C     C_R   0.557495 0.072842 0.558502 0.352053
C17   C     C_R   0.448336 0.928060 0.439632 0.386069
C18   C     C_R   0.450230 0.071457 0.439116 0.358227
C19   C     C_R   0.552354 0.927990 0.560402 0.352594
C20   C     C_R   0.432435 0.482970 0.883891 -0.123346
C21   C     C_R   0.429823 0.485234 0.113475 -0.117845
C22   C     C_3   0.355049 0.819434 0.865573 -0.305626
C23   C     C_1   0.420106 0.481697 0.964448 0.116901
C24   C     C_3   0.387161 0.158635 0.127312 -0.313358
C25   C     C_3   0.285885 0.795585 0.145979 -0.330463
C26   C     C_3   0.478181 0.163766 0.884044 -0.284871
C27   C     C_3   0.751906 0.128293 0.605670 -0.284941
C28   C     C_3   0.279553 0.825394 0.379895 -0.273549
C29   C     C_3   0.293611 0.164080 0.364273 -0.195209
C30   C     C_3   0.550503 0.886085 0.689546 -0.229569
C31   C     C_3   0.099493 0.511170 0.308497 -0.311157
C32   C     C_3   0.850608 0.512011 0.679610 -0.236096
C33   C     C_3   0.876818 0.257879 0.369070 -0.247997
C34   C     C_1   0.419321 0.482423 0.032548 0.131882
C35   C     C_3   0.131321 0.755950 0.620213 -0.223921
C36   C     C_R   0.062890 0.457620 0.434067 0.351448
C37   C     C_R   0.935796 0.555674 0.563859 0.354132
C38   C     C_R   0.932475 0.446587 0.436613 0.365946
C39   C     C_R   0.066157 0.561627 0.562354 0.357405
C40   C     C_R   0.498329 0.499342 0.353242 0.942582
H1    H     H_    0.363801 0.675725 0.728887 0.180091
H2    H     H_    0.397693 0.068458 0.089942 0.210755
H3    H     H_    0.323804 0.862384 0.192166 0.178309
H4    H     H_    0.211647 0.728317 0.168573 0.146261
H5    H     H_    0.240006 0.861173 0.102263 0.192224
H6    H     H_    0.473985 0.126851 0.823581 0.139576
H7    H     H_    0.381524 0.185261 0.904981 0.155150
H8    H     H_    0.518611 0.081573 0.919790 0.202707
H9    H     H_    0.801815 0.196333 0.646544 0.158959
H10   H     H_    0.780729 0.155549 0.546857 0.154141
H11   H     H_    0.783784 0.024219 0.619105 0.197331
H12   H     H_    0.524915 0.283686 0.259437 0.223634
H13   H     H_    0.230989 0.864816 0.431797 0.109456
H14   H     H_    0.271660 0.714592 0.377484 0.205843
H15   H     H_    0.227325 0.861135 0.328258 0.129442
H16   H     H_    0.246121 0.082821 0.331576 0.130164
H17   H     H_    0.282076 0.255495 0.328892 0.224532
H18   H     H_    0.245974 0.181094 0.420002 0.160170
H19   H     H_    0.575272 0.805263 0.730796 0.179024
H20   H     H_    0.445794 0.889866 0.683462 0.104605
H21   H     H_    0.586341 0.981059 0.715397 0.189270
H22   H     H_    0.079541 0.616218 0.328092 0.136976
H23   H     H_    0.440783 0.708535 0.260931 0.235554
H24   H     H_    0.018407 0.472443 0.273998 0.227601
H25   H     H_    0.181468 0.515289 0.270018 0.164824
H26   H     H_    0.940557 0.464310 0.699566 0.174420
H27   H     H_    0.784417 0.434520 0.656917 0.133370
H28   H     H_    0.806106 0.559616 0.730223 0.191780
H29   H     H_    0.853799 0.207915 0.423902 0.136901
H30   H     H_    0.973357 0.228966 0.351288 0.176642
H31   H     H_    0.809883 0.219503 0.324524 0.191154
H32   H     H_    0.165848 0.792826 0.564287 0.132603
H33   H     H_    0.194526 0.797357 0.665794 0.153530
H34   H     H_    0.587792 0.313820 0.744615 0.207261
H35   H     H_    0.035286 0.796529 0.630659 0.198014
H36   H     H_    0.321277 0.856714 0.808851 0.142155
H37   H     H_    0.459770 0.825440 0.870490 0.144804
H38   H     H_    0.316001 0.887948 0.909875 0.197852
H39   H     H_    0.292863 0.203891 0.114253 0.142756
H40   H     H_    0.392504 0.124207 0.187917 0.184500
N1    N     N_R   0.500000 0.857200 0.500000 -0.203426
N2    N     N_R   0.500000 0.142800 0.500000 -0.200479
O1    O     O_R   0.316770 0.614620 0.500000 -0.638378
O2    O     O_3   0.485219 0.248871 0.111325 -0.573640
O3    O     O_3   0.384492 0.723224 0.110766 -0.581213
O4    O     O_3   0.556254 0.277608 0.891925 -0.575901
O5    O     O_3   0.620869 0.144433 0.615307 -0.580092
O6    O     O_3   0.407842 0.861051 0.374177 -0.566206
O7    O     O_3   0.423691 0.137380 0.371344 -0.575082
O8    O     O_3   0.609851 0.856570 0.619453 -0.535958
O9    O     O_3   0.129169 0.422112 0.369199 -0.642408
O10   O     O_3   0.871217 0.612388 0.624551 -0.567645
O11   O     O_3   0.862686 0.399064 0.374154 -0.599015
O12   O     O_R   0.683230 0.385380 0.500000 -0.613782
O13   O     O_3   0.134327 0.613882 0.624175 -0.587793
O14   O     O_R   0.683230 0.614620 0.500000 -0.568564
O15   O     O_R   0.316770 0.385380 0.500000 -0.624427
O16   O     O_R   0.500010 0.614710 0.389120 -0.584666
O17   O     O_R   0.499990 0.385290 0.610880 -0.580054
O18   O     O_R   0.499990 0.614710 0.610880 -0.567659
O19   O     O_R   0.500010 0.385290 0.389120 -0.566595
O20   O     O_3   0.310188 0.688155 0.878795 -0.576435
Zn1   Zn    Zn3+2 0.500000 0.653120 0.500000 1.021826
Zn2   Zn    Zn3+2 0.500000 0.346880 0.500000 1.006920

loop_
_geom_bond_atom_site_label_1
_geom_bond_atom_site_label_2
_ccdc_geom_bond_type
C4    C36   A    
C8    C13   A    
C17   O6    S    
C24   H2    S    
C22   H36   S    
C30   O8    S    
C10   H12   S    
C25   H3    S    
C29   O7    S    
C5    C20   A    
C7    O3    S    
C7    C11   A    
C35   H35   S    
C8    C20   A    
O1    Zn1   S    
C11   H23   S    
C10   C15   A    
C40   O16   A    
O16   Zn1   S    
C3    C12   S    
C40   O19   A    
C11   C15   A    
C24   H40   S    
C3    C38   A    
C30   H20   S    
C28   O6    S    
C16   O5    S    
C4    C39   A    
C17   N1    A    
C27   H10   S    
C33   H29   S    
C32   H28   S    
O17   Zn2   S    
C2    O18   A    
C13   C14   A    
C31   H22   S    
C12   O12   A    
C25   H4    S    
C16   N2    A    
C28   H15   S    
C27   H11   S    
C6    O2    S    
C22   H38   S    
C1    O15   A    
C28   H14   S    
C21   C34   S    
C7    C21   A    
C6    C21   A    
O18   Zn1   S    
C9    C14   A    
C5    C9    A    
C24   H39   S    
C20   C23   S    
C26   O4    S    
C23   C34   T    
C30   H19   S    
C25   O3    S    
C17   C18   A    
C29   H18   S    
C27   O5    S    
C39   O13   S    
C33   H30   S    
C32   H27   S    
C26   H7    S    
C36   O9    S    
C29   H17   S    
C35   H32   S    
O19   Zn2   S    
C31   O9    S    
O14   Zn1   S    
C25   H5    S    
C32   H26   S    
N1    Zn1   S    
C31   H25   S    
C5    O20   S    
C35   H33   S    
C37   O10   S    
C18   O7    S    
C31   H24   S    
C22   H37   S    
C33   O11   S    
C6    C10   A    
C28   H13   S    
C29   H16   S    
C26   H8    S    
C1    O1    A    
C9    H1    S    
C22   O20   S    
C1    C4    S    
C36   C38   A    
C2    O17   A    
C24   O2    S    
C37   C39   A    
C19   O8    S    
C32   O10   S    
C16   C19   A    
C38   O11   S    
C18   N2    A    
C8    O4    S    
C2    C14   S    
C15   C40   S    
O15   Zn2   S    
C33   H31   S    
O12   Zn2   S    
C13   H34   S    
C3    C37   A    
C30   H21   S    
N2    Zn2   S    
C12   O14   A    
C19   N1    A    
C26   H6    S    
C27   H9    S    
C35   O13   S    
