data_mof_unit_49668.cif
_audit_creation_date              2012-12-10T18:59:11-0500
_audit_creation_method            fapswitch 2.2
_symmetry_space_group_name_H-M    P1
_symmetry_Int_Tables_number       1
_space_group_crystal_system       triclinic
_cell_length_a                    9.904609
_cell_length_b                    10.620475
_cell_length_c                    16.847091
_cell_angle_alpha                 88.329004
_cell_angle_beta                  92.698186
_cell_angle_gamma                 91.146807
_cell_volume                      1769.1474443

loop_
_atom_site_label
_atom_site_type_symbol
_atom_type_description
_atom_site_fract_x
_atom_site_fract_y
_atom_site_fract_z
_atom_type_partial_charge
C1    C     C_R   0.498812 0.260595 0.498075 0.849038
C2    C     C_R   0.501183 0.739426 0.501918 0.853779
C3    C     C_R   0.421997 0.932944 0.443808 -0.172987
C4    C     C_R   0.577950 0.067151 0.556165 -0.172191
C5    C     C_R   0.502172 0.871945 0.502821 -0.151543
C6    C     C_R   0.497803 0.128125 0.497153 -0.149083
C7    C     C_R   0.072090 0.586179 0.455331 -0.122015
C8    C     C_R   0.927912 0.413825 0.544689 -0.121544
C9    C     C_R   0.928940 0.587726 0.455035 0.161948
C10   C     C_R   0.071080 0.412361 0.545053 0.163353
C11   C     C_R   0.515765 0.494530 0.653088 0.860797
C12   C     C_R   0.483961 0.499147 0.346925 0.859823
C13   C     C_R   0.522616 0.472593 0.738555 -0.064753
C14   C     C_R   0.474417 0.480107 0.261917 -0.070000
C15   C     C_R   0.405015 0.475409 0.780704 -0.242241
C16   C     C_R   0.587071 0.441467 0.223054 -0.241821
C17   C     C_R   0.410868 0.449967 0.861473 -0.183019
C18   C     C_R   0.574224 0.412834 0.143599 -0.181948
C19   C     C_R   0.535175 0.420819 0.901762 0.280760
C20   C     C_R   0.448325 0.424391 0.101372 0.281042
C21   C     C_R   0.653810 0.413453 0.859155 0.098855
C22   C     C_R   0.333074 0.459575 0.140777 0.104600
C23   C     C_R   0.645755 0.440082 0.777258 -0.212244
C24   C     C_R   0.348346 0.488407 0.221175 -0.211838
C25   C     C_R   0.419593 0.062760 0.439520 -0.006717
C26   C     C_R   0.580464 0.937351 0.560407 -0.006072
H1    H     H_    0.684695 0.431629 0.254180 0.171600
H2    H     H_    0.308474 0.498469 0.751515 0.168950
H3    H     H_    0.663472 0.383349 0.114995 0.158148
H4    H     H_    0.318230 0.457098 0.892523 0.156148
H5    H     H_    0.734674 0.435886 0.742825 0.157083
H6    H     H_    0.262665 0.517169 0.253087 0.156698
H7    H     H_    0.364285 0.878440 0.400005 0.181214
H8    H     H_    0.635631 0.121670 0.599978 0.180600
H9    H     H_    0.127080 0.654326 0.419585 0.145140
H10   H     H_    0.872928 0.345758 0.580502 0.142816
N1    N     N_2   0.546755 0.411895 0.985654 -0.208154
N2    N     N_2   0.436444 0.413566 0.018014 -0.209777
N3    N     N_R   0.857210 0.499970 0.500020 -0.104650
N4    N     N_R   0.142790 0.500030 0.499980 -0.104873
O1    O     O_R   0.614620 0.316750 0.500010 -0.611139
O2    O     O_R   0.385380 0.683250 0.499990 -0.608696
O3    O     O_R   0.385290 0.316780 0.500000 -0.637979
O4    O     O_R   0.614710 0.683220 0.500000 -0.636409
O5    O     O_R   0.627460 0.498830 0.616130 -0.626144
O6    O     O_R   0.372540 0.501170 0.383870 -0.626027
O7    O     O_R   0.398130 0.498850 0.616130 -0.636223
O8    O     O_R   0.601870 0.501150 0.383870 -0.636623
Zn1   Zn    Zn3+2 0.653130 0.499980 0.500000 0.927958
Zn2   Zn    Zn3+2 0.346870 0.500020 0.500000 0.928847
C27   C     C_3   0.787025 0.382483 0.903467 -0.415699
C28   C     C_3   0.906458 0.357913 0.851072 -0.361519
C29   C     C_3   0.032653 0.321830 0.901257 -0.882193
H11   H     H_    0.066780 0.401822 0.938529 0.260813
H12   H     H_    0.011951 0.237875 0.939970 0.271134
H13   H     H_    0.114925 0.299464 0.861671 0.252317
H14   H     H_    0.879380 0.279997 0.810247 0.236504
H15   H     H_    0.931410 0.444371 0.815516 0.220947
H16   H     H_    0.814452 0.462375 0.942338 0.212003
H17   H     H_    0.770684 0.297108 0.941904 0.213528
C30   C     C_3   0.197013 0.466910 0.094950 -0.417962
C31   C     C_3   0.077733 0.507370 0.143128 -0.354198
C32   C     C_3   0.946412 0.509644 0.092396 -0.897247
H18   H     H_    0.956668 0.575061 0.040292 0.267467
H19   H     H_    0.920032 0.413405 0.071930 0.263791
H20   H     H_    0.863519 0.542668 0.128264 0.255044
H21   H     H_    0.063877 0.440135 0.194067 0.229442
H22   H     H_    0.097937 0.603500 0.165858 0.227369
H23   H     H_    0.207215 0.534583 0.043856 0.206814
H24   H     H_    0.172812 0.372222 0.071050 0.214329
C33   C     C_2   0.341015 0.127647 0.373369 0.368010
H25   H     H_    0.352012 0.228381 0.362740 0.087951
O9    O     O_2   0.263111 0.068806 0.329256 -0.581889
C34   C     C_2   0.659328 0.872549 0.626452 0.366510
H26   H     H_    0.648482 0.771798 0.637079 0.087127
O10   O     O_2   0.737336 0.931474 0.670463 -0.582233
C35   C     C_3   0.861734 0.689172 0.403550 -0.412973
C36   C     C_3   0.882916 0.818985 0.440646 -0.342209
C37   C     C_3   0.812631 0.921877 0.389925 -0.820223
H27   H     H_    0.857194 0.930212 0.330678 0.264874
H28   H     H_    0.702836 0.900133 0.381919 0.261696
H29   H     H_    0.825862 0.013537 0.419711 0.254609
H30   H     H_    0.842516 0.817169 0.501046 0.247479
H31   H     H_    0.992610 0.843080 0.446516 0.221666
H32   H     H_    0.905945 0.690857 0.344013 0.172499
H33   H     H_    0.753699 0.669789 0.392406 0.264019
C38   C     C_3   0.138359 0.311368 0.596905 -0.415796
C39   C     C_3   0.117236 0.181162 0.560365 -0.343529
C40   C     C_3   0.187831 0.078911 0.611482 -0.817849
H34   H     H_    0.297572 0.100927 0.619352 0.261783
H35   H     H_    0.143366 0.071115 0.670758 0.264897
H36   H     H_    0.174802 0.986934 0.582092 0.254807
H37   H     H_    0.007560 0.156890 0.554679 0.221501
H38   H     H_    0.157545 0.182386 0.499937 0.247182
H39   H     H_    0.246418 0.330732 0.607840 0.264196
H40   H     H_    0.094311 0.310307 0.656488 0.170729

loop_
_geom_bond_atom_site_label_1
_geom_bond_atom_site_label_2
_ccdc_geom_bond_type
C30   H24   S    
O4    Zn1   S    
C38   C39   S    
C32   H19   S    
C5    C26   A    
C11   O7    A    
C12   O8    A    
C35   C36   S    
C31   C32   S    
C34   O10   D    
C31   H21   S    
C22   C24   A    
C19   C21   A    
C6    C25   A    
C3    H7    S    
C9    N3    A    
C13   C23   A    
C10   N4    A    
C8    H10   S    
C14   C24   A    
C19   N1    S    
C26   C34   S    
C36   H30   S    
C1    O3    A    
C2    O4    A    
C38   H39   S    
C7    N4    A    
C25   C33   S    
C8    N3    A    
C40   H35   S    
C16   H1    S    
C32   H20   S    
C35   H32   S    
C17   H4    S    
O1    Zn1   S    
O7    Zn2   S    
C39   H38   S    
C29   H12   S    
C4    H8    S    
C10   C38   S    
C34   H26   S    
C27   C28   S    
C3    C25   A    
C4    C6    A    
C37   H28   S    
C36   C37   S    
C29   H11   S    
C1    C6    S    
C12   O6    A    
C23   H5    S    
C24   H6    S    
N1    N2    D    
C36   H31   S    
C20   N2    S    
O5    Zn1   S    
C38   H40   S    
C18   H3    S    
C9    C35   S    
C40   H36   S    
C28   H15   S    
O2    Zn2   S    
C1    O1    A    
O8    Zn1   S    
N3    Zn1   S    
C20   C22   A    
C35   H33   S    
C13   C15   A    
C14   C16   A    
C11   O5    A    
C2    C5    S    
C27   H16   S    
C21   C27   S    
C28   C29   S    
C33   O9    D    
C29   H13   S    
C30   H23   S    
C15   C17   A    
C39   H37   S    
C7    H9    S    
C16   C18   A    
C12   C14   S    
C32   H18   S    
C3    C5    A    
C37   H29   S    
C4    C26   A    
O3    Zn2   S    
O6    Zn2   S    
C31   H22   S    
C21   C23   A    
C33   H25   S    
C22   C30   S    
C11   C13   S    
C15   H2    S    
C2    O2    A    
N4    Zn2   S    
C17   C19   A    
C18   C20   A    
C30   C31   S    
C28   H14   S    
C37   H27   S    
C7    C9    A    
C39   C40   S    
C8    C10   A    
C27   H17   S    
C40   H34   S    
