data_mof_unit_53327.cif
_audit_creation_date              2012-12-10T19:01:52-0500
_audit_creation_method            fapswitch 2.2
_symmetry_space_group_name_H-M    P1
_symmetry_Int_Tables_number       1
_space_group_crystal_system       triclinic
_cell_length_a                    11.708463
_cell_length_b                    10.830945
_cell_length_c                    9.540246
_cell_angle_alpha                 89.50396
_cell_angle_beta                  89.99928
_cell_angle_gamma                 90.19009
_cell_volume                      1209.78207427

loop_
_atom_site_label
_atom_site_type_symbol
_atom_type_description
_atom_site_fract_x
_atom_site_fract_y
_atom_site_fract_z
_atom_type_partial_charge
C1    C     C_R   0.498871 0.262293 0.500456 0.808975
C2    C     C_R   0.493767 0.128919 0.498561 -0.155729
C3    C     C_R   0.534428 0.065743 0.380129 -0.223877
C4    C     C_R   0.533978 0.936948 0.378101 -0.208847
C5    C     C_R   0.495136 0.870351 0.495761 -0.084388
C6    C     C_R   0.443252 0.934330 0.604008 0.057806
C7    C     C_3   0.451306 0.922999 0.758939 -0.520472
C8    C     C_3   0.443583 0.063944 0.762274 0.292471
C9    C     C_R   0.558861 0.588514 0.072781 0.254472
C10   C     C_R   0.431606 0.421949 0.075182 -0.087318
C11   C     C_R   0.431326 0.422384 0.926101 -0.092343
C12   C     C_R   0.283961 0.499926 0.500000 0.829644
C13   C     C_R   0.558924 0.588421 0.925469 0.256603
C14   C     C_3   0.684072 0.613562 0.919265 -0.499996
C15   C     C_3   0.684042 0.613634 0.078416 -0.503646
C16   C     C_R   0.500592 0.737483 0.499231 0.804525
C17   C     C_R   0.716034 0.500108 0.500000 0.821743
C18   C     C_1   0.162306 0.499981 0.499997 -0.178528
C19   C     C_1   0.059864 0.500063 0.499997 0.002102
C20   C     C_1   0.940117 0.500153 0.500000 -0.001643
C21   C     C_1   0.837678 0.500170 0.500002 -0.194808
C22   C     C_R   0.439709 0.060832 0.605005 0.124542
Cu1   Cu    Cu3+1 0.499990 0.499980 0.640670 0.948756
Cu2   Cu    Cu3+1 0.500010 0.500020 0.359330 0.940115
H1    H     H_    0.570299 0.115412 0.291341 0.165076
H2    H     H_    0.703290 0.705607 0.872367 0.189537
H3    H     H_    0.733430 0.535778 0.124423 0.224526
H4    H     H_    0.703302 0.705701 0.123398 0.188332
H5    H     H_    0.569321 0.890113 0.288146 0.154495
H6    H     H_    0.375907 0.873328 0.802241 0.211430
H7    H     H_    0.535560 0.887404 0.794392 0.160918
H8    H     H_    0.520725 0.112980 0.802121 0.076216
H9    H     H_    0.377979 0.357231 0.131895 0.134050
H10   H     H_    0.377045 0.359067 0.869993 0.163312
H11   H     H_    0.733480 0.535668 0.874885 0.224141
N1    N     N_R   0.500710 0.500930 0.147930 -0.179889
N2    N     N_R   0.500710 0.500890 0.852020 -0.183607
O1    O     O_R   0.500000 0.319640 0.618810 -0.580753
O2    O     O_R   0.500010 0.319680 0.381230 -0.587385
O3    O     O_R   0.337190 0.499990 0.618790 -0.570945
O4    O     O_R   0.337200 0.500030 0.381210 -0.576038
O5    O     O_R   0.499990 0.680320 0.618770 -0.578930
O6    O     O_R   0.500000 0.680360 0.381190 -0.585682
O7    O     O_R   0.662800 0.499970 0.618790 -0.578324
O8    O     O_R   0.662810 0.500010 0.381210 -0.578237
O9    O     O_3   0.337398 0.104463 0.815385 -0.588991
C23   C     C_3   0.341014 0.118106 0.962902 0.062190
H12   H     H_    0.279134 0.191869 0.989267 0.161543
H13   H     H_    0.425747 0.149413 0.002608 0.105359
C24   C     C_3   0.304134 0.999124 0.039017 -0.356901
H14   H     H_    0.233388 0.954086 0.980689 0.236467
H15   H     H_    0.377540 0.934517 0.044474 0.202735
C25   C     C_3   0.263540 0.025247 0.187921 -0.884350
H16   H     H_    0.328250 0.080101 0.245237 0.266363
H17   H     H_    0.249005 0.936835 0.245064 0.261310
H18   H     H_    0.182169 0.077613 0.185126 0.251873

loop_
_geom_bond_atom_site_label_1
_geom_bond_atom_site_label_2
_ccdc_geom_bond_type
Cu1   O3    S    
C2    C22   A    
C9    N1    A    
C8    C22   S    
Cu1   Cu2   S    
C12   O3    A    
C12   O4    A    
C13   C14   S    
C10   H9    S    
Cu1   O1    S    
C15   H3    S    
C19   C20   S    
C14   C15   S    
C24   H14   S    
C9    C15   S    
C17   O7    A    
C7    C8    S    
C23   H13   S    
C7    H6    S    
Cu2   N1    S    
C25   H16   S    
C14   H2    S    
Cu2   O4    S    
C16   O6    A    
C15   H4    S    
C6    C7    S    
Cu1   O5    S    
C1    O1    A    
Cu2   O8    S    
C17   O8    A    
C2    C3    A    
C23   C24   S    
C25   H17   S    
C5    C6    A    
C8    O9    S    
C24   C25   S    
C7    H7    S    
C10   C11   A    
C1    O2    A    
C3    C4    A    
C6    C22   A    
C16   O5    A    
C3    H1    S    
Cu2   O2    S    
C20   C21   T    
C1    C2    S    
C25   H18   S    
C12   C18   S    
C24   H15   S    
C11   N2    A    
Cu2   O6    S    
C9    C13   A    
O9    C23   S    
C18   C19   T    
C5    C16   S    
C10   N1    A    
Cu1   N2    S    
C4    C5    A    
C13   N2    A    
C14   H11   S    
C11   H10   S    
C17   C21   S    
Cu1   O7    S    
C23   H12   S    
C4    H5    S    
C8    H8    S    
