data_mof_unit_36258.cif
_audit_creation_date              2013-03-05T15:56:23-0500
_audit_creation_method            fapswitch 2.2
_symmetry_space_group_name_H-M    P1
_symmetry_Int_Tables_number       1
_space_group_crystal_system       triclinic
_cell_length_a                    12.314059
_cell_length_b                    13.100452
_cell_length_c                    23.507465
_cell_angle_alpha                 77.731491
_cell_angle_beta                  101.110315
_cell_angle_gamma                 116.404496
_cell_volume                      3298.07387331

loop_
_atom_site_label
_atom_site_type_symbol
_atom_site_description
_atom_site_fract_x
_atom_site_fract_y
_atom_site_fract_z
_atom_type_partial_charge
O1    O     O_R   0.972510 0.318130 0.516820 -0.574843
O2    O     O_R   0.806530 0.359650 0.494230 -0.605497
C1    C     C_R   0.855084 0.286303 0.504501 0.776010
O3    O     O_R   0.082990 0.479200 0.593420 -0.586388
O4    O     O_R   0.917010 0.520720 0.570830 -0.598481
C2    C     C_R   0.999279 0.499592 0.608955 0.794292
Cu1   Cu    Cu3+1 0.098270 0.475410 0.513370 0.947651
Cu2   Cu    Cu3+1 0.901730 0.524590 0.486630 0.971088
O5    O     O_R   0.193470 0.640350 0.505770 -0.595205
O6    O     O_R   0.027490 0.681870 0.483180 -0.530117
O7    O     O_R   0.082990 0.479280 0.429170 -0.580974
O8    O     O_R   0.917010 0.520800 0.406580 -0.595527
C3    C     C_R   0.145023 0.714369 0.491631 0.830156
C4    C     C_R   0.000441 0.500027 0.391060 0.798919
C5    C     C_R   0.090867 0.585420 0.118541 0.540045
N1    N     N_R   0.000871 0.497154 0.148505 -0.470618
C6    C     C_R   0.910089 0.409089 0.121425 0.543569
C7    C     C_R   0.907061 0.407741 0.061629 -0.017518
C8    C     C_R   0.998871 0.497894 0.030152 -0.016775
C9    C     C_R   0.091846 0.587540 0.058731 -0.015044
C10   C     C_R   0.814811 0.318721 0.032704 -0.153027
C11   C     C_R   0.813646 0.319241 0.973183 -0.158626
C12   C     C_R   0.904723 0.408779 0.941360 -0.014517
C13   C     C_R   0.997685 0.498426 0.969945 -0.016371
C14   C     C_R   0.089502 0.588581 0.938476 -0.015201
C15   C     C_R   0.181734 0.677617 0.967393 -0.158783
C16   C     C_R   0.182903 0.677095 0.026909 -0.154385
C17   C     C_R   0.905766 0.410877 0.881550 0.533994
N2    N     N_R   0.995823 0.499117 0.851609 -0.469526
C18   C     C_R   0.086532 0.587218 0.878694 0.534491
O9    O     O_2   0.178374 0.671344 0.146455 -0.526791
O10   O     O_2   0.823525 0.322836 0.152399 -0.519618
H1    H     H_    0.743220 0.248411 0.055926 0.193215
H2    H     H_    0.741237 0.249282 0.952237 0.190451
O11   O     O_2   0.818284 0.324964 0.853625 -0.538156
O12   O     O_2   0.173103 0.673504 0.847735 -0.535184
H3    H     H_    0.253325 0.747932 0.944172 0.190729
H4    H     H_    0.255313 0.747056 0.047852 0.192360
C19   C     C_R   0.904663 0.515035 0.749359 -0.102297
H5    H     H_    0.833384 0.528068 0.763209 0.143722
C20   C     C_R   0.905462 0.515286 0.690091 -0.219329
H6    H     H_    0.833861 0.528178 0.658948 0.163493
C21   C     C_R   0.997852 0.499035 0.671495 -0.038564
C22   C     C_R   0.088996 0.482159 0.713259 -0.215154
H7    H     H_    0.161229 0.469268 0.700280 0.160692
C23   C     C_R   0.088023 0.482068 0.772439 -0.101748
H8    H     H_    0.158674 0.468954 0.804228 0.144986
C24   C     C_R   0.996049 0.498652 0.790692 0.354513
C25   C     C_R   0.909369 0.514776 0.227783 -0.089284
H9    H     H_    0.838540 0.527758 0.196079 0.151640
C26   C     C_R   0.909263 0.515688 0.286933 -0.192436
H10   H     H_    0.837414 0.529068 0.299984 0.173144
C27   C     C_R   0.000866 0.499330 0.328568 -0.050166
C28   C     C_R   0.092543 0.482130 0.309901 -0.196132
H11   H     H_    0.164330 0.469393 0.340960 0.173589
C29   C     C_R   0.092474 0.481377 0.250666 -0.081753
H12   H     H_    0.163374 0.467879 0.236744 0.159583
C30   C     C_R   0.000884 0.497637 0.209441 0.338625
C31   C     C_R   0.275401 0.029746 0.426683 -0.172751
H13   H     H_    0.243411 0.091666 0.400483 0.224091
C32   C     C_R   0.227486 0.837714 0.480072 -0.168038
C33   C     C_R   0.816228 0.082136 0.538041 -0.154647
C34   C     C_R   0.737679 0.966157 0.546934 -0.112038
C35   C     C_R   0.614362 0.929589 0.526635 -0.162253
C36   C     C_R   0.567455 0.008838 0.494584 0.096880
C37   C     C_R   0.651109 0.124253 0.479047 0.012917
C38   C     C_R   0.440603 0.977708 0.477540 0.028250
C39   C     C_R   0.400820 0.058785 0.440873 0.001167
C40   C     C_R   0.487281 0.167219 0.419110 0.366068
C41   C     C_R   0.610379 0.197675 0.437054 -0.220654
C42   C     C_R   0.351959 0.869030 0.497280 -0.268644
C43   C     C_R   0.188411 0.920965 0.446592 0.326297
C44   C     C_R   0.773761 0.162753 0.505529 -0.083959
H14   H     H_    0.377432 0.806078 0.526509 0.167712
H15   H     H_    0.910026 0.108963 0.557702 0.157623
H16   H     H_    0.559109 0.838424 0.535779 0.126606
H17   H     H_    0.771788 0.904470 0.571467 0.154957
H18   H     H_    0.673650 0.279315 0.416608 0.202448
C45   C     C_R   0.346841 0.328205 0.593376 -0.285725
H19   H     H_    0.169360 0.309328 0.603848 0.123884
H20   H     H_    0.547356 0.294584 0.612556 0.161463
H21   H     H_    0.346128 0.261457 0.629774 0.146928
N3    N     N_R   0.246280 0.438190 0.533650 -0.181672
C46   C     C_R   0.759016 0.645036 0.420651 0.157530
C47   C     C_R   0.662392 0.676808 0.403345 -0.195022
C48   C     C_R   0.559108 0.622113 0.433166 -0.184112
C49   C     C_R   0.551244 0.534384 0.481010 0.009830
C50   C     C_R   0.653056 0.505143 0.497328 0.298284
C51   C     C_R   0.446907 0.474914 0.513318 -0.022317
C52   C     C_R   0.446845 0.387837 0.560901 0.174419
C53   C     C_R   0.546708 0.360873 0.576084 -0.275599
C54   C     C_R   0.647475 0.418409 0.545216 -0.184417
C55   C     C_R   0.341841 0.497671 0.500832 0.031050
C56   C     C_R   0.246901 0.354966 0.578958 0.078439
N4    N     N_R   0.754320 0.561190 0.466710 -0.217021
H22   H     H_    0.333812 0.562163 0.465449 0.122890
H23   H     H_    0.838578 0.687639 0.397110 0.165784
H24   H     H_    0.487079 0.650159 0.417858 0.141419
H25   H     H_    0.667523 0.743991 0.366639 0.171020
H26   H     H_    0.719214 0.391777 0.560835 0.204189
N5    N     N_R   0.061779 0.897692 0.432484 0.114033
O13   O     O_R   0.995406 0.873819 0.474491 -0.357841
O14   O     O_R   0.020731 0.925786 0.379051 -0.366627
Cl1   Cl    Cl    0.446571 0.269842 0.369752 -0.619767

loop_
_geom_bond_atom_site_label_1
_geom_bond_atom_site_label_2
_geom_bond_distance
_ccdc_geom_bond_type
Cu1   N3    2.035602 S    
C49   C50   1.430048 A    
N5    O13   1.301308 A    
C41   H18   1.080116 S    
C7    C10   1.404935 A    
C20   H6    1.083064 S    
C8    C9    1.408675 A    
Cu1   Cu2   2.701117 S    
C19   C20   1.394473 A    
C27   C28   1.406047 A    
Cu1   O7    1.943713 S    
C15   C16   1.394948 A    
N2    C18   1.369953 A    
C46   H23   1.081195 S    
C17   N2    1.369809 A    
O4    C2    1.303907 A    
O7    C4    1.304235 A    
C10   H1    1.083127 S    
C43   N5    1.433644 S    
C16   H4    1.083130 S    
C5    N1    1.369783 A    
N3    C55   1.365983 A    
C29   H12   1.082894 S    
C7    C8    1.408532 A    
O5    C3    1.306820 A    
C45   C52   1.401002 A    
C42   H14   1.075551 S    
C28   H11   1.083070 S    
C50   C54   1.407059 A    
C17   O11   1.349539 S    
N1    C6    1.369922 A    
C25   C26   1.393310 A    
C12   C13   1.408698 A    
C33   C44   1.402539 A    
C31   C43   1.396208 A    
C32   C42   1.397718 A    
C50   N4    1.385305 A    
C31   H13   1.082079 S    
N5    O14   1.301150 A    
C10   C11   1.395096 A    
C20   C21   1.406201 A    
Cu2   N4    2.023678 S    
O3    Cu1   1.939949 S    
C1    C44   1.474542 S    
C22   C23   1.393274 A    
C23   C24   1.399929 A    
C5    C9    1.402625 A    
C11   H2    1.083133 S    
C28   C29   1.394423 A    
N2    C24   1.433843 S    
C38   C39   1.421993 A    
C13   C14   1.408499 A    
C45   C56   1.387378 A    
O3    C2    1.303380 A    
C53   C54   1.384593 A    
C48   C49   1.410256 A    
C39   C40   1.403244 A    
C36   C38   1.424269 A    
C14   C15   1.404895 A    
C47   C48   1.393577 A    
C37   C44   1.420065 A    
C25   C30   1.399905 A    
C26   H10   1.083064 S    
O1    C1    1.304719 A    
C46   N4    1.358074 A    
C21   C22   1.405772 A    
C33   C34   1.386956 A    
C47   H25   1.082567 S    
C31   C39   1.405013 A    
O4    Cu2   1.943713 S    
Cu2   O8    1.939949 S    
C6    C7    1.402633 A    
C35   H16   1.077048 S    
N1    C30   1.433791 S    
C12   C17   1.402814 A    
C46   C47   1.391548 A    
C32   C43   1.412938 A    
O8    C4    1.303069 A    
C36   C37   1.416217 A    
C55   H22   1.076747 S    
C2    C21   1.472081 S    
C49   C51   1.438347 A    
C33   H15   1.083275 S    
H19   C56   1.081856 S    
C19   H5    1.082863 S    
C22   H7    1.082987 S    
C54   H26   1.063763 S    
C34   H17   1.082842 S    
C40   Cl1   1.765593 S    
C14   C18   1.402448 A    
Cu1   O5    1.933624 S    
C23   H8    1.082899 S    
O1    Cu1   1.946697 S    
O2    Cu2   1.933627 S    
O6    C3    1.300967 A    
C45   H21   1.083918 S    
C15   H3    1.083133 S    
C5    O9    1.349574 S    
C9    C16   1.404832 A    
C18   O12   1.349611 S    
C35   C36   1.418576 A    
O2    C1    1.302230 A    
N3    C56   1.354214 A    
C52   C53   1.388528 A    
C37   C41   1.409238 A    
C29   C30   1.400455 A    
C8    C13   1.411132 A    
C38   C42   1.402172 A    
C51   C55   1.417185 A    
C40   C41   1.386386 A    
C48   H24   1.077892 S    
C34   C35   1.390687 A    
H20   C53   1.084618 S    
C4    C27   1.472018 S    
C3    C32   1.475266 S    
Cu2   O6    1.946695 S    
C25   H9    1.082887 S    
C6    O10   1.349588 S    
C11   C12   1.404885 A    
C26   C27   1.405922 A    
C51   C52   1.417656 A    
C19   C24   1.400458 A    
