data_mof_unit_39525.cif
_audit_creation_date              2012-12-11T17:37:42-0500
_audit_creation_method            fapswitch 2.2
_symmetry_space_group_name_H-M    P1
_symmetry_Int_Tables_number       1
_space_group_crystal_system       triclinic
_cell_length_a                    13.097525
_cell_length_b                    13.036109
_cell_length_c                    15.390195
_cell_angle_alpha                 117.256527
_cell_angle_beta                  63.81935
_cell_angle_gamma                 97.583569
_cell_volume                      2088.2047748

loop_
_atom_site_label
_atom_site_type_symbol
_atom_type_description
_atom_site_fract_x
_atom_site_fract_y
_atom_site_fract_z
_atom_type_partial_charge
C1    C     C_R   0.009919 0.834846 0.048159 -0.055434
C2    C     C_R   0.680336 0.509803 0.325338 -0.067406
C3    C     C_R   0.639455 0.549733 0.009093 0.131412
C4    C     C_R   0.085676 0.788521 0.298904 0.083390
C5    C     C_R   0.322324 0.578241 0.009364 -0.099463
C6    C     C_R   0.942088 0.182059 0.781204 -0.125031
C7    C     C_R   0.219661 0.441176 0.685973 -0.140918
C8    C     C_R   0.077683 0.250527 0.063254 -0.109499
C9    C     C_R   0.973264 0.165655 0.972326 -0.109450
C10   C     C_R   0.319299 0.538252 0.781605 -0.093280
C11   C     C_R   0.245168 0.478088 0.104578 -0.151321
C12   C     C_R   0.686124 0.442409 0.221843 0.485182
C13   C     C_R   0.016582 0.281983 0.685933 -0.114945
C14   C     C_R   0.337561 0.538184 0.071343 0.159581
C15   C     C_R   0.991072 0.171881 0.676975 0.084597
C16   C     C_R   0.327056 0.469862 0.678980 0.174539
C17   C     C_R   0.046648 0.142979 0.006378 0.014543
C18   C     C_R   0.445256 0.902440 0.131379 -0.165156
C19   C     C_R   0.354758 0.892160 0.218934 -0.144042
C20   C     C_R   0.261423 0.976761 0.288385 0.057153
C21   C     C_R   0.259495 0.070550 0.267114 -0.240520
C22   C     C_R   0.349802 0.081104 0.179385 0.597431
C23   C     C_R   0.741200 0.569505 0.939055 -0.116767
C24   C     C_R   0.443359 0.996526 0.111748 -0.276752
C25   C     C_R   0.123929 0.068714 0.483499 -0.227765
C26   C     C_R   0.034484 0.064076 0.575712 -0.014197
C27   C     C_R   0.004314 0.954880 0.573064 -0.063336
C28   C     C_R   0.069450 0.856450 0.481358 0.476611
C29   C     C_R   0.125225 0.863377 0.382530 -0.152196
C30   C     C_R   0.168127 0.969033 0.384882 0.054669
C31   C     C_R   0.894584 0.887961 0.716008 -0.104339
C32   C     C_R   0.791035 0.868608 0.787229 -0.163712
C33   C     C_R   0.687892 0.899120 0.795073 -0.090584
C34   C     C_R   0.019480 0.697059 0.300529 -0.139212
C35   C     C_R   0.688003 0.950786 0.733058 -0.105100
C36   C     C_R   0.791352 0.970834 0.662218 -0.163084
C37   C     C_R   0.895463 0.938891 0.652780 0.157752
C38   C     C_R   0.912999 0.301601 0.316577 -0.104508
C39   C     C_R   0.795052 0.321990 0.357180 -0.141715
C40   C     C_R   0.738254 0.427042 0.446131 0.115875
C41   C     C_R   0.799364 0.510483 0.496191 -0.157796
C42   C     C_R   0.918121 0.493658 0.449649 -0.030942
C43   C     C_R   0.975094 0.388788 0.360633 -0.109826
C44   C     C_R   0.528397 0.439530 0.558189 0.454549
C45   C     C_R   0.662059 0.474222 0.039058 -0.124522
C46   C     C_R   0.417750 0.476010 0.586200 -0.064764
C47   C     C_R   0.396077 0.533524 0.536263 -0.019849
C48   C     C_R   0.485247 0.547480 0.453350 -0.269096
C49   C     C_R   0.594633 0.508009 0.422023 0.047324
C50   C     C_R   0.619120 0.457940 0.475849 -0.137779
C51   C     C_R   0.209526 0.508236 0.527349 -0.374336
C52   C     C_R   0.090865 0.536725 0.583700 0.551282
C53   C     C_R   0.047693 0.646480 0.670835 -0.078534
C54   C     C_R   0.121181 0.724406 0.706463 -0.210462
C55   C     C_R   0.237543 0.690673 0.658208 -0.128114
C56   C     C_R   0.101524 0.796512 0.206846 -0.090928
C57   C     C_R   0.281334 0.581020 0.570320 0.147928
C58   C     C_2   0.435186 0.554892 0.094148 -0.223615
C59   C     C_2   0.528756 0.586871 0.032156 -0.196147
C60   C     C_2   0.859593 0.965301 0.071293 -0.260680
C61   C     C_2   0.818835 0.036857 0.177281 0.388908
C62   C     C_R   0.785264 0.549023 0.315739 -0.161060
C63   C     C_R   0.914338 0.751889 0.947035 -0.177086
C64   C     C_R   0.930063 0.856811 0.020813 0.179567
H1    H     H_    0.042076 0.897018 0.104163 0.136285
H2    H     H_    0.905103 0.117349 0.807570 0.108598
H3    H     H_    0.198918 0.388367 0.619483 0.103099
H4    H     H_    0.130952 0.266755 0.104663 0.115849
H5    H     H_    0.927434 0.101963 0.932066 0.091448
H6    H     H_    0.386083 0.581968 0.804404 0.110942
H7    H     H_    0.224463 0.447131 0.164239 0.103786
H8    H     H_    0.043579 0.308697 0.623100 0.121253
H9    H     H_    0.514780 0.003748 0.044327 0.121076
H10   H     H_    0.358464 0.819392 0.233686 0.137131
H11   H     H_    0.187516 0.135708 0.318462 0.134472
H12   H     H_    0.159151 0.149671 0.487291 0.125723
H13   H     H_    0.973981 0.865416 0.711049 0.133369
H14   H     H_    0.790537 0.829830 0.836213 0.100279
H15   H     H_    0.607923 0.882585 0.849036 0.099888
H16   H     H_    0.608043 0.974629 0.739367 0.118408
H17   H     H_    0.790440 0.009699 0.613602 0.128059
H18   H     H_    0.067146 0.375198 0.325933 0.113713
H19   H     H_    0.750698 0.610319 0.889171 0.093965
H20   H     H_    0.956816 0.219953 0.248702 0.135563
H21   H     H_    0.748050 0.258662 0.317638 0.107719
H22   H     H_    0.756507 0.592915 0.564017 0.126352
H23   H     H_    0.965873 0.562449 0.482414 0.172950
H24   H     H_    0.469506 0.587561 0.411630 0.150543
H25   H     H_    0.243850 0.422740 0.460595 0.137457
H26   H     H_    0.956572 0.669513 0.713112 0.110573
H27   H     H_    0.998305 0.656876 0.353036 0.136247
H28   H     H_    0.292390 0.747477 0.692109 0.117943
H29   H     H_    0.436465 0.520301 0.145741 0.140836
H30   H     H_    0.527674 0.623499 0.982053 0.125250
H31   H     H_    0.829759 0.982221 0.023230 0.089852
H32   H     H_    0.602352 0.430544 0.082341 0.167641
H33   H     H_    0.811461 0.601650 0.378976 0.138394
N1    N     N_R   0.037320 0.720000 0.995830 -0.064538
N2    N     N_R   0.946240 0.290870 0.848020 -0.044384
N3    N     N_R   0.146160 0.501170 0.788610 -0.044309
N4    N     N_R   0.025750 0.332680 0.063570 -0.042894
N5    N     N_R   0.962680 0.280000 0.004170 -0.040752
N6    N     N_R   0.209230 0.553860 0.848010 -0.060204
N7    N     N_R   0.175100 0.482030 0.063570 -0.042366
N8    N     N_R   0.996810 0.351820 0.788610 -0.040936
N9    N     N_R   0.790770 0.446140 0.151990 -0.070406
N10   N     N_R   0.824900 0.517970 0.936430 -0.041092
N11   N     N_R   0.003190 0.648180 0.211390 -0.042509
N12   N     N_R   0.774330 0.457010 0.995830 -0.048589
N13   N     N_R   0.053760 0.709130 0.151980 -0.044859
N14   N     N_R   0.853840 0.498830 0.211390 -0.067903
N15   N     N_R   0.974250 0.667320 0.936430 -0.038698
N16   N     N_R   0.225670 0.542990 0.004170 -0.046307
Ni1   Ni    Ni4+2 0.130310 0.630310 0.000000 0.205069
Ni2   Ni    Ni4+2 0.869690 0.369690 0.000000 0.255662
Ni3   Ni    Ni4+2 0.985660 0.509480 0.863750 0.244102
Ni4   Ni    Ni4+2 0.014340 0.490520 0.136250 0.211316
H34   H     H_    0.517731 0.838092 0.079218 0.134587
O1    O     O_3   0.615030 0.359449 0.192585 -0.794678
H35   H     H_    0.547987 0.365416 0.259165 0.324712
O2    O     O_3   0.344417 0.174975 0.162412 -0.784435
H36   H     H_    0.414491 0.170086 0.097995 0.317053
O3    O     O_3   0.065148 0.753405 0.487152 -0.802181
H37   H     H_    0.130262 0.699655 0.421758 0.303598
O4    O     O_3   0.542932 0.387476 0.613426 -0.763353
H38   H     H_    0.624186 0.361740 0.583326 0.327505
O5    O     O_3   0.015340 0.455657 0.562663 -0.791629
H39   H     H_    0.059157 0.381791 0.501193 0.302048
H40   H     H_    0.087162 0.808448 0.775358 0.129279
O6    O     O_3   0.843560 0.015958 0.245925 -0.746963
H41   H     H_    0.800418 0.080001 0.318643 0.315317
H42   H     H_    0.157592 0.850378 0.173224 0.101987
H43   H     H_    0.861564 0.741064 0.907025 0.087800
H44   H     H_    0.367101 0.642588 0.984108 0.082268

loop_
_geom_bond_atom_site_label_1
_geom_bond_atom_site_label_2
_ccdc_geom_bond_type
N4    N5    A    
C41   C42   A    
N8    Ni3   S    
C3    C23   A    
C35   C36   A    
N3    Ni3   S    
C2    C12   A    
C28   O3    S    
O3    H37   S    
C20   C30   S    
C53   C54   A    
C41   H22   S    
C28   C29   A    
C26   C27   A    
C55   H28   S    
C23   H19   S    
C18   C24   A    
C63   H43   S    
C10   N6    A    
C58   H29   S    
C9    H5    S    
N16   Ni1   S    
N2    Ni2   S    
C38   C39   A    
C11   C14   A    
C11   H7    S    
C24   H9    S    
N1    Ni1   S    
C12   O1    S    
C35   H16   S    
C31   C32   A    
C18   C19   A    
C63   N15   A    
C34   H27   S    
N5    Ni2   S    
C6    C15   A    
C54   C55   A    
C62   N14   A    
C19   C20   A    
C9    N5    A    
C1    H1    S    
C48   H24   S    
C11   N7    A    
C51   C57   A    
C59   H30   S    
C8    N4    A    
C18   H34   S    
C4    C29   S    
C38   H20   S    
C21   C22   A    
C4    C56   A    
N10   N12   A    
C14   C58   S    
C56   N13   A    
C52   O5    S    
C44   C46   A    
C31   H13   S    
N9    N14   A    
C5    H44   S    
N2    N8    A    
C4    C34   A    
C44   O4    S    
N1    N15   A    
C7    N3    A    
C51   C52   A    
N6    Ni1   S    
C13   N8    A    
C16   C46   S    
C39   C40   A    
C33   H15   S    
C15   C26   S    
C58   C59   D    
C32   H14   S    
C3    C45   A    
N3    N6    A    
C31   C37   A    
C60   C61   D    
C29   C30   A    
C2    C49   S    
C47   C57   S    
C62   H33   S    
C47   C48   A    
C36   H17   S    
C23   N10   A    
O2    H36   S    
C40   C50   S    
C5    C14   A    
C56   H42   S    
C61   O6    S    
C10   H6    S    
C9    C17   A    
C40   C41   A    
C8    H4    S    
C13   C15   A    
O4    H38   S    
C22   C24   A    
C42   C43   A    
C39   H21   S    
O5    H39   S    
C1    C64   A    
N15   Ni3   S    
C52   C53   A    
C22   O2    S    
N7    Ni4   S    
C44   C50   A    
C25   C30   A    
C54   H40   S    
N13   Ni1   S    
C46   C47   A    
C36   C37   A    
C5    N16   A    
N11   Ni4   S    
C19   H10   S    
C7    C16   A    
C1    N1    A    
O1    H35   S    
C13   H8    S    
C21   H11   S    
C8    C17   A    
C60   C64   S    
N9    Ni2   S    
N14   Ni4   S    
C25   H12   S    
C34   N11   A    
C32   C33   A    
C55   C57   A    
O6    H41   S    
C25   C26   A    
N4    Ni4   S    
C38   C43   A    
C10   C16   A    
C6    N2    A    
C12   N9    A    
C27   C37   S    
C48   C49   A    
N7    N16   A    
C33   C35   A    
N11   N13   A    
C45   N12   A    
N10   Ni3   S    
N12   Ni2   S    
C7    H3    S    
C63   C64   A    
C60   H31   S    
C6    H2    S    
C20   C21   A    
C49   C50   A    
C53   H26   S    
C43   H18   S    
C42   H23   S    
C45   H32   S    
C51   H25   S    
C2    C62   A    
C27   C28   A    
C3    C59   S    
