data_mof_unit_19045.cif
_audit_creation_date              2012-12-10T18:47:06-0500
_audit_creation_method            fapswitch 2.2
_symmetry_space_group_name_H-M    P1
_symmetry_Int_Tables_number       1
_space_group_crystal_system       triclinic
_cell_length_a                    10.698274
_cell_length_b                    9.837911
_cell_length_c                    14.997889
_cell_angle_alpha                 90.619063
_cell_angle_beta                  88.906366
_cell_angle_gamma                 88.743566
_cell_volume                      1577.74138361

loop_
_atom_site_label
_atom_site_type_symbol
_atom_type_description
_atom_site_fract_x
_atom_site_fract_y
_atom_site_fract_z
_atom_type_partial_charge
C1    C     C_R   0.260232 0.501827 0.500617 0.846722
C2    C     C_R   0.127534 0.506714 0.497539 -0.154355
C3    C     C_R   0.591545 0.070438 0.542037 -0.016434
C4    C     C_R   0.408581 0.929538 0.457808 -0.014062
C5    C     C_R   0.408656 0.073412 0.457712 -0.024388
C6    C     C_R   0.591388 0.926583 0.542226 -0.029912
C7    C     C_R   0.497112 0.499485 0.326697 0.887286
C8    C     C_R   0.504433 0.500701 0.673114 0.916028
C9    C     C_R   0.609624 0.428267 0.811352 -0.111842
C10   C     C_R   0.421947 0.593468 0.185242 -0.103666
C11   C     C_R   0.515945 0.505127 0.768784 -0.181585
C12   C     C_R   0.739645 0.498341 0.498921 0.839570
C13   C     C_R   0.498619 0.499997 0.230465 -0.171674
C14   C     C_R   0.437525 0.597094 0.816093 0.383830
C15   C     C_R   0.580626 0.409368 0.184559 0.360299
C16   C     C_R   0.454275 0.616877 0.907585 -0.117140
C17   C     C_R   0.601539 0.424811 0.092443 -0.114595
C18   C     C_R   0.532610 0.524298 0.952979 -0.015163
C19   C     C_R   0.526437 0.520250 0.046518 -0.018839
C20   C     C_R   0.613261 0.432621 0.905005 0.038886
C21   C     C_R   0.441027 0.608318 0.093311 0.036835
C22   C     C_R   0.391653 0.723113 0.955976 0.398225
C23   C     C_R   0.381517 0.714492 0.047703 -0.093931
C24   C     C_R   0.694735 0.347942 0.044346 0.396864
C25   C     C_2   0.703194 0.346326 0.757747 0.340771
C26   C     C_2   0.312885 0.662230 0.232262 0.347817
C27   C     C_2   0.145580 0.373066 0.353209 0.434689
C28   C     C_2   0.853898 0.634949 0.642946 0.447286
C29   C     C_2   0.874049 0.362064 0.356177 0.569807
C30   C     C_2   0.124170 0.643238 0.641117 0.575104
C31   C     C_R   0.694782 0.347114 0.951979 -0.114640
C32   C     C_R   0.069234 0.436039 0.428182 -0.087846
C33   C     C_R   0.930319 0.567575 0.569482 -0.076584
C34   C     C_R   0.939379 0.428627 0.430769 -0.057048
C35   C     C_R   0.060019 0.574470 0.567046 -0.056772
C36   C     C_R   0.872182 0.494659 0.501111 -0.147778
H1    H     H_    0.329992 0.794909 0.083081 0.208257
H2    H     H_    0.629755 0.220117 0.192996 0.375522
H3    H     H_    0.392272 0.856006 0.861889 0.372447
H4    H     H_    0.815457 0.328954 0.137281 0.368121
H5    H     H_    0.233619 0.417106 0.333189 0.050807
H6    H     H_    0.765613 0.592620 0.663917 0.068339
H7    H     H_    0.884520 0.400967 0.289116 0.060289
H8    H     H_    0.108926 0.608878 0.708841 0.078425
H9    H     H_    0.760773 0.278779 0.917973 0.219550
H10   H     H_    0.664979 0.123611 0.575391 0.138602
H11   H     H_    0.335386 0.876311 0.424183 0.137376
H12   H     H_    0.335723 0.129004 0.423741 0.159367
H13   H     H_    0.664361 0.871000 0.576145 0.159319
H14   H     H_    0.673568 0.275549 0.707067 0.104424
H15   H     H_    0.319990 0.703443 0.299009 0.096114
H16   H     H_    0.267640 0.668674 0.813456 0.362941
N1    N     N_R   0.500000 0.857200 0.500000 -0.091181
N2    N     N_R   0.500000 0.142800 0.500000 -0.091354
O1    O     O_R   0.316770 0.614620 0.499990 -0.582043
O2    O     O_2   0.210772 0.668341 0.197296 -0.541705
O3    O     O_3   0.340241 0.658996 0.771675 -0.737172
O4    O     O_3   0.633567 0.303003 0.230935 -0.719283
O5    O     O_3   0.342791 0.838489 0.916948 -0.727306
O6    O     O_3   0.789995 0.276026 0.084346 -0.720618
O7    O     O_2   0.113342 0.269729 0.315028 -0.539897
O8    O     O_2   0.886037 0.740564 0.678376 -0.552960
O9    O     O_2   0.814425 0.259420 0.368652 -0.477019
O10   O     O_2   0.186293 0.743811 0.627596 -0.481871
O11   O     O_R   0.683230 0.385380 0.500010 -0.579344
O12   O     O_R   0.683230 0.614620 0.500010 -0.638398
O13   O     O_R   0.316770 0.385380 0.499990 -0.630840
O14   O     O_R   0.499980 0.614680 0.367850 -0.658012
O15   O     O_R   0.500020 0.385320 0.632150 -0.653969
O16   O     O_R   0.500020 0.614680 0.632150 -0.558926
O17   O     O_R   0.499980 0.385320 0.367850 -0.547130
O18   O     O_2   0.815024 0.360227 0.768656 -0.563648
Zn1   Zn    Zn3+2 0.500000 0.653120 0.500000 1.007065
Zn2   Zn    Zn3+2 0.500000 0.346880 0.500000 1.013949

loop_
_geom_bond_atom_site_label_1
_geom_bond_atom_site_label_2
_ccdc_geom_bond_type
C2    C35   A    
O17   Zn2   S    
O11   Zn2   S    
C29   O9    D    
C19   C21   A    
H4    O6    S    
C30   O10   D    
C4    N1    A    
C12   C36   S    
C27   O7    D    
C12   O11   A    
C27   H5    S    
C9    C20   A    
C8    O16   A    
C24   O6    S    
C3    C6    A    
H3    O5    S    
C10   C26   S    
O16   Zn1   S    
C21   C23   A    
C7    O14   A    
C24   C31   A    
C9    C25   S    
O15   Zn2   S    
C10   C21   A    
O13   Zn2   S    
N2    Zn2   S    
C26   H15   S    
C29   H7    S    
C9    C11   A    
C30   H8    S    
C8    O15   A    
C25   O18   D    
C30   C35   S    
C8    C11   S    
C1    C2    S    
C28   H6    S    
C3    N2    A    
C28   C33   S    
C1    O1    A    
C34   C36   A    
C13   C15   A    
C6    H13   S    
C7    O17   A    
C5    H12   S    
C33   C35   A    
C15   O4    S    
C14   C16   A    
C26   O2    D    
C17   C24   A    
H16   O3    S    
C27   C32   S    
C6    N1    A    
H2    O4    S    
O1    Zn1   S    
C20   C31   A    
C5    N2    A    
C7    C13   S    
C33   C36   A    
C18   C20   A    
C2    C32   A    
C18   C19   A    
C31   H9    S    
C22   O5    S    
C15   C17   A    
C14   O3    S    
C25   H14   S    
C17   C19   A    
C16   C22   A    
C3    H10   S    
C1    O13   A    
O14   Zn1   S    
C23   H1    S    
O12   Zn1   S    
C12   O12   A    
C11   C14   A    
C10   C13   A    
C16   C18   A    
N1    Zn1   S    
C22   C23   A    
C32   C34   A    
C4    C5    A    
C29   C34   S    
C4    H11   S    
C28   O8    D    
