data_mof_unit_21408.cif
_audit_creation_date              2012-12-10T20:04:43-0500
_audit_creation_method            fapswitch 2.2
_symmetry_space_group_name_H-M    P1
_symmetry_Int_Tables_number       1
_space_group_crystal_system       triclinic
_cell_length_a                    10.748351
_cell_length_b                    18.939644
_cell_length_c                    18.466881
_cell_angle_alpha                 91.50962
_cell_angle_beta                  103.959621
_cell_angle_gamma                 89.535153
_cell_volume                      3647.00233987

loop_
_atom_site_label
_atom_site_type_symbol
_atom_type_description
_atom_site_fract_x
_atom_site_fract_y
_atom_site_fract_z
_atom_type_partial_charge
C1    C     C_R   0.501542 0.364407 0.499332 0.907068
C2    C     C_R   0.509978 0.635126 0.502213 0.905425
C3    C     C_R   0.555464 0.709154 0.509648 -0.220105
C4    C     C_R   0.529630 0.288065 0.501001 -0.199030
C5    C     C_R   0.748445 0.965841 0.559724 -0.190592
C6    C     C_R   0.542182 0.026245 0.457810 -0.191832
C7    C     C_R   0.739248 0.039251 0.554674 -0.200873
C8    C     C_R   0.553318 0.953762 0.461543 -0.194167
C9    C     C_R   0.634684 0.069952 0.504270 0.159780
C10   C     C_R   0.654791 0.923454 0.513142 0.141654
C11   C     C_R   0.615191 0.505248 0.740280 0.002322
C12   C     C_R   0.396218 0.478910 0.256373 -0.022888
C13   C     C_R   0.622646 0.505254 0.817119 -0.314012
C14   C     C_R   0.401174 0.476465 0.180971 -0.306952
C15   C     C_R   0.510759 0.501048 0.843171 0.078906
C16   C     C_R   0.514266 0.494850 0.160494 0.085707
C17   C     C_R   0.392270 0.492918 0.789785 -0.071106
C18   C     C_R   0.619610 0.518765 0.217641 -0.100527
C19   C     C_R   0.389940 0.492748 0.712932 -0.018455
C20   C     C_R   0.608308 0.521981 0.292002 -0.024886
C21   C     C_R   0.489633 0.436809 0.956207 -0.208467
C22   C     C_R   0.544579 0.557046 0.048176 -0.211790
C23   C     C_R   0.258564 0.498617 0.468802 0.839138
C24   C     C_R   0.741565 0.497744 0.530875 0.847039
C25   C     C_R   0.489879 0.432796 0.032401 0.012072
C26   C     C_R   0.549543 0.560227 0.972987 0.006875
C27   C     C_R   0.517479 0.493940 0.079535 0.052914
C28   C     C_R   0.519379 0.499679 0.925478 0.048631
C29   C     C_2   0.131261 0.469762 0.451421 0.290251
C30   C     C_2   0.879876 0.498220 0.547420 0.264508
C31   C     C_2   0.040351 0.506321 0.474274 -0.088823
C32   C     C_2   0.933732 0.469246 0.494708 -0.070172
C33   C     C_R   0.617599 0.735024 0.455845 0.549520
C34   C     C_R   0.597930 0.257867 0.568751 0.522217
C35   C     C_R   0.666155 0.803561 0.463464 -0.276328
C36   C     C_R   0.635527 0.187031 0.569288 -0.280210
C37   C     C_R   0.649881 0.847752 0.521730 0.011261
C38   C     C_R   0.613936 0.146825 0.502922 0.007089
C39   C     C_R   0.593501 0.822581 0.576371 -0.213338
C40   C     C_R   0.553285 0.177807 0.435798 -0.243108
C41   C     C_R   0.546928 0.753620 0.571573 -0.070955
C42   C     C_R   0.503022 0.245748 0.434598 -0.036184
H1    H     H_    0.715692 0.507791 0.855911 0.138870
H2    H     H_    0.317037 0.460056 0.138789 0.145872
H3    H     H_    0.299815 0.486880 0.671991 0.130220
H4    H     H_    0.687302 0.541672 0.335480 0.159603
H5    H     H_    0.467704 0.389981 0.920427 0.154739
H6    H     H_    0.561596 0.604802 0.082630 0.147964
H7    H     H_    0.710210 0.823818 0.421287 0.142386
H8    H     H_    0.677756 0.163156 0.622249 0.155211
H9    H     H_    0.578391 0.858323 0.620374 0.153112
H10   H     H_    0.535640 0.146965 0.384028 0.145939
H11   H     H_    0.826376 0.942263 0.600384 0.134488
H12   H     H_    0.457587 0.047736 0.420612 0.130743
H13   H     H_    0.811832 0.071851 0.590930 0.127115
H14   H     H_    0.479019 0.921065 0.426603 0.133237
H15   H     H_    0.702504 0.509412 0.721538 0.134203
H16   H     H_    0.309476 0.463294 0.271512 0.125575
N1    N     N_R   0.500020 0.499980 0.689440 -0.081786
N2    N     N_R   0.499980 0.500020 0.310560 -0.086978
O1    O     O_R   0.500000 0.398180 0.560840 -0.546870
O2    O     O_R   0.500000 0.601820 0.439160 -0.556011
O3    O     O_R   0.499950 0.398180 0.439200 -0.626769
O4    O     O_R   0.500050 0.601820 0.560800 -0.612256
O5    O     O_R   0.317830 0.500010 0.538110 -0.619896
O6    O     O_R   0.682170 0.499990 0.461890 -0.630494
O7    O     O_R   0.317770 0.500000 0.416470 -0.635715
O8    O     O_R   0.682230 0.500000 0.583530 -0.628147
Zn1   Zn    Zn3+2 0.500040 0.500000 0.581220 0.973127
Zn2   Zn    Zn3+2 0.499960 0.500000 0.418780 0.956383
C43   C     C_R   0.878244 0.403413 0.453280 0.173278
C44   C     C_R   0.833699 0.402138 0.375292 -0.058829
C45   C     C_R   0.787659 0.339437 0.336950 -0.195108
C46   C     C_R   0.787177 0.277381 0.376103 -0.120412
C47   C     C_R   0.832824 0.278005 0.453651 -0.107641
C48   C     C_R   0.877690 0.340785 0.492191 -0.158515
H17   H     H_    0.837954 0.449152 0.344292 0.096805
H18   H     H_    0.753412 0.338760 0.276870 0.116901
H19   H     H_    0.752077 0.228771 0.346316 0.124326
H20   H     H_    0.834496 0.229731 0.483890 0.134589
H21   H     H_    0.916174 0.340188 0.551981 0.097660
C49   C     C_R   0.029696 0.583830 0.463139 0.048231
C50   C     C_R   0.954359 0.608510 0.395515 -0.141419
C51   C     C_R   0.933108 0.680811 0.385223 -0.053574
C52   C     C_R   0.986332 0.728966 0.442537 -0.125209
C53   C     C_R   0.062663 0.704904 0.509626 -0.149454
C54   C     C_R   0.086752 0.632630 0.519698 -0.040856
H22   H     H_    0.911394 0.571580 0.351097 0.126496
H23   H     H_    0.873785 0.699541 0.333347 0.133021
H24   H     H_    0.967965 0.784909 0.435127 0.118377
H25   H     H_    0.100957 0.742512 0.554022 0.125510
H26   H     H_    0.145932 0.614701 0.572102 0.160955
C55   C     C_R   0.271435 0.482401 0.813019 0.102114
C56   C     C_R   0.225164 0.534923 0.854911 -0.144798
C57   C     C_R   0.112470 0.523904 0.878192 -0.145723
C58   C     C_R   0.045501 0.460402 0.859989 -0.131805
C59   C     C_R   0.091153 0.407811 0.818473 -0.167640
C60   C     C_R   0.203680 0.418710 0.794946 -0.187022
H27   H     H_    0.276048 0.584303 0.869238 0.114100
H28   H     H_    0.077002 0.564609 0.910305 0.121156
H29   H     H_    0.958181 0.451991 0.877942 0.120141
H30   H     H_    0.039138 0.358692 0.804323 0.126541
H31   H     H_    0.238373 0.377480 0.763041 0.138896
C61   C     C_R   0.743047 0.539025 0.202149 0.107653
C62   C     C_R   0.774488 0.610567 0.199695 -0.177308
C63   C     C_R   0.892401 0.629710 0.186608 -0.137237
C64   C     C_R   0.980288 0.577638 0.176969 -0.109090
C65   C     C_R   0.950179 0.506341 0.180141 -0.153613
C66   C     C_R   0.831931 0.487034 0.192589 -0.159575
H32   H     H_    0.707646 0.651403 0.207578 0.115429
H33   H     H_    0.915978 0.684937 0.184470 0.122447
H34   H     H_    0.071892 0.592516 0.167371 0.120852
H35   H     H_    0.018752 0.466035 0.173354 0.118806
H36   H     H_    0.811099 0.431766 0.196213 0.107663
C67   C     C_R   0.466238 0.363013 0.060644 0.115813
C68   C     C_R   0.562056 0.330020 0.114587 -0.154456
C69   C     C_R   0.544502 0.261292 0.136093 -0.155110
C70   C     C_R   0.431006 0.225070 0.103948 -0.089600
C71   C     C_R   0.334708 0.257703 0.050569 -0.153930
C72   C     C_R   0.352308 0.326303 0.028667 -0.188930
H37   H     H_    0.651369 0.356720 0.138464 0.115193
H38   H     H_    0.618914 0.236097 0.177572 0.121543
H39   H     H_    0.417315 0.171959 0.120790 0.123791
H40   H     H_    0.246706 0.229702 0.025874 0.127631
H41   H     H_    0.277801 0.350618 0.986401 0.146644
C73   C     C_R   0.584846 0.628336 0.946638 0.117555
C74   C     C_R   0.709406 0.638883 0.937763 -0.151223
C75   C     C_R   0.745127 0.704727 0.916934 -0.160226
C76   C     C_R   0.657766 0.760798 0.906560 -0.102211
C77   C     C_R   0.534842 0.751208 0.917503 -0.128397
C78   C     C_R   0.498495 0.685269 0.937798 -0.201009
H42   H     H_    0.779332 0.596603 0.948104 0.121908
H43   H     H_    0.840906 0.712458 0.909531 0.124602
H44   H     H_    0.685591 0.811776 0.890570 0.121054
H45   H     H_    0.467627 0.794809 0.910106 0.126662
H46   H     H_    0.403510 0.678676 0.946906 0.118343
O9    O     O_3   0.942503 0.548861 0.597991 -0.607403
C79   C     C_3   0.003827 0.514413 0.663489 -0.318986
H47   H     H_    0.071674 0.473223 0.652228 0.163908
H48   H     H_    0.932457 0.490759 0.690464 0.169364
H49   H     H_    0.059918 0.554051 0.703162 0.203081
O10   O     O_3   0.122545 0.397243 0.441303 -0.605880
C80   C     C_3   0.124808 0.380371 0.366872 -0.282112
H50   H     H_    0.225030 0.378124 0.361070 0.201452
H51   H     H_    0.067820 0.417674 0.325852 0.133294
H52   H     H_    0.080568 0.327710 0.352537 0.208038
O11   O     O_3   0.637341 0.692135 0.397743 -0.589166
C81   C     C_3   0.554488 0.713780 0.330446 -0.340106
H53   H     H_    0.453245 0.718330 0.335099 0.160199
H54   H     H_    0.556493 0.673245 0.286378 0.187756
H55   H     H_    0.587010 0.764374 0.312096 0.144474
O12   O     O_3   0.615367 0.294558 0.636237 -0.580916
C82   C     C_3   0.742096 0.320148 0.657198 -0.311775
H56   H     H_    0.757760 0.345796 0.713371 0.188122
H57   H     H_    0.757342 0.361025 0.618229 0.148112
H58   H     H_    0.814008 0.276938 0.660727 0.136611
C83   C     C_R   0.482309 0.732771 0.629681 0.158427
C84   C     C_R   0.359454 0.758855 0.628738 -0.188770
C85   C     C_R   0.299191 0.741115 0.684963 -0.164341
C86   C     C_R   0.361487 0.697563 0.742346 -0.114394
C87   C     C_R   0.485414 0.673397 0.744690 -0.120785
C88   C     C_R   0.546618 0.691506 0.689194 -0.090045
H59   H     H_    0.311117 0.793171 0.584686 0.125708
H60   H     H_    0.204438 0.761254 0.684286 0.130058
H61   H     H_    0.314540 0.683456 0.785550 0.122364
H62   H     H_    0.534571 0.641119 0.789872 0.164387
H63   H     H_    0.643173 0.672817 0.692059 0.130791
C89   C     C_R   0.403273 0.262521 0.366820 0.136157
C90   C     C_R   0.285801 0.226262 0.353361 -0.161830
C91   C     C_R   0.197134 0.230661 0.284479 -0.185394
C92   C     C_R   0.223981 0.272161 0.228876 -0.141458
C93   C     C_R   0.340529 0.307950 0.241683 -0.169608
C94   C     C_R   0.431020 0.302479 0.309848 -0.124320
H64   H     H_    0.264501 0.193032 0.395679 0.141191
H65   H     H_    0.107373 0.202262 0.274454 0.133851
H66   H     H_    0.155187 0.276042 0.175621 0.131285
H67   H     H_    0.361712 0.338560 0.197838 0.171838
H68   H     H_    0.522730 0.328276 0.317492 0.162620

loop_
_geom_bond_atom_site_label_1
_geom_bond_atom_site_label_2
_ccdc_geom_bond_type
C93   H67   S    
C80   H52   S    
C22   H6    S    
C92   C93   A    
C47   C48   A    
C73   C74   A    
C69   C70   A    
C90   C91   A    
C39   H9    S    
C57   C58   A    
C81   H55   S    
C7    H13   S    
C62   H32   S    
C75   C76   A    
C8    H14   S    
C6    C9    A    
C59   C60   A    
C39   C41   A    
C71   H40   S    
C68   C69   A    
C55   C56   A    
C31   C49   S    
C4    C42   A    
C50   C51   A    
C63   C64   A    
C23   C29   S    
C5    H11   S    
C35   C37   A    
C81   H54   S    
C53   H25   S    
C25   C67   S    
C52   C53   A    
C61   C66   A    
C91   C92   A    
C3    C33   A    
C49   C54   A    
C80   H51   S    
C65   C66   A    
O2    Zn2   S    
C15   C17   A    
C26   C73   S    
C23   O7    A    
C74   H42   S    
C33   O11   S    
O11   C81   S    
C17   C19   A    
C70   C71   A    
C94   H68   S    
C83   C84   A    
C77   H45   S    
C2    O4    A    
O8    Zn1   S    
C60   H31   S    
C35   H7    S    
C64   C65   A    
C82   H57   S    
C47   H20   S    
C34   C36   A    
C87   H62   S    
C24   O6    A    
C91   H65   S    
C12   H16   S    
C16   C27   S    
C40   C42   A    
C50   H22   S    
C30   O9    S    
C54   H26   S    
C6    H12   S    
C11   N1    A    
C1    O3    A    
C61   C62   A    
C42   C89   S    
C87   C88   A    
C32   C43   S    
C63   H33   S    
C45   C46   A    
C89   C94   A    
C37   C39   A    
C52   H24   S    
C4    C34   A    
C46   C47   A    
C81   H53   S    
C78   H46   S    
C68   H37   S    
C5    C7    A    
C34   O12   S    
C57   H28   S    
C6    C8    A    
C19   N1    A    
C40   H10   S    
C88   H63   S    
C65   H35   S    
C90   H64   S    
C69   H38   S    
C44   H17   S    
C85   C86   A    
C85   H60   S    
O3    Zn2   S    
N2    Zn2   S    
C45   H18   S    
C58   C59   A    
C64   H34   S    
C18   C61   S    
C86   H61   S    
C51   C52   A    
C82   H58   S    
C92   H66   S    
C79   H48   S    
C84   H59   S    
N1    Zn1   S    
C41   C83   S    
C66   H36   S    
C8    C10   A    
C89   C90   A    
C21   C28   A    
C12   C14   A    
C49   C50   A    
C22   C27   A    
C13   C15   A    
C84   C85   A    
C14   C16   A    
C20   N2    A    
C51   H23   S    
C74   C75   A    
C43   C48   A    
C13   H1    S    
C36   H8    S    
C93   C94   A    
C14   H2    S    
C76   C77   A    
O9    C79   S    
O1    Zn1   S    
C7    C9    A    
C21   C25   A    
C3    C41   A    
C53   C54   A    
C31   C32   S    
C59   H30   S    
C44   C45   A    
C79   H49   S    
C1    O1    A    
C48   H21   S    
C71   C72   A    
C19   H3    S    
C10   C37   S    
C25   C27   A    
O4    Zn1   S    
C62   C63   A    
C26   C28   A    
C46   H19   S    
C1    C4    S    
C56   H27   S    
C86   C87   A    
O7    Zn2   S    
C36   C38   A    
C77   C78   A    
C5    C10   A    
C29   C31   D    
C11   H15   S    
C75   H43   S    
C30   C32   D    
C11   C13   A    
C23   O5    A    
C15   C28   S    
O6    Zn2   S    
C38   C40   A    
C73   C78   A    
O5    Zn1   S    
C29   O10   S    
C83   C88   A    
C9    C38   S    
C33   C35   A    
C2    C3    S    
C18   C20   A    
C70   H39   S    
C72   H41   S    
C56   C57   A    
C24   C30   S    
C79   H47   S    
C24   O8    A    
C76   H44   S    
C12   N2    A    
C2    O2    A    
C43   C44   A    
C17   C55   S    
O12   C82   S    
C16   C18   A    
C67   C72   A    
C22   C26   A    
O10   C80   S    
C67   C68   A    
C82   H56   S    
C58   H29   S    
C55   C60   A    
C20   H4    S    
C80   H50   S    
C21   H5    S    
