data_mof_unit_67409.cif
_audit_creation_date              2013-03-05T15:39:48-0500
_audit_creation_method            fapswitch 2.2
_symmetry_space_group_name_H-M    P1
_symmetry_Int_Tables_number       1
_space_group_crystal_system       triclinic
_cell_length_a                    11.84652
_cell_length_b                    12.910606
_cell_length_c                    7.595368
_cell_angle_alpha                 89.438127
_cell_angle_beta                  109.350037
_cell_angle_gamma                 90.220299
_cell_volume                      1096.00535423

loop_
_atom_site_label
_atom_site_type_symbol
_atom_site_description
_atom_site_fract_x
_atom_site_fract_y
_atom_site_fract_z
_atom_type_partial_charge
O1    O     O_R   0.398880 0.887420 0.621600 -0.589310
O2    O     O_R   0.601120 0.112580 0.378400 -0.589314
O3    O     O_R   0.601120 0.887420 0.378400 -0.568785
O4    O     O_R   0.398880 0.112580 0.621600 -0.568787
O5    O     O_R   0.898880 0.387420 0.621600 -0.589314
O6    O     O_R   0.101120 0.612580 0.378400 -0.589311
O7    O     O_R   0.101120 0.387420 0.378400 -0.568783
O8    O     O_R   0.898880 0.612580 0.621600 -0.568786
O9    O     O_R   0.369080 0.887420 0.305440 -0.602056
O10   O     O_R   0.630920 0.112580 0.694560 -0.602051
O11   O     O_R   0.630920 0.887420 0.694560 -0.613727
O12   O     O_R   0.369080 0.112580 0.305440 -0.613728
O13   O     O_R   0.869080 0.387420 0.305440 -0.602052
O14   O     O_R   0.130920 0.612580 0.694560 -0.602056
O15   O     O_R   0.130920 0.387420 0.694560 -0.613727
O16   O     O_R   0.869080 0.612580 0.305440 -0.613728
C1    C     C_R   0.345037 0.855137 0.452667 0.823452
C2    C     C_R   0.654963 0.144862 0.547333 0.823449
C3    C     C_R   0.653449 0.853708 0.547408 0.823700
C4    C     C_R   0.346551 0.146292 0.452592 0.823702
C5    C     C_R   0.845037 0.355137 0.452667 0.823444
C6    C     C_R   0.154963 0.644863 0.547333 0.823450
C7    C     C_R   0.153450 0.353708 0.547408 0.823698
C8    C     C_R   0.846551 0.646292 0.452592 0.823702
Cu1   Cu    Cu3+1 0.517640 1.000000 0.687200 0.931463
Cu2   Cu    Cu3+1 0.482360 1.000000 0.312800 0.931461
Cu3   Cu    Cu3+1 0.017640 0.500000 0.687200 0.931461
Cu4   Cu    Cu3+1 0.982360 0.500000 0.312800 0.931463
C9    C     C_2   0.250788 0.219666 0.427869 -0.035370
C10   C     C_2   0.749212 0.780335 0.572131 -0.035370
C11   C     C_2   0.751943 0.217021 0.570858 -0.040806
C12   C     C_2   0.248058 0.782978 0.429142 -0.040808
C13   C     C_2   0.750788 0.719665 0.427869 -0.035371
C14   C     C_2   0.249213 0.280335 0.572131 -0.035371
C15   C     C_2   0.251942 0.717022 0.570858 -0.040808
C16   C     C_2   0.748058 0.282978 0.429142 -0.040809
N1    N     N_2   0.455760 0.000000 0.031460 -0.102782
N2    N     N_2   0.544240 1.000000 0.968540 -0.102782
N3    N     N_2   0.955760 0.500000 0.031460 -0.102782
N4    N     N_2   0.044240 0.500000 0.968540 -0.102781
N5    N     N_3   0.652782 0.718238 0.254259 -0.566103
H1    H     H_    0.685948 0.736218 0.146252 0.223474
H2    H     H_    0.618300 0.642981 0.233111 0.201763
N6    N     N_3   0.347220 0.281765 0.745738 -0.566108
H3    H     H_    0.314058 0.263777 0.853746 0.223476
H4    H     H_    0.381694 0.357022 0.766892 0.201764
N7    N     N_3   0.356322 0.709578 0.736420 -0.585398
H5    H     H_    0.342100 0.658629 0.834433 0.221915
H6    H     H_    0.425463 0.678180 0.696928 0.216977
N8    N     N_3   0.643677 0.290422 0.263581 -0.585394
H7    H     H_    0.657895 0.341379 0.165575 0.221912
H8    H     H_    0.574532 0.321812 0.303076 0.216979
N9    N     N_3   0.152783 0.218238 0.254259 -0.566102
H9    H     H_    0.185949 0.236217 0.146251 0.223473
H10   H     H_    0.118299 0.142982 0.233112 0.201763
N10   N     N_3   0.847218 0.781763 0.745740 -0.566105
H11   H     H_    0.814055 0.763778 0.853747 0.223475
H12   H     H_    0.881696 0.857021 0.766892 0.201763
N11   N     N_3   0.856324 0.209577 0.736420 -0.585392
H13   H     H_    0.842108 0.158614 0.834420 0.221907
H14   H     H_    0.925471 0.178195 0.696923 0.216981
N12   N     N_3   0.143677 0.790422 0.263580 -0.585396
H15   H     H_    0.157899 0.841374 0.165569 0.221913
H16   H     H_    0.074535 0.821817 0.303072 0.216977
C17   C     C_3   0.337058 0.970390 0.908255 -0.027973
C18   C     C_3   0.234688 0.022940 0.955017 -0.391066
C19   C     C_3   0.113393 0.995814 0.811827 -0.991033
H17   H     H_    0.105992 0.028514 0.672549 0.262582
H18   H     H_    0.101637 0.910418 0.801035 0.274609
H19   H     H_    0.040751 0.028559 0.856336 0.254336
H20   H     H_    0.231590 0.998034 0.092290 0.249702
H21   H     H_    0.246263 0.108228 0.954778 0.228028
H22   H     H_    0.321550 0.997068 0.766869 0.212504
H23   H     H_    0.327166 0.884976 0.913205 0.189903
C20   C     C_3   0.662942 0.029610 0.091745 -0.027970
C21   C     C_3   0.765312 0.977061 0.044983 -0.391064
C22   C     C_3   0.886607 0.004191 0.188168 -0.991026
H24   H     H_    0.898361 0.089588 0.198954 0.274608
H25   H     H_    0.894012 0.971494 0.327451 0.262582
H26   H     H_    0.959249 0.971446 0.143659 0.254335
H27   H     H_    0.753740 0.891772 0.045227 0.228028
H28   H     H_    0.768407 0.001964 0.907708 0.249702
H29   H     H_    0.672834 0.115024 0.086794 0.189906
H30   H     H_    0.678450 0.002932 0.233131 0.212503
C23   C     C_3   0.837058 0.470390 0.908255 -0.027973
C24   C     C_3   0.734688 0.522939 0.955017 -0.391066
C25   C     C_3   0.613393 0.495812 0.811828 -0.991030
H31   H     H_    0.605989 0.528514 0.672551 0.262582
H32   H     H_    0.601639 0.410416 0.801033 0.274611
H33   H     H_    0.540751 0.528554 0.856341 0.254336
H34   H     H_    0.731591 0.498034 0.092291 0.249702
H35   H     H_    0.746262 0.608227 0.954777 0.228029
H36   H     H_    0.821550 0.497068 0.766869 0.212505
H37   H     H_    0.827166 0.384976 0.913205 0.189907
C26   C     C_3   0.162942 0.529610 0.091745 -0.027972
C27   C     C_3   0.265312 0.477061 0.044983 -0.391064
C28   C     C_3   0.386607 0.504189 0.188171 -0.991025
H38   H     H_    0.398362 0.589585 0.198961 0.274606
H39   H     H_    0.394010 0.471489 0.327451 0.262582
H40   H     H_    0.459249 0.471443 0.143661 0.254335
H41   H     H_    0.253739 0.391772 0.045223 0.228030
H42   H     H_    0.268409 0.501966 0.907709 0.249701
H43   H     H_    0.172834 0.615024 0.086795 0.189903
H44   H     H_    0.178450 0.502931 0.233131 0.212504

loop_
_geom_bond_atom_site_label_1
_geom_bond_atom_site_label_2
_geom_bond_distance
_ccdc_geom_bond_type
O16   Cu4   1.969850 S    
C25   H31   1.111336 S    
C27   H42   1.100243 S    
O2    C2    1.301163 A    
N5    H1    1.044223 S    
N9    H10   1.045574 S    
C26   C27   1.534153 S    
C15   N7    1.444888 S    
O4    Cu1   1.969058 S    
N7    H6    1.045427 S    
C5    C16   1.441783 S    
C23   C24   1.534152 S    
N6    H3    1.044213 S    
C6    C15   1.441783 S    
O11   C3    1.310721 A    
N12   H15   1.043043 S    
C24   H34   1.100241 S    
C20   H30   1.080783 S    
O11   Cu1   1.969849 S    
O6    C6    1.301164 A    
C17   H22   1.080783 S    
N10   H11   1.044219 S    
C11   N11   1.444891 S    
N12   H16   1.045438 S    
O5    Cu3   1.968286 S    
C23   H36   1.080782 S    
C18   H21   1.109159 S    
C18   H20   1.100242 S    
C26   H43   1.110094 S    
N1    C17   1.459488 S    
N8    H8    1.045437 S    
O13   Cu4   1.963033 S    
O3    C3    1.298205 A    
O14   Cu3   1.963031 S    
C4    C9    1.443334 S    
O15   C7    1.310721 A    
C18   C19   1.529126 S    
N11   H13   1.043045 S    
O16   C8    1.310719 A    
C27   H41   1.109161 S    
O1    Cu1   1.968286 S    
N5    H2    1.045571 S    
C28   H39   1.111344 S    
N6    H4    1.045558 S    
O9    Cu2   1.963033 S    
C28   H38   1.111162 S    
N2    C20   1.459488 S    
C22   H25   1.111343 S    
O6    Cu4   1.968284 S    
N11   H14   1.045442 S    
C19   H17   1.111337 S    
C12   C15   1.354744 D    
C14   N6    1.439747 S    
C21   C22   1.529126 S    
C21   H28   1.100241 S    
N3    N4    1.288029 D    
C24   C25   1.529126 S    
Cu4   N3    2.054101 S    
Cu1   Cu2   2.733814 S    
C22   H24   1.111161 S    
C10   N10   1.439748 S    
C9    C14   1.358302 D    
O7    Cu4   1.969058 S    
O12   Cu2   1.969850 S    
C19   H18   1.111153 S    
C20   C21   1.534153 S    
N1    N2    1.288029 D    
Cu1   N2    2.054102 S    
C23   H37   1.110095 S    
O15   Cu3   1.969849 S    
N7    H5    1.043037 S    
Cu3   N4    2.054102 S    
C7    C14   1.443333 S    
C27   C28   1.529127 S    
O12   C4    1.310719 A    
N8    H7    1.043040 S    
O13   C5    1.306257 A    
O2    Cu2   1.968284 S    
O10   Cu1   1.963031 S    
O9    C1    1.306257 A    
C25   H32   1.111154 S    
N3    C23   1.459488 S    
N4    C26   1.459488 S    
C28   H40   1.109936 S    
C16   N8    1.444890 S    
C26   H44   1.080782 S    
C22   H26   1.109934 S    
O8    Cu3   1.969058 S    
C10   C13   1.358303 D    
O3    Cu2   1.969058 S    
C21   H27   1.109161 S    
Cu2   N1    2.054101 S    
N9    H9    1.044224 S    
O1    C1    1.301164 A    
C8    C13   1.443334 S    
C19   H19   1.109933 S    
C13   N5    1.439750 S    
O14   C6    1.306258 A    
C12   N12   1.444890 S    
C24   H35   1.109158 S    
C20   H29   1.110095 S    
C9    N9    1.439750 S    
O10   C2    1.306259 A    
O7    C7    1.298205 A    
O8    C8    1.298205 A    
N10   H12   1.045566 S    
C17   H23   1.110095 S    
O4    C4    1.298205 A    
O5    C5    1.301164 A    
C17   C18   1.534152 S    
C25   H33   1.109931 S    
Cu3   Cu4   2.733814 S    
C1    C12   1.441784 S    
C11   C16   1.354746 D    
C2    C11   1.441784 S    
C3    C10   1.443332 S    
