data_mof_unit_13335.cif
_audit_creation_date              2012-12-10T19:16:15-0500
_audit_creation_method            fapswitch 2.2
_symmetry_space_group_name_H-M    P1
_symmetry_Int_Tables_number       1
_space_group_crystal_system       triclinic
_cell_length_a                    10.604544
_cell_length_b                    9.752755
_cell_length_c                    27.341102
_cell_angle_alpha                 89.37159
_cell_angle_beta                  91.423367
_cell_angle_gamma                 89.835884
_cell_volume                      2826.65654429

loop_
_atom_site_label
_atom_site_type_symbol
_atom_type_description
_atom_site_fract_x
_atom_site_fract_y
_atom_site_fract_z
_atom_type_partial_charge
C1    C     C_R   0.257766 0.499893 0.498541 0.829564
C2    C     C_R   0.409009 0.628638 0.280178 -0.175601
C3    C     C_R   0.442640 0.517675 0.251314 0.212392
C4    C     C_R   0.382353 0.554577 0.099116 -0.056284
C5    C     C_R   0.316092 0.455364 0.125967 -0.043603
C6    C     C_R   0.230362 0.369638 0.101780 -0.143056
C7    C     C_R   0.467261 0.642163 0.123734 -0.016745
C8    C     C_R   0.482653 0.505642 0.352556 -0.100925
C9    C     C_R   0.467393 0.500597 0.645139 0.007586
C10   C     C_R   0.283114 0.468025 0.971034 0.042563
C11   C     C_R   0.414591 0.676663 0.969868 0.043537
C12   C     C_R   0.497881 0.500977 0.405735 0.892271
C13   C     C_R   0.348279 0.571317 0.944856 0.071065
C14   C     C_R   0.222169 0.362837 0.944240 -0.216142
C15   C     C_R   0.228155 0.357570 0.893615 -0.139746
C16   C     C_R   0.294208 0.457278 0.867790 -0.023130
C17   C     C_R   0.351167 0.566670 0.893139 -0.053123
C18   C     C_R   0.414853 0.669014 0.866795 -0.019841
C19   C     C_R   0.427064 0.655597 0.816284 0.503225
C20   C     C_R   0.309433 0.447394 0.817198 0.506480
C21   C     C_R   0.314271 0.549372 0.706607 -0.103908
C22   C     C_R   0.345027 0.538571 0.657715 -0.205598
C23   C     C_R   0.742142 0.499820 0.498066 0.806998
C24   C     C_R   0.559395 0.473711 0.681390 -0.269565
C25   C     C_R   0.528778 0.484914 0.730369 -0.103608
C26   C     C_R   0.406442 0.523602 0.742939 0.319580
C27   C     C_R   0.285953 0.469674 0.022926 0.044105
C28   C     C_R   0.365216 0.564918 0.047651 0.072991
C29   C     C_R   0.429833 0.668393 0.021380 0.043546
C30   C     C_R   0.215368 0.376462 0.051208 -0.213002
C31   C     C_R   0.531416 0.742606 0.097589 -0.135061
C32   C     C_R   0.467032 0.784625 0.942131 -0.219621
C33   C     C_R   0.467680 0.780236 0.891475 -0.135053
C34   C     C_R   0.497963 0.499548 0.593945 0.828057
C35   C     C_R   0.512884 0.756057 0.047422 -0.218124
C36   C     C_3   0.074770 0.544137 0.547846 -0.408068
C37   C     C_3   0.071210 0.352484 0.486538 -0.402130
C38   C     C_3   0.930542 0.548308 0.547009 -0.416865
C39   C     C_3   0.927887 0.352954 0.485806 -0.404333
C40   C     C_3   0.069687 0.598733 0.456871 -0.401376
C41   C     C_3   0.121238 0.499031 0.497353 0.192801
C42   C     C_3   0.878418 0.499339 0.496814 0.198745
C43   C     C_3   0.924709 0.597948 0.456213 -0.396002
C44   C     C_3   0.374545 0.080310 0.511036 -0.267189
C45   C     C_3   0.371055 0.919589 0.505289 -0.236576
C46   C     C_3   0.532058 0.082576 0.450331 -0.369756
C47   C     C_3   0.545530 0.920940 0.452139 -0.401293
C48   C     C_3   0.597189 0.077452 0.534755 0.463867
C49   C     C_3   0.581717 0.914813 0.539700 0.470281
C50   C     C_R   0.336970 0.444820 0.176677 0.571721
C51   C     C_R   0.487424 0.626107 0.174175 0.477093
C52   C     C_R   0.498999 0.400091 0.272866 0.560425
C53   C     C_R   0.514660 0.392903 0.323955 -0.347028
C54   C     C_R   0.430350 0.623567 0.330287 -0.229487
H1    H     H_    0.402875 0.710978 0.351731 0.160943
H2    H     H_    0.597584 0.810838 0.115743 0.189188
H3    H     H_    0.508659 0.874254 0.958526 0.144386
H4    H     H_    0.655429 0.450317 0.671922 0.122634
H5    H     H_    0.512820 0.862933 0.871814 0.190968
H6    H     H_    0.600553 0.466920 0.758589 0.138551
H7    H     H_    0.569489 0.832820 0.029878 0.143579
H8    H     H_    0.112335 0.647328 0.557257 0.169404
H9    H     H_    0.105225 0.316830 0.450602 0.168671
H10   H     H_    0.108766 0.470690 0.576725 0.161334
H11   H     H_    0.105852 0.278263 0.515116 0.176071
H12   H     H_    0.893705 0.484005 0.577253 0.152321
H13   H     H_    0.894444 0.276832 0.513005 0.180095
H14   H     H_    0.366379 0.719382 0.263537 0.172303
H15   H     H_    0.899545 0.655441 0.553321 0.173374
H16   H     H_    0.891848 0.319536 0.449237 0.165727
H17   H     H_    0.103465 0.704961 0.463707 0.171298
H18   H     H_    0.104118 0.567484 0.420493 0.160339
H19   H     H_    0.889664 0.704082 0.462101 0.170831
H20   H     H_    0.888071 0.564658 0.419739 0.158880
H21   H     H_    0.300224 0.126628 0.486662 0.151159
H22   H     H_    0.309415 0.893005 0.473239 0.137399
H23   H     H_    0.350676 0.107935 0.549077 0.197058
H24   H     H_    0.325713 0.871843 0.537474 0.196155
H25   H     H_    0.458098 0.112322 0.422584 0.192893
H26   H     H_    0.491327 0.877212 0.420737 0.199794
H27   H     H_    0.691837 0.096375 0.519031 -0.027145
H28   H     H_    0.675630 0.866900 0.535976 0.002643
H29   H     H_    0.621418 0.129041 0.437723 0.165154
H30   H     H_    0.645819 0.891402 0.447228 0.151481
H31   H     H_    0.175578 0.295140 0.121788 0.186614
H32   H     H_    0.274329 0.562197 0.629638 0.125574
H33   H     H_    0.220169 0.580746 0.716286 0.138986
H34   H     H_    0.183160 0.272722 0.874885 0.189417
H35   H     H_    0.173651 0.278963 0.961372 0.143289
H36   H     H_    0.146730 0.307685 0.035407 0.141700
H37   H     H_    0.552328 0.300299 0.341083 0.157697
N1    N     N_R   0.423077 0.528116 0.199470 -0.341220
N2    N     N_R   0.378211 0.543732 0.793045 -0.356231
N3    N     N_3   0.499750 0.138610 0.498940 -0.075269
N4    N     N_3   0.499750 0.861390 0.498940 -0.080145
O1    O     O_R   0.314910 0.616040 0.499990 -0.634073
O2    O     O_R   0.314910 0.383960 0.499990 -0.632585
O3    O     O_R   0.500140 0.616020 0.428740 -0.626882
O4    O     O_R   0.500140 0.383980 0.428740 -0.623711
O5    O     O_R   0.685320 0.616040 0.499970 -0.639385
O6    O     O_R   0.685320 0.383960 0.499970 -0.649177
O7    O     O_R   0.500090 0.616050 0.571230 -0.572099
O8    O     O_R   0.500090 0.383950 0.571230 -0.569664
O9    O     O_2   0.271422 0.352870 0.203056 -0.545493
O10   O     O_2   0.259038 0.340807 0.792531 -0.558402
O11   O     O_2   0.571337 0.707247 0.197849 -0.581285
O12   O     O_2   0.489348 0.751908 0.790612 -0.569629
Zn1   Zn    Zn3+2 0.500150 0.654960 0.499980 0.928520
Zn2   Zn    Zn3+2 0.500150 0.345040 0.499980 0.934671
O13   O     O_3   0.528205 0.289129 0.243990 -0.619891
C55   C     C_3   0.660480 0.269454 0.243060 0.056190
H38   H     H_    0.677429 0.161533 0.232342 0.192445
H39   H     H_    0.708219 0.282224 0.279494 0.117325
C56   C     C_3   0.719771 0.364526 0.204995 -0.377610
H40   H     H_    0.668795 0.353693 0.169226 0.237888
H41   H     H_    0.711357 0.472576 0.216896 0.244393
C57   C     C_3   0.859085 0.331238 0.198647 -0.890491
H42   H     H_    0.912056 0.342990 0.233911 0.271268
H43   H     H_    0.899350 0.402592 0.171263 0.270658
H44   H     H_    0.870426 0.224606 0.185545 0.262928
O14   O     O_3   0.590275 0.135973 0.582107 -0.615441
C58   C     C_3   0.703279 0.202799 0.598744 0.099872
H45   H     H_    0.681950 0.248471 0.634444 0.162057
H46   H     H_    0.727664 0.289080 0.574851 0.175630
C59   C     C_3   0.820590 0.111073 0.607514 -0.492810
H47   H     H_    0.805003 0.040104 0.638310 0.243944
H48   H     H_    0.843635 0.052308 0.574422 0.204039
C60   C     C_3   0.936141 0.195136 0.622715 -0.936595
H49   H     H_    0.967274 0.260777 0.592148 0.258919
H50   H     H_    0.015189 0.124958 0.633185 0.278831
H51   H     H_    0.915061 0.260373 0.654572 0.268938
O15   O     O_3   0.525041 0.875115 0.584614 -0.618506
C61   C     C_3   0.604210 0.858160 0.627047 0.183692
H52   H     H_    0.546371 0.802058 0.653997 0.188615
H53   H     H_    0.620893 0.957623 0.644725 0.167759
C62   C     C_3   0.726570 0.773422 0.621697 -0.473286
H54   H     H_    0.706365 0.674108 0.604132 0.242629
H55   H     H_    0.795640 0.828427 0.599172 0.197175
C63   C     C_3   0.790558 0.744819 0.671471 -0.935552
H56   H     H_    0.820841 0.841972 0.688879 0.271593
H57   H     H_    0.875078 0.679290 0.666634 0.262971
H58   H     H_    0.725525 0.690966 0.696278 0.284663

loop_
_geom_bond_atom_site_label_1
_geom_bond_atom_site_label_2
_ccdc_geom_bond_type
C10   C27   A    
C43   H19   S    
C20   N2    A    
C21   H33   S    
C50   O9    S    
C40   H17   S    
C11   C13   A    
C55   H38   S    
C30   H36   S    
C60   H49   S    
C56   H40   S    
C55   H39   S    
C52   C53   A    
C34   O7    A    
C23   C42   S    
C48   N3    S    
C45   H22   S    
C32   H3    S    
C28   C29   A    
C38   C42   S    
C2    H14   S    
C57   H43   S    
C5    C6    A    
C63   H58   S    
C9    C22   A    
O6    Zn2   S    
C15   C16   A    
O4    Zn2   S    
O3    Zn1   S    
C48   H27   S    
C18   C19   A    
O13   C55   S    
C12   O4    A    
C4    C28   A    
C54   H1    S    
C40   C43   S    
C46   H25   S    
C38   H12   S    
O15   C61   S    
C37   H11   S    
C53   H37   S    
C59   C60   S    
O7    Zn1   S    
C45   H24   S    
C25   H6    S    
C31   H2    S    
C12   O3    A    
C19   N2    A    
C8    C12   S    
C43   H20   S    
C23   O5    A    
O1    Zn1   S    
C38   H15   S    
C33   H5    S    
C21   C22   A    
C27   C30   A    
C36   C41   S    
C47   H26   S    
C4    C7    A    
C36   H8    S    
C37   H9    S    
C21   C26   A    
C39   C42   S    
C49   O15   S    
O5    Zn1   S    
C7    C31   A    
C24   C25   A    
C62   H55   S    
C10   C14   A    
C57   H44   S    
C1    O2    A    
C48   O14   S    
C16   C17   A    
C25   C26   A    
C3    N1    S    
C62   C63   S    
C49   H28   S    
C44   H21   S    
C14   H35   S    
C51   N1    A    
C61   C62   S    
C61   H52   S    
O2    Zn2   S    
C46   N3    S    
C52   O13   S    
C16   C20   A    
C17   C18   A    
C35   H7    S    
C47   H30   S    
C49   N4    S    
C6    H31   S    
O14   C58   S    
C50   N1    A    
C48   C49   S    
C6    C30   A    
C11   C32   A    
C2    C54   A    
C59   H47   S    
C31   C35   A    
C5    C50   A    
C42   C43   S    
C8    C54   A    
C45   N4    S    
C60   H51   S    
C44   C45   S    
C61   H53   S    
C20   O10   S    
C1    C41   S    
C46   C47   S    
C44   H23   S    
C40   H18   S    
C39   H13   S    
C62   H54   S    
C10   C13   A    
C60   H50   S    
C8    C53   A    
C56   H41   S    
C63   H56   S    
C9    C24   A    
C29   C35   A    
N3    Zn2   S    
C34   O8    A    
C13   C17   A    
O8    Zn2   S    
C32   C33   A    
C58   C59   S    
C36   C38   S    
C2    C3    A    
C7    C51   A    
C37   C39   S    
C57   H42   S    
C3    C52   A    
C63   H57   S    
C23   O6    A    
C26   N2    S    
C51   O11   S    
C39   H16   S    
C9    C34   S    
C55   C56   S    
C22   H32   S    
C37   C41   S    
C18   C33   A    
C56   C57   S    
C44   N3    S    
N4    Zn1   S    
C46   H29   S    
C4    C5    A    
C11   C29   A    
C24   H4    S    
C27   C28   A    
C59   H48   S    
C47   N4    S    
C14   C15   A    
C40   C41   S    
C1    O1    A    
C58   H45   S    
C36   H10   S    
C58   H46   S    
C15   H34   S    
C19   O12   S    
