data_mof_unit_15130.cif
_audit_creation_date              2012-12-11T15:33:52-0500
_audit_creation_method            fapswitch 2.2
_symmetry_space_group_name_H-M    P1
_symmetry_Int_Tables_number       1
_space_group_crystal_system       triclinic
_cell_length_a                    26.998853
_cell_length_b                    7.202178
_cell_length_c                    22.661689
_cell_angle_alpha                 89.999702
_cell_angle_beta                  101.524223
_cell_angle_gamma                 89.999922
_cell_volume                      4317.74262526

loop_
_atom_site_label
_atom_site_type_symbol
_atom_type_description
_atom_site_fract_x
_atom_site_fract_y
_atom_site_fract_z
_atom_type_partial_charge
O1    O     O_R   0.207310 0.594030 0.676830 -0.530836
O2    O     O_R   0.792690 0.405970 0.323170 -0.526544
O3    O     O_R   0.292690 0.094030 0.823170 -0.530837
O4    O     O_R   0.707310 0.905970 0.176830 -0.526541
O5    O     O_R   0.197320 0.262370 0.795700 -0.539667
O6    O     O_R   0.802680 0.737630 0.204300 -0.537801
O7    O     O_R   0.302680 0.762370 0.704300 -0.539668
O8    O     O_R   0.697320 0.237630 0.295700 -0.537802
C1    C     C_R   0.184583 0.432352 0.811757 0.686213
C2    C     C_R   0.815395 0.567656 0.188217 0.689427
C3    C     C_R   0.315417 0.932352 0.688243 0.686211
C4    C     C_R   0.684605 0.067656 0.311783 0.689430
O9    O     O_R   0.201410 0.264250 0.675590 -0.533931
O10   O     O_R   0.798590 0.735750 0.324410 -0.538945
O11   O     O_R   0.298590 0.764250 0.824410 -0.533934
O12   O     O_R   0.701410 0.235750 0.175590 -0.538947
O13   O     O_R   0.296810 0.094940 0.702210 -0.535207
O14   O     O_R   0.703190 0.905060 0.297790 -0.535778
O15   O     O_R   0.203190 0.594940 0.797790 -0.535208
O16   O     O_R   0.796810 0.405060 0.202210 -0.535778
C5    C     C_R   0.189585 0.432515 0.653244 0.686394
C6    C     C_R   0.810655 0.566926 0.346560 0.684724
C7    C     C_R   0.310414 0.932514 0.846756 0.686392
C8    C     C_R   0.689345 0.066927 0.153441 0.684724
O17   O     O_3   0.281300 0.427390 0.758870 -0.370518
O18   O     O_3   0.718700 0.572610 0.241130 -0.371667
O19   O     O_3   0.218700 0.927390 0.741130 -0.370517
O20   O     O_3   0.781300 0.072610 0.258870 -0.371669
V1    V     V_3+5 0.244190 0.152150 0.748350 1.405432
V2    V     V_3+5 0.755810 0.847850 0.251650 1.393879
V3    V     V_3+5 0.255810 0.652150 0.751650 1.405427
V4    V     V_3+5 0.744190 0.347850 0.248350 1.393874
C9    C     C_R   0.654606 0.053865 0.094304 -0.049014
C10   C     C_R   0.345085 0.935275 0.906096 -0.046389
C11   C     C_R   0.845394 0.553859 0.405696 -0.049009
C12   C     C_R   0.154915 0.435281 0.593904 -0.046388
C13   C     C_R   0.643537 0.003331 0.987094 -0.147917
C14   C     C_R   0.359503 0.861223 0.012162 -0.146330
C15   C     C_R   0.856461 0.503288 0.512904 -0.147917
C16   C     C_R   0.140499 0.361266 0.487836 -0.146329
C17   C     C_R   0.674920 0.038855 0.042556 -0.158444
C18   C     C_R   0.326631 0.881892 0.956834 -0.159530
C19   C     C_R   0.825079 0.538824 0.457443 -0.158444
C20   C     C_R   0.173370 0.381928 0.543165 -0.159532
C21   C     C_R   0.602113 0.032936 0.089787 -0.218088
C22   C     C_R   0.397280 0.966450 0.911443 -0.208285
C23   C     C_R   0.897887 0.532943 0.410214 -0.218079
C24   C     C_R   0.102719 0.466434 0.588558 -0.208298
C25   C     C_R   0.570242 0.975024 0.035089 0.074454
C26   C     C_R   0.432129 0.922057 0.965437 0.071977
C27   C     C_R   0.929758 0.475017 0.464910 0.074451
C28   C     C_R   0.067871 0.422054 0.534563 0.071979
C29   C     C_R   0.591620 0.970952 0.982953 0.106207
C30   C     C_R   0.411936 0.880391 0.016831 0.105921
C31   C     C_R   0.908379 0.470921 0.517046 0.106206
C32   C     C_R   0.088065 0.380416 0.483167 0.105922
C33   C     C_R   0.517939 0.925284 0.029780 0.002748
C34   C     C_R   0.486027 0.919798 0.970564 0.001175
C35   C     C_R   0.982061 0.425286 0.470219 0.002744
C36   C     C_R   0.013973 0.419783 0.529435 0.001180
C37   C     C_R   0.509967 0.891492 0.920171 0.077457
C38   C     C_R   0.496649 0.862098 0.079465 0.079087
C39   C     C_R   0.990033 0.391452 0.579827 0.077456
C40   C     C_R   0.003352 0.362122 0.420532 0.079086
C41   C     C_R   0.561952 0.924812 0.927311 -0.226017
C42   C     C_R   0.443975 0.847429 0.072016 -0.223088
C43   C     C_R   0.938047 0.424765 0.572686 -0.226015
C44   C     C_R   0.056027 0.347464 0.427982 -0.223090
H1    H     H_    0.580169 0.909078 0.889051 0.127672
H2    H     H_    0.427414 0.803666 0.109602 0.127631
H3    H     H_    0.919830 0.409012 0.610946 0.127672
H4    H     H_    0.072589 0.303720 0.390394 0.127632
H5    H     H_    0.409625 0.028926 0.873838 0.102220
H6    H     H_    0.586956 0.068257 0.128613 0.104052
H7    H     H_    0.090372 0.528885 0.626166 0.102216
H8    H     H_    0.913044 0.568284 0.371389 0.104047
H9    H     H_    0.286630 0.856059 0.953547 0.108919
H10   H     H_    0.715245 0.053608 0.045191 0.109021
H11   H     H_    0.213372 0.356111 0.546450 0.108918
H12   H     H_    0.784754 0.553566 0.454808 0.109021
H13   H     H_    0.660246 0.995248 0.947475 0.122700
H14   H     H_    0.343986 0.823532 0.051084 0.123233
H15   H     H_    0.839752 0.495186 0.552523 0.122700
H16   H     H_    0.156017 0.323598 0.448912 0.123233
C45   C     C_R   0.640078 0.896809 0.382930 -0.150853
C46   C     C_R   0.360070 0.103198 0.617214 -0.148829
C47   C     C_R   0.859921 0.396810 0.117070 -0.150853
C48   C     C_R   0.139931 0.603196 0.882787 -0.148829
H17   H     H_    0.664701 0.778554 0.382044 0.132371
H18   H     H_    0.335342 0.221249 0.617911 0.131866
H19   H     H_    0.835299 0.278555 0.117956 0.132372
H20   H     H_    0.164659 0.721246 0.882089 0.131865
C49   C     C_R   0.603645 0.887127 0.418897 -0.139071
C50   C     C_R   0.396669 0.113069 0.581473 -0.139270
C51   C     C_R   0.896355 0.387128 0.081103 -0.139073
C52   C     C_R   0.103332 0.613067 0.918527 -0.139271
H21   H     H_    0.601594 0.762109 0.444857 0.167336
H22   H     H_    0.398744 0.238025 0.555489 0.167662
H23   H     H_    0.898405 0.262110 0.055143 0.167336
H24   H     H_    0.101257 0.738022 0.944511 0.167661
C53   C     C_R   0.570860 0.036790 0.422364 -0.018532
C54   C     C_R   0.429584 0.963634 0.578251 -0.018745
C55   C     C_R   0.929140 0.536790 0.077636 -0.018532
C56   C     C_R   0.070416 0.463633 0.921749 -0.018748
C57   C     C_R   0.575168 0.197711 0.387644 0.182160
C58   C     C_R   0.425261 0.802827 0.613010 0.182932
C59   C     C_R   0.924832 0.697711 0.112356 0.182160
C60   C     C_R   0.074739 0.302828 0.886990 0.182934
C61   C     C_R   0.612433 0.207280 0.352365 -0.192423
C62   C     C_R   0.387830 0.793053 0.648045 -0.191386
C63   C     C_R   0.887567 0.707280 0.147634 -0.192423
C64   C     C_R   0.112170 0.293054 0.851955 -0.191383
H25   H     H_    0.614856 0.331140 0.325982 0.144445
H26   H     H_    0.385374 0.669219 0.674411 0.142436
H27   H     H_    0.885144 0.831140 0.174017 0.144443
H28   H     H_    0.114625 0.169221 0.825589 0.142432
C65   C     C_R   0.645316 0.057584 0.349560 -0.084257
C66   C     C_R   0.354811 0.942490 0.650608 -0.083497
C67   C     C_R   0.854684 0.557585 0.150440 -0.084257
C68   C     C_R   0.145189 0.442489 0.849392 -0.083498
N1    N     N_R   0.519568 0.168018 0.492177 -0.220071
N2    N     N_R   0.480979 0.832357 0.508580 -0.219585
N3    N     N_R   0.980433 0.668019 0.007823 -0.220071
N4    N     N_R   0.019021 0.332356 0.991420 -0.219585
N5    N     N_R   0.487040 0.149730 0.529055 -0.238849
N6    N     N_R   0.513503 0.850653 0.471699 -0.238888
N7    N     N_R   0.012960 0.649730 0.970945 -0.238850
N8    N     N_R   0.986496 0.350652 0.028301 -0.238888
C69   C     C_R   0.467241 0.981223 0.538444 0.524039
C70   C     C_R   0.533294 0.019165 0.462298 0.523694
C71   C     C_R   0.032759 0.481223 0.961556 0.524039
C72   C     C_R   0.966706 0.519165 0.037702 0.523694
C73   C     C_3   0.485394 0.791298 0.862035 -0.340841
C74   C     C_3   0.464564 0.599287 0.874232 -0.308215
C75   C     C_3   0.439694 0.503563 0.815657 -0.725286
H29   H     H_    0.407133 0.586970 0.791882 0.226587
H30   H     H_    0.467346 0.485562 0.785794 0.242968
H31   H     H_    0.425680 0.364560 0.825832 0.210691
H32   H     H_    0.496013 0.510873 0.898161 0.200027
H33   H     H_    0.436040 0.610745 0.903076 0.208896
H34   H     H_    0.456706 0.875956 0.832490 0.163532
H35   H     H_    0.513867 0.766747 0.833528 0.181711
C76   C     C_3   0.526880 0.772725 0.136825 -0.340888
C77   C     C_3   0.559416 0.609016 0.123270 -0.312666
C78   C     C_3   0.586323 0.515137 0.181293 -0.716708
H36   H     H_    0.611210 0.616010 0.210268 0.236442
H37   H     H_    0.558373 0.458341 0.206463 0.224557
H38   H     H_    0.609872 0.399039 0.170243 0.217221
H39   H     H_    0.534968 0.505138 0.095006 0.199402
H40   H     H_    0.588430 0.656159 0.098227 0.210720
H41   H     H_    0.549199 0.873382 0.167808 0.163879
H42   H     H_    0.500675 0.715368 0.164392 0.182753
C79   C     C_3   0.014605 0.291235 0.637959 -0.340845
C80   C     C_3   0.035438 0.099237 0.625754 -0.308211
C81   C     C_3   0.060294 0.003463 0.684326 -0.725271
H43   H     H_    0.092849 0.086862 0.708122 0.226587
H44   H     H_    0.032631 0.985414 0.714172 0.242959
H45   H     H_    0.074316 0.864478 0.674145 0.210686
H46   H     H_    0.003994 0.010839 0.601806 0.200027
H47   H     H_    0.063972 0.110726 0.596923 0.208895
H48   H     H_    0.043291 0.375885 0.667508 0.163529
H49   H     H_    0.986132 0.266661 0.666463 0.181718
C82   C     C_3   0.973122 0.272758 0.363171 -0.340886
C83   C     C_3   0.940590 0.109033 0.376722 -0.312672
C84   C     C_3   0.913677 0.015187 0.318696 -0.716702
H50   H     H_    0.888782 0.116069 0.289735 0.236446
H51   H     H_    0.941623 0.958431 0.293514 0.224565
H52   H     H_    0.890134 0.899064 0.329745 0.217212
H53   H     H_    0.965043 0.005143 0.404976 0.199400
H54   H     H_    0.911581 0.156153 0.401775 0.210720
H55   H     H_    0.950801 0.373418 0.332191 0.163882
H56   H     H_    0.999328 0.215420 0.335601 0.182749
I1    I     I_    0.524663 0.426529 0.380441 -0.359964
I2    I     I_    0.475976 0.574571 0.620646 -0.366036
I3    I     I_    0.975337 0.926527 0.119559 -0.359967
I4    I     I_    0.024023 0.074575 0.879353 -0.366027

loop_
_geom_bond_atom_site_label_1
_geom_bond_atom_site_label_2
_ccdc_geom_bond_type
O17   V3    S    
C75   H31   S    
C48   C52   A    
O1    C5    A    
C84   H50   S    
C47   H19   S    
N3    C72   A    
O19   V1    S    
C9    C21   A    
C16   H16   S    
C83   H54   S    
C82   C83   S    
C10   C18   A    
C54   C69   S    
C56   C60   A    
C38   C76   S    
C11   C23   A    
C62   C66   A    
C78   H36   S    
C37   C73   S    
C75   H29   S    
C5    C12   S    
O7    C3    A    
C6    C11   S    
O5    C1    A    
C26   C30   A    
C28   C36   A    
C36   C39   A    
C40   C44   A    
O9    V1    S    
C83   C84   S    
C23   H8    S    
C14   C18   A    
C74   H33   S    
O4    C8    A    
C51   H23   S    
C81   H44   S    
C50   H22   S    
C76   C77   S    
C60   I4    S    
O1    V3    S    
O13   V1    S    
O2    V4    S    
O3    V1    S    
C77   H40   S    
C2    C67   S    
C46   C50   A    
C58   C62   A    
N1    N5    A    
C45   C49   A    
C1    O15   A    
C15   C31   A    
C48   H20   S    
C2    O16   A    
C16   C32   A    
C56   C71   S    
C47   C51   A    
O2    C6    A    
C54   C58   A    
C10   C22   A    
C48   C68   A    
C11   C19   A    
C55   C72   S    
C62   H26   S    
N2    C69   A    
C43   H3    S    
C44   H4    S    
N4    N8    A    
C13   C29   A    
C53   C70   S    
C34   C37   A    
O11   C7    A    
O15   V3    S    
C35   C36   A    
O12   C8    A    
C57   I1    S    
C14   H14   S    
C81   H45   S    
C24   H7    S    
C13   H13   S    
C83   H53   S    
O10   V2    S    
C40   C82   S    
N8    C72   A    
C78   H37   S    
C51   C55   A    
O5    V1    S    
C53   C57   A    
C39   C43   A    
O7    V3    S    
C80   H47   S    
C38   C42   A    
C61   C65   A    
C26   C34   A    
C33   C38   A    
C39   C79   S    
C46   H18   S    
C49   C53   A    
C74   H32   S    
C64   C68   A    
C45   H17   S    
O18   V4    S    
C15   C19   A    
C82   H55   S    
O3    C7    A    
C32   C44   A    
C60   C64   A    
N4    C71   A    
C79   H48   S    
C21   H6    S    
O8    V4    S    
N2    N6    A    
C47   C67   A    
C77   H39   S    
C17   H10   S    
C23   C27   A    
C63   H27   S    
N3    N7    A    
C14   C30   A    
C21   C25   A    
O8    C4    A    
C7    C10   S    
C58   I2    S    
O9    C5    A    
C46   C66   A    
N1    C70   A    
C45   C65   A    
C82   H56   S    
C80   C81   S    
O14   V2    S    
C63   C67   A    
C76   H42   S    
O6    V2    S    
C16   C20   A    
C84   H52   S    
C52   C56   A    
C73   C74   S    
C12   C20   A    
C27   C35   A    
C49   H21   S    
C64   H28   S    
C78   H38   S    
C29   C41   A    
O16   V4    S    
C75   H30   S    
C57   C61   A    
C3    O13   A    
C59   C63   A    
C20   H11   S    
C77   C78   S    
O6    C2    A    
C25   C33   A    
C31   C43   A    
O11   V3    S    
C74   C75   S    
C30   C42   A    
C61   H25   S    
O12   V4    S    
C22   C26   A    
C73   H34   S    
C8    C9    S    
C79   H49   S    
C9    C17   A    
O10   C6    A    
O20   V2    S    
C19   H12   S    
C15   H15   S    
C80   H46   S    
C35   C40   A    
C33   C34   A    
C42   H2    S    
C59   I3    S    
C41   H1    S    
C52   H24   S    
C76   H41   S    
C12   C24   A    
C27   C31   A    
C37   C41   A    
C13   C17   A    
C73   H35   S    
N7    C71   A    
C25   C29   A    
C4    C65   S    
N5    C69   A    
C24   C28   A    
C50   C54   A    
C18   H9    S    
C84   H51   S    
C4    O14   A    
C81   H43   S    
C1    C68   S    
N6    C70   A    
C55   C59   A    
C79   C80   S    
C3    C66   S    
C22   H5    S    
O4    V2    S    
C28   C32   A    
