data_mof_unit_53505.cif
_audit_creation_date              2012-12-10T18:34:25-0500
_audit_creation_method            fapswitch 2.2
_symmetry_space_group_name_H-M    P1
_symmetry_Int_Tables_number       1
_space_group_crystal_system       triclinic
_cell_length_a                    14.92161
_cell_length_b                    15.246163
_cell_length_c                    15.735414
_cell_angle_alpha                 89.784163
_cell_angle_beta                  103.962271
_cell_angle_gamma                 82.214607
_cell_volume                      3439.50309305

loop_
_atom_site_label
_atom_site_type_symbol
_atom_type_description
_atom_site_fract_x
_atom_site_fract_y
_atom_site_fract_z
_atom_type_partial_charge
C1    C     C_R   0.441755 0.662915 0.489326 0.852857
C2    C     C_R   0.558155 0.336948 0.514534 0.857324
C3    C     C_R   0.278079 0.877404 0.464873 -0.188333
C4    C     C_R   0.699394 0.131676 0.638118 -0.184348
C5    C     C_R   0.311520 0.788547 0.458469 -0.184231
C6    C     C_R   0.679241 0.216497 0.598032 -0.206738
C7    C     C_R   0.465341 0.812837 0.539116 -0.199575
C8    C     C_R   0.525140 0.185749 0.525857 -0.182901
C9    C     C_R   0.432836 0.901975 0.548304 0.094348
C10   C     C_R   0.539722 0.105674 0.573445 0.092774
C11   C     C_R   0.338854 0.934982 0.506899 0.076339
C12   C     C_R   0.629959 0.075924 0.626177 0.092963
C13   C     C_R   0.494336 0.961157 0.588259 -0.118155
C14   C     C_R   0.468162 0.051974 0.564854 -0.144677
C15   C     C_R   0.371553 0.084664 0.533194 0.528458
C16   C     C_R   0.581869 0.933712 0.648294 0.525831
C17   C     C_R   0.307954 0.025558 0.504976 -0.304147
C18   C     C_R   0.648844 0.991377 0.666324 -0.328607
C19   C     C_R   0.844869 0.627147 0.646417 0.469921
C20   C     C_R   0.178482 0.327359 0.415296 0.517139
C21   C     C_R   0.753793 0.605855 0.617787 -0.243045
C22   C     C_R   0.260687 0.364513 0.421253 -0.217107
C23   C     C_R   0.500705 0.499984 0.661830 0.885671
C24   C     C_R   0.499369 0.499843 0.338256 0.888234
C25   C     C_R   0.795969 0.516036 0.506969 0.687954
C26   C     C_R   0.195550 0.498457 0.471490 0.699386
C27   C     C_R   0.891793 0.522120 0.542698 -0.175477
C28   C     C_R   0.119332 0.458647 0.485088 -0.180822
C29   C     C_R   0.914135 0.584653 0.607608 -0.067080
C30   C     C_R   0.108772 0.373911 0.451014 -0.101398
C31   C     C_R   0.965330 0.469089 0.515975 -0.045630
C32   C     C_R   0.053109 0.500672 0.529082 -0.035030
C33   C     C_R   0.075190 0.566484 0.592324 0.508775
C34   C     C_R   0.956120 0.382270 0.484932 0.529847
C35   C     C_R   0.005767 0.603359 0.633939 -0.299450
C36   C     C_R   0.029393 0.335898 0.453761 -0.297608
C37   C     C_3   0.412924 0.504393 0.008994 0.358299
C38   C     C_3   0.586987 0.498413 0.991617 0.320285
C39   C     C_3   0.446970 0.572466 0.955105 0.272375
C40   C     C_3   0.552088 0.429947 0.043776 0.312169
C41   C     C_1   0.502492 0.498670 0.750797 -0.183121
C42   C     C_1   0.497661 0.501274 0.249437 -0.183037
C43   C     C_3   0.464506 0.427741 0.968753 0.349498
C44   C     C_3   0.534725 0.575613 0.031394 0.256371
C45   C     C_3   0.499864 0.495400 0.915875 -0.237904
C46   C     C_3   0.500138 0.506497 0.084504 -0.262473
C47   C     C_1   0.502361 0.496897 0.825839 0.096654
C48   C     C_1   0.497930 0.503590 0.174519 0.073943
C49   C     C_R   0.405538 0.756304 0.494337 -0.086844
C50   C     C_R   0.591115 0.243965 0.542226 -0.097204
H1    H     H_    0.319637 0.326775 0.403738 0.191021
H2    H     H_    0.699828 0.631142 0.649940 0.189026
H3    H     H_    0.235231 0.051228 0.477327 0.189965
H4    H     H_    0.716201 0.969079 0.710327 0.156836
H5    H     H_    0.461454 0.204504 0.475968 0.192529
H6    H     H_    0.538425 0.787504 0.562309 0.204981
H7    H     H_    0.731193 0.261049 0.612485 0.174626
H8    H     H_    0.264811 0.745602 0.423278 0.173787
H9    H     H_    0.205702 0.901677 0.434280 0.136697
H10   H     H_    0.768150 0.110577 0.680069 0.138730
H11   H     H_    0.021891 0.648294 0.686346 0.197321
H12   H     H_    0.025542 0.269839 0.430561 0.195765
N1    N     N_R   0.731710 0.552730 0.549140 -0.168378
N2    N     N_R   0.268290 0.447270 0.450860 -0.180605
O1    O     O_R   0.383110 0.605620 0.475230 -0.560465
O2    O     O_R   0.616890 0.394380 0.524770 -0.576583
O3    O     O_R   0.531900 0.639510 0.506760 -0.628276
O4    O     O_R   0.468100 0.360490 0.493240 -0.622771
O5    O     O_R   0.425620 0.483070 0.607460 -0.596920
O6    O     O_R   0.574380 0.516930 0.392540 -0.572844
O7    O     O_R   0.574400 0.516960 0.638990 -0.610709
O8    O     O_R   0.425600 0.483040 0.361010 -0.617710
Zn1   Zn    Zn3+2 0.400660 0.477370 0.478940 0.979530
Zn2   Zn    Zn3+2 0.599340 0.522630 0.521060 0.983581
O9    O     O_3   0.383735 0.638315 0.899630 -0.661288
C51   C     C_3   0.406388 0.723243 0.921467 0.136911
H13   H     H_    0.477364 0.729230 0.913151 0.191335
H14   H     H_    0.401832 0.737043 0.989866 0.149873
C52   C     C_3   0.336965 0.791454 0.859177 -0.383839
H15   H     H_    0.344164 0.779852 0.791374 0.224049
H16   H     H_    0.264746 0.783445 0.861924 0.228171
C53   C     C_3   0.354139 0.885775 0.882574 -0.980094
H17   H     H_    0.343890 0.899825 0.949064 0.268056
H18   H     H_    0.304188 0.933435 0.834486 0.271459
H19   H     H_    0.426199 0.895172 0.880883 0.259173
O10   O     O_3   0.606850 0.356480 0.094761 -0.632930
C54   C     C_3   0.644396 0.294316 0.041492 0.141993
H20   H     H_    0.721634 0.287990 0.062800 0.127955
H21   H     H_    0.624415 0.313116 0.970046 0.147249
C55   C     C_3   0.614655 0.204172 0.054931 -0.306893
H22   H     H_    0.639348 0.182554 0.125201 0.220155
H23   H     H_    0.537367 0.209808 0.036573 0.262826
C56   C     C_3   0.654415 0.134288 0.999645 -0.992854
H24   H     H_    0.628607 0.153535 0.928873 0.268925
H25   H     H_    0.631946 0.069694 0.011221 0.268537
H26   H     H_    0.731850 0.126439 0.017827 0.265847
O11   O     O_3   0.192590 0.589185 0.468356 -0.567269
C57   C     C_3   0.135775 0.621738 0.385908 -0.420468
H27   H     H_    0.065325 0.600414 0.372372 0.160700
H28   H     H_    0.170573 0.601235 0.332615 0.182173
H29   H     H_    0.124115 0.695062 0.385172 0.176632
O12   O     O_3   0.765137 0.474691 0.429574 -0.553384
C58   C     C_3   0.772269 0.528571 0.359056 -0.384287
H30   H     H_    0.846279 0.530535 0.358440 0.151883
H31   H     H_    0.735487 0.596992 0.360168 0.160375
H32   H     H_    0.738658 0.499532 0.296931 0.189214
O13   O     O_3   0.871206 0.680472 0.717375 -0.622965
C59   C     C_3   0.802564 0.753455 0.718419 -0.261489
H33   H     H_    0.749464 0.733585 0.750543 0.211216
H34   H     H_    0.769716 0.783781 0.651722 0.170491
H35   H     H_    0.836280 0.805157 0.758501 0.183310
O14   O     O_3   0.169150 0.242106 0.386181 -0.587720
C60   C     C_3   0.201642 0.226531 0.309680 -0.316173
H36   H     H_    0.278329 0.205994 0.326829 0.179102
H37   H     H_    0.181702 0.284770 0.262632 0.144944
H38   H     H_    0.169292 0.170705 0.275943 0.187124
O15   O     O_3   0.168630 0.579592 0.622035 -0.624481
C61   C     C_3   0.184767 0.661292 0.661985 0.155129
H39   H     H_    0.261575 0.660834 0.679851 0.186282
H40   H     H_    0.164630 0.666061 0.725429 0.116327
C62   C     C_3   0.141799 0.742756 0.600052 -0.374656
H41   H     H_    0.165782 0.735648 0.538841 0.270168
H42   H     H_    0.064554 0.749110 0.582682 0.209992
C63   C     C_3   0.170480 0.828115 0.641594 -0.974567
H43   H     H_    0.151110 0.836097 0.705272 0.267295
H44   H     H_    0.134340 0.885652 0.597234 0.268512
H45   H     H_    0.246812 0.827510 0.651677 0.272817
O16   O     O_3   0.881731 0.342241 0.499957 -0.622798
C64   C     C_3   0.861287 0.265839 0.452010 0.115249
H46   H     H_    0.805150 0.239995 0.475608 0.165904
H47   H     H_    0.920388 0.210992 0.467811 0.113802
C65   C     C_3   0.823412 0.286815 0.353017 -0.327176
H48   H     H_    0.755099 0.330029 0.341278 0.266486
H49   H     H_    0.871596 0.322301 0.326541 0.212737
C66   C     C_3   0.809706 0.202394 0.302768 -0.977173
H50   H     H_    0.877105 0.157929 0.312729 0.265897
H51   H     H_    0.783000 0.219609 0.231722 0.273394
H52   H     H_    0.758514 0.167193 0.325096 0.266732
O17   O     O_3   0.321889 0.502069 0.019441 -0.619890
C67   C     C_3   0.284474 0.585239 0.044394 0.118763
H53   H     H_    0.253411 0.628848 0.984887 0.173514
H54   H     H_    0.337726 0.618497 0.089907 0.116163
C68   C     C_3   0.208109 0.571897 0.090763 -0.322452
H55   H     H_    0.152176 0.541853 0.045307 0.229984
H56   H     H_    0.238111 0.525799 0.148629 0.231600
C69   C     C_3   0.165920 0.659352 0.121321 -0.997648
H57   H     H_    0.220238 0.689202 0.168921 0.264039
H58   H     H_    0.110284 0.647280 0.153963 0.263694
H59   H     H_    0.134878 0.706433 0.064519 0.270940
O18   O     O_3   0.677089 0.494374 0.976796 -0.624618
C70   C     C_3   0.745839 0.489968 0.056929 0.147338
H60   H     H_    0.790885 0.424936 0.062440 0.135466
H61   H     H_    0.717699 0.495049 0.116507 0.128549
C71   C     C_3   0.806094 0.563311 0.056131 -0.305445
H62   H     H_    0.841003 0.553816 0.001246 0.232643
H63   H     H_    0.761204 0.628694 0.045462 0.245765
C72   C     C_3   0.880069 0.563008 0.142229 -1.028879
H64   H     H_    0.846397 0.576026 0.197500 0.254077
H65   H     H_    0.923765 0.615740 0.138813 0.273319
H66   H     H_    0.925809 0.498111 0.154526 0.270580
O19   O     O_3   0.573926 0.654719 0.052947 -0.658964
C73   C     C_3   0.603479 0.664784 0.144072 0.096668
H67   H     H_    0.665540 0.700030 0.155607 0.159459
H68   H     H_    0.627620 0.601116 0.182276 0.126833
C74   C     C_3   0.527177 0.722342 0.176796 -0.370681
H69   H     H_    0.509726 0.787387 0.140235 0.223605
H70   H     H_    0.463199 0.690148 0.164311 0.206338
C75   C     C_3   0.558281 0.737839 0.274614 -0.954160
H71   H     H_    0.573249 0.674003 0.312729 0.275426
H72   H     H_    0.501852 0.780650 0.295736 0.265904
H73   H     H_    0.621778 0.771100 0.288787 0.258383
O20   O     O_3   0.428442 0.347078 0.948054 -0.621909
C76   C     C_3   0.382297 0.344087 0.858725 0.073633
H74   H     H_    0.367482 0.275041 0.847399 0.159895
H75   H     H_    0.427864 0.355548 0.814900 0.127393
C77   C     C_3   0.288848 0.405840 0.834817 -0.310323
H76   H     H_    0.246811 0.393104 0.881859 0.254070
H77   H     H_    0.300938 0.476126 0.838551 0.251428
C78   C     C_3   0.233656 0.391071 0.742190 -0.934743
H78   H     H_    0.271976 0.408544 0.693558 0.284748
H79   H     H_    0.164960 0.433651 0.728637 0.286546
H80   H     H_    0.221341 0.320935 0.735276 0.245813
O21   O     O_3   0.337276 0.173815 0.529450 -0.600574
C79   C     C_3   0.333333 0.200092 0.614392 -0.294261
H81   H     H_    0.403975 0.193039 0.659756 0.154719
H82   H     H_    0.286650 0.162456 0.641140 0.157445
H83   H     H_    0.303881 0.271169 0.610394 0.196584
O22   O     O_3   0.602581 0.852147 0.692406 -0.656423
C80   C     C_3   0.554030 0.854049 0.759115 -0.360053
H84   H     H_    0.477285 0.861746 0.731463 0.183198
H85   H     H_    0.572565 0.907439 0.805522 0.170951
H86   H     H_    0.574444 0.789955 0.797019 0.200041

loop_
_geom_bond_atom_site_label_1
_geom_bond_atom_site_label_2
_ccdc_geom_bond_type
C66   H52   S    
C54   H20   S    
C33   O15   S    
C74   H69   S    
C8    C50   A    
C27   C29   A    
C24   C42   S    
C23   O5    A    
C51   C52   S    
O21   C79   S    
O16   C64   S    
O19   C73   S    
C24   O6    A    
C66   H50   S    
C20   C30   A    
C76   H74   S    
C59   H33   S    
C40   C46   S    
C72   H64   S    
C5    H8    S    
C56   H26   S    
C19   C21   A    
C51   H14   S    
C60   H36   S    
C2    O4    A    
C25   O12   S    
C68   H55   S    
O2    Zn2   S    
O1    Zn1   S    
C79   H81   S    
C68   H56   S    
C25   N1    A    
C70   C71   S    
C40   O10   S    
C80   H85   S    
C9    C13   A    
C61   H39   S    
C62   C63   S    
C26   N2    A    
C2    C50   S    
C1    O3    A    
C20   O14   S    
C77   C78   S    
C11   C17   A    
C79   H82   S    
C65   H48   S    
C38   C45   S    
C15   O21   S    
O6    Zn2   S    
C1    O1    A    
C70   H60   S    
C67   C68   S    
O5    Zn1   S    
C39   O9    S    
C26   C28   A    
C4    C12   A    
C73   H68   S    
C39   C45   S    
C60   H38   S    
C75   H72   S    
C74   H70   S    
C13   C14   A    
C6    H7    S    
C5    C49   A    
C80   H84   S    
C7    H6    S    
C36   H12   S    
C8    H5    S    
O14   C60   S    
C44   C46   S    
O11   C57   S    
C69   H58   S    
C45   C47   S    
C46   C48   S    
C62   H41   S    
C27   C31   A    
C23   O7    A    
C28   C32   A    
C67   H53   S    
C7    C49   A    
C71   C72   S    
C35   H11   S    
C16   O22   S    
C68   C69   S    
C52   H16   S    
O10   C54   S    
C3    C5    A    
O4    Zn1   S    
C73   H67   S    
C6    C50   A    
C78   H78   S    
O22   C80   S    
C61   C62   S    
C37   C43   S    
C80   H86   S    
O9    C51   S    
C38   C44   S    
O7    Zn2   S    
C69   H59   S    
C43   C45   S    
C55   H23   S    
C31   C32   A    
N2    Zn1   S    
C4    H10   S    
C41   C47   T    
C31   C34   A    
C58   H31   S    
O3    Zn2   S    
C42   C48   T    
C51   H13   S    
C9    C11   A    
C71   H62   S    
C76   H75   S    
C10   C12   A    
C78   H80   S    
C63   H45   S    
C65   H49   S    
C75   H71   S    
C20   C22   A    
C53   H17   S    
C72   H66   S    
C53   H18   S    
C54   H21   S    
C10   C14   A    
C13   C16   A    
C4    C6    A    
C44   O19   S    
O13   C59   S    
C19   C29   A    
C57   H29   S    
C17   H3    S    
C62   H42   S    
O20   C76   S    
C24   O8    A    
C55   C56   S    
C63   H44   S    
C69   H57   S    
C76   C77   S    
C66   H51   S    
C77   H76   S    
C14   C15   A    
C73   C74   S    
C71   H63   S    
C8    C10   A    
C67   H54   S    
O8    Zn1   S    
C2    O2    A    
C52   C53   S    
C72   H65   S    
O17   C67   S    
C59   H35   S    
C34   O16   S    
C15   C17   A    
C39   C44   S    
N1    Zn2   S    
C43   O20   S    
C25   C27   A    
C53   H19   S    
C56   H24   S    
C29   C35   A    
C57   H28   S    
C74   C75   S    
C23   C41   S    
C79   H83   S    
C30   C36   A    
C32   C33   A    
C64   C65   S    
C28   C30   A    
C64   H46   S    
C37   C39   S    
O15   C61   S    
C38   C40   S    
C55   H22   S    
C56   H25   S    
C65   C66   S    
C77   H77   S    
C33   C35   A    
C59   H34   S    
C58   H32   S    
C34   C36   A    
C70   H61   S    
O12   C58   S    
C61   H40   S    
C21   N1    A    
C3    C11   A    
C18   H4    S    
C26   O11   S    
C22   N2    A    
C52   H15   S    
C7    C9    A    
C16   C18   A    
C57   H27   S    
C37   O17   S    
C54   C55   S    
C12   C18   A    
C58   H30   S    
O18   C70   S    
C22   H1    S    
C78   H79   S    
C75   H73   S    
C64   H47   S    
C37   C46   S    
C1    C49   S    
C38   O18   S    
C21   H2    S    
C3    H9    S    
C63   H43   S    
C60   H37   S    
C40   C43   S    
C19   O13   S    
