data_mof_unit_67904.cif
_audit_creation_date              2012-12-10T17:49:38-0500
_audit_creation_method            fapswitch 2.2
_symmetry_space_group_name_H-M    P1
_symmetry_Int_Tables_number       1
_space_group_crystal_system       triclinic
_cell_length_a                    10.801717
_cell_length_b                    10.858684
_cell_length_c                    10.081476
_cell_angle_alpha                 93.33237
_cell_angle_beta                  88.555469
_cell_angle_gamma                 94.730097
_cell_volume                      1176.21322581

loop_
_atom_site_label
_atom_site_type_symbol
_atom_type_description
_atom_site_fract_x
_atom_site_fract_y
_atom_site_fract_z
_atom_type_partial_charge
C1    C     C_R   0.506963 0.260794 0.495903 0.925404
C2    C     C_3   0.972026 0.620239 0.474619 0.262728
C3    C     C_3   0.050564 0.540870 0.378447 0.108059
C4    C     C_3   0.124397 0.503861 0.496974 -0.276614
C5    C     C_R   0.651916 0.146447 0.682209 -0.199500
C6    C     C_R   0.687196 0.101378 0.798900 -0.181526
C7    C     C_R   0.641110 0.985190 0.835564 0.208984
C8    C     C_R   0.554036 0.914692 0.753537 0.154776
C9    C     C_R   0.535268 0.951472 0.622272 0.017523
C10   C     C_R   0.569848 0.075346 0.597077 0.032654
C11   C     C_R   0.520593 0.127640 0.488518 -0.154174
C12   C     C_R   0.258574 0.502778 0.500534 1.003884
C13   C     C_R   0.464792 0.051714 0.385931 0.185634
C14   C     C_R   0.433025 0.926497 0.406354 0.118755
C15   C     C_R   0.479635 0.873739 0.517093 -0.151801
C16   C     C_R   0.333490 0.312441 0.110480 0.304748
C17   C     C_R   0.274530 0.225848 0.015779 0.288239
C18   C     C_R   0.275830 0.253566 0.883211 0.212539
C19   C     C_R   0.314320 0.372816 0.852995 0.378157
C20   C     C_R   0.412014 0.429245 0.924133 -0.062320
C21   C     C_R   0.416880 0.415845 0.065560 -0.065399
C22   C     C_R   0.580440 0.574524 0.073579 0.185307
C23   C     C_R   0.492664 0.739751 0.505105 0.928888
C24   C     C_R   0.592005 0.560620 0.931044 0.179763
C25   C     C_R   0.742891 0.501976 0.498409 0.942960
C26   C     C_3   0.032982 0.389694 0.511578 0.103663
C27   C     C_3   0.957855 0.426200 0.393715 0.329437
C28   C     C_3   0.879378 0.504948 0.494058 -0.322478
C29   C     C_3   0.956478 0.467476 0.609882 0.092274
C30   C     C_3   0.046912 0.582767 0.591974 0.354910
H1    H     H_    0.689435 0.238129 0.658699 0.176744
H2    H     H_    0.743119 0.161108 0.865966 0.166596
N1    N     N_R   0.498800 0.498800 0.142780 -0.102344
N2    N     N_R   0.498760 0.498720 0.857170 -0.110988
O1    O     O_R   0.500000 0.316780 0.614690 -0.631088
O2    O     O_R   0.499990 0.316750 0.385360 -0.557604
O3    O     O_R   0.313960 0.499980 0.614650 -0.553953
O4    O     O_R   0.313940 0.499960 0.385310 -0.590541
O5    O     O_R   0.500010 0.683250 0.614640 -0.611904
O6    O     O_R   0.500000 0.683220 0.385310 -0.586833
O7    O     O_R   0.686060 0.500040 0.614690 -0.597262
O8    O     O_R   0.686040 0.500020 0.385350 -0.595441
Zn1   Zn    Zn3+2 0.500010 0.500020 0.653130 1.014711
Zn2   Zn    Zn3+2 0.499990 0.499980 0.346870 1.018819
Cl1   Cl    Cl    0.897644 0.331906 0.255289 -0.663088
N3    N     N_2   0.674186 0.942320 0.959143 -0.372882
H3    H     H_    0.601394 0.931261 0.025663 0.207056
C31   C     C_3   0.795739 0.982216 0.012668 -0.727456
H4    H     H_    0.869503 0.970848 0.935109 0.294573
H5    H     H_    0.814438 0.925158 0.096512 0.250993
H6    H     H_    0.800136 0.080289 0.050897 0.272527
N4    N     N_2   0.468480 0.825998 0.812747 -0.302962
H7    H     H_    0.502207 0.781560 0.889940 0.213796
C32   C     C_3   0.348706 0.870802 0.844719 -0.550476
H8    H     H_    0.288315 0.797532 0.892131 0.270466
H9    H     H_    0.303805 0.895304 0.753105 0.307809
H10   H     H_    0.359655 0.953333 0.914970 0.233474
N5    N     N_2   0.336698 0.858683 0.331591 -0.274115
H11   H     H_    0.253453 0.899169 0.337440 0.279474
C33   C     C_3   0.367496 0.810499 0.199109 -0.716457
H12   H     H_    0.307944 0.848082 0.125870 0.233084
H13   H     H_    0.350114 0.708322 0.193225 0.282079
H14   H     H_    0.465661 0.835738 0.172609 0.219309
N6    N     N_2   0.648104 0.672734 0.143948 -0.280316
H15   H     H_    0.641851 0.756434 0.104262 0.208785
C34   C     C_3   0.773376 0.653253 0.174439 -0.705386
H16   H     H_    0.837220 0.704222 0.105400 0.208591
H17   H     H_    0.789928 0.553467 0.167857 0.275725
H18   H     H_    0.790990 0.691388 0.276087 0.299831
Cl2   Cl    Cl    0.278138 0.282113 0.269842 -0.579173
Cl3   Cl    Cl    0.182971 0.090823 0.061620 -0.558870
Cl4   Cl    Cl    0.217053 0.146783 0.758172 -0.611501
Cl5   Cl    Cl    0.194838 0.472132 0.864679 -0.636432
N7    N     N_2   0.712665 0.574087 0.872732 -0.280936
H19   H     H_    0.778529 0.542425 0.931166 0.219169
C35   C     C_3   0.753550 0.690132 0.817621 -0.649297
H20   H     H_    0.783493 0.757954 0.897543 0.243654
H21   H     H_    0.681029 0.722560 0.757182 0.264869
H22   H     H_    0.835060 0.678030 0.751077 0.274813
N8    N     N_2   0.072763 0.267912 0.532154 -0.275537
H23   H     H_    0.166766 0.260306 0.520335 0.290420
C36   C     C_3   0.996819 0.161809 0.478117 -0.523863
H24   H     H_    0.015814 0.078928 0.531288 0.278026
H25   H     H_    0.020262 0.144444 0.371188 0.297387
H26   H     H_    0.896377 0.175871 0.490524 0.219215
N9    N     N_2   0.911075 0.436873 0.741252 -0.281373
H27   H     H_    0.940728 0.504310 0.811796 0.284086
C37   C     C_3   0.931335 0.315917 0.783868 -0.603341
H28   H     H_    0.030602 0.301643 0.783891 0.320980
H29   H     H_    0.887283 0.243478 0.716015 0.229808
H30   H     H_    0.894991 0.307220 0.887035 0.234834
Cl6   Cl    Cl    0.104042 0.696424 0.714797 -0.559801
Cl7   Cl    Cl    0.936918 0.777595 0.466933 -0.644734
N10   N     N_2   0.119285 0.571232 0.257049 -0.262033
H31   H     H_    0.159030 0.496463 0.211340 0.303207
C38   C     C_3   0.064948 0.642879 0.161960 -0.649057
H32   H     H_    0.138269 0.677422 0.091255 0.260178
H33   H     H_    0.025020 0.724535 0.211613 0.277222
H34   H     H_    0.996780 0.582304 0.102935 0.254788
N11   N     N_2   0.457773 0.097135 0.257051 -0.248357
H35   H     H_    0.395613 0.048537 0.194448 0.280260
C39   C     C_3   0.577730 0.124993 0.193512 -0.741549
H36   H     H_    0.565600 0.139752 0.086698 0.228666
H37   H     H_    0.637604 0.048874 0.207143 0.239226
H38   H     H_    0.627219 0.209999 0.237809 0.296224

loop_
_geom_bond_atom_site_label_1
_geom_bond_atom_site_label_2
_ccdc_geom_bond_type
C34   H17   S    
C16   C21   A    
C6    H2    S    
C19   C20   A    
C1    C11   S    
C35   H22   S    
C7    C8    A    
C25   C28   S    
C26   C27   S    
N7    C35   S    
C33   H14   S    
C28   C29   S    
C35   H21   S    
C5    C6    A    
N9    C37   S    
C34   H18   S    
C21   N1    A    
N5    C33   S    
C23   O6    A    
C38   H34   S    
C39   H38   S    
C33   H13   S    
C18   C19   A    
C12   O3    A    
N3    H3    S    
C31   H6    S    
C16   C17   A    
C38   H33   S    
C4    C12   S    
O1    Zn1   S    
C9    C10   A    
C8    N4    S    
C20   N2    A    
C27   Cl1   S    
C15   C23   S    
C34   H16   S    
C13   C14   A    
O7    Zn1   S    
C39   H36   S    
O8    Zn2   S    
N4    C32   S    
N3    C31   S    
C18   Cl4   S    
C14   N5    S    
C32   H9    S    
N7    H19   S    
C7    N3    S    
C19   Cl5   S    
C16   Cl2   S    
C35   H20   S    
C30   Cl6   S    
C25   O7    A    
N9    H27   S    
C8    C9    A    
O5    Zn1   S    
N5    H11   S    
C24   N2    A    
C33   H12   S    
N6    C34   S    
O3    Zn1   S    
N10   C38   S    
O4    Zn2   S    
C29   C30   S    
C37   H30   S    
C38   H32   S    
N11   C39   S    
C17   C18   A    
C20   C21   A    
C39   H37   S    
C29   N9    S    
N8    C36   S    
C31   H4    S    
C37   H29   S    
C17   Cl3   S    
C36   H25   S    
C22   C24   A    
O2    Zn2   S    
C3    C4    S    
N4    H7    S    
C1    O1    A    
C22   N1    A    
C32   H8    S    
N1    Zn2   S    
C2    Cl7   S    
N2    Zn1   S    
N8    H23   S    
C25   O8    A    
C4    C26   S    
C6    C7    A    
C36   H26   S    
C2    C30   S    
N6    H15   S    
C13   N11   S    
C3    C27   S    
C2    C3    S    
C9    C15   A    
C5    C10   A    
C11   C13   A    
C24   N7    S    
C23   O5    A    
C31   H5    S    
N11   H35   S    
C3    N10   S    
C12   O4    A    
N10   H31   S    
C26   N8    S    
C10   C11   A    
C22   N6    S    
O6    Zn2   S    
C37   H28   S    
C26   C29   S    
C36   H24   S    
C27   C28   S    
C14   C15   A    
C2    C28   S    
C4    C30   S    
C1    O2    A    
C5    H1    S    
C32   H10   S    
