data_mof_unit_38726.cif
_audit_creation_date              2012-12-10T17:57:28-0500
_audit_creation_method            fapswitch 2.2
_symmetry_space_group_name_H-M    P1
_symmetry_Int_Tables_number       1
_space_group_crystal_system       triclinic
_cell_length_a                    9.626056
_cell_length_b                    10.814174
_cell_length_c                    13.571586
_cell_angle_alpha                 91.983512
_cell_angle_beta                  72.858167
_cell_angle_gamma                 89.863569
_cell_volume                      1349.08875775

loop_
_atom_site_label
_atom_site_type_symbol
_atom_type_description
_atom_site_fract_x
_atom_site_fract_y
_atom_site_fract_z
_atom_type_partial_charge
C1    C     C_R   0.499660 0.737416 0.499608 0.854489
C2    C     C_R   0.429361 0.507012 0.983911 -0.007543
C3    C     C_R   0.475413 0.494173 0.874616 -0.235646
C4    C     C_R   0.528780 0.468703 0.037711 -0.060133
C5    C     C_R   0.638345 0.380023 0.988263 -0.210284
C6    C     C_R   0.680377 0.368093 0.880147 0.373101
C7    C     C_R   0.620428 0.452939 0.828193 0.440046
C8    C     C_R   0.532668 0.523332 0.132498 0.398085
C9    C     C_R   0.715665 0.371022 0.142589 0.332486
C10   C     C_R   0.379337 0.523564 0.815813 -0.253359
C11   C     C_R   0.557413 0.936751 0.569374 0.298324
C12   C     C_R   0.422586 0.505593 0.700461 0.882600
C13   C     C_R   0.569336 0.066213 0.564439 0.354597
C14   C     C_R   0.499382 0.129041 0.503196 -0.228923
C15   C     C_R   0.429031 0.064236 0.441738 -0.211114
C16   C     C_R   0.432264 0.936361 0.435926 0.352629
C17   C     C_R   0.497934 0.871724 0.500098 -0.223896
C18   C     C_R   0.907304 0.598321 0.541745 0.496260
C19   C     C_R   0.054169 0.596410 0.545207 0.273598
C20   C     C_R   0.094523 0.404408 0.454111 0.514791
C21   C     C_R   0.946934 0.404270 0.453919 0.259599
C22   C     C_R   0.499674 0.262747 0.501497 0.877470
C23   C     C_R   0.577796 0.494511 0.300600 0.821440
C24   C     C_R   0.720438 0.321859 0.044123 0.459811
C25   C     C_R   0.618576 0.469272 0.188182 -0.342431
C26   C     C_R   0.238903 0.569850 0.868877 0.353742
C27   C     C_R   0.197035 0.591902 0.976140 0.287082
C28   C     C_R   0.287487 0.553607 0.034796 0.354036
Cu1   Cu    Cu3+1 0.359340 0.499980 0.500000 1.004219
Cu2   Cu    Cu3+1 0.640660 0.500020 0.500000 1.039460
H1    H     H_    0.377442 0.113268 0.393481 0.218087
N1    N     N_R   0.147940 0.499970 0.499970 -0.288760
N2    N     N_R   0.852060 0.500060 0.499990 -0.265967
O1    O     O_R   0.381250 0.680340 0.500010 -0.576670
O2    O     O_R   0.618820 0.680370 0.500010 -0.494208
O3    O     O_R   0.323240 0.499950 0.650980 -0.593378
O4    O     O_R   0.560810 0.499980 0.650980 -0.494053
O5    O     O_R   0.381180 0.319630 0.499990 -0.547908
O6    O     O_R   0.618750 0.319660 0.499990 -0.547011
O7    O     O_R   0.439190 0.500020 0.349020 -0.557897
O8    O     O_R   0.676760 0.500050 0.349020 -0.603175
O9    O     O_3   0.804658 0.320963 0.194356 -0.569914
C29   C     C_3   0.933254 0.391471 0.172949 -0.305494
H2    H     H_    0.019593 0.335178 0.188826 0.183422
H3    H     H_    0.916920 0.476669 0.222979 0.200802
H4    H     H_    0.975030 0.417760 0.091111 0.162230
O10   O     O_3   0.642860 0.132499 0.622258 -0.594861
C30   C     C_3   0.793655 0.107010 0.581649 -0.151368
H5    H     H_    0.854186 0.186255 0.601580 0.186497
H6    H     H_    0.830563 0.094679 0.495883 0.193013
H7    H     H_    0.824442 0.023936 0.616619 0.158619
O11   O     O_3   0.370248 0.879894 0.366681 -0.683541
H8    H     H_    0.408244 0.794571 0.350628 0.332331
O12   O     O_3   0.816789 0.697475 0.583287 -0.630689
H9    H     H_    0.874313 0.769511 0.594446 0.346963
O13   O     O_3   0.097587 0.692462 0.597674 -0.719554
H10   H     H_    0.165651 0.658134 0.631464 0.402425
O14   O     O_3   0.182998 0.303124 0.413259 -0.542374
C31   C     C_3   0.225631 0.302272 0.304451 -0.210683
H11   H     H_    0.219046 0.394376 0.272088 0.186227
H12   H     H_    0.159575 0.234400 0.275346 0.184763
H13   H     H_    0.340710 0.270792 0.274962 0.162015
O15   O     O_3   0.903767 0.305490 0.404702 -0.719735
H14   H     H_    0.832078 0.337265 0.373078 0.397082
O16   O     O_3   0.803436 0.300284 0.828155 -0.723030
H15   H     H_    0.820288 0.307610 0.752956 0.331475
O17   O     O_3   0.778410 0.204493 0.010708 -0.520802
C32   C     C_3   0.931435 0.202516 0.985139 -0.151816
H16   H     H_    0.973556 0.128554 0.924893 0.176506
H17   H     H_    0.981774 0.290043 0.952487 0.115968
H18   H     H_    0.966472 0.177666 0.052825 0.172686
O18   O     O_3   0.467116 0.637782 0.162964 -0.654097
H19   H     H_    0.517509 0.680866 0.207856 0.303259
O19   O     O_3   0.142273 0.599289 0.815375 -0.572149
C33   C     C_3   0.046233 0.499695 0.820769 -0.200953
H20   H     H_    0.960244 0.502577 0.896279 0.185883
H21   H     H_    0.103193 0.407991 0.806345 0.141475
H22   H     H_    0.993358 0.508483 0.759188 0.206805
O20   O     O_3   0.235257 0.551852 0.141090 -0.713889
H23   H     H_    0.139938 0.594949 0.166177 0.348227
O21   O     O_3   0.059990 0.640721 0.024625 -0.606881
C34   C     C_3   0.069220 0.770790 0.026497 -0.273763
H24   H     H_    0.102587 0.806458 0.947078 0.193960
H25   H     H_    0.145096 0.803495 0.069633 0.170797
H26   H     H_    0.960014 0.810252 0.067042 0.190895
O22   O     O_3   0.719452 0.526589 0.760578 -0.574634
C35   C     C_3   0.727288 0.643063 0.809828 -0.207930
H27   H     H_    0.730318 0.634922 0.890826 0.133423
H28   H     H_    0.635004 0.703809 0.807697 0.204257
H29   H     H_    0.829599 0.688684 0.768276 0.211478
O23   O     O_3   0.596638 0.872334 0.643466 -0.703644
H30   H     H_    0.605069 0.930839 0.699135 0.344729

loop_
_geom_bond_atom_site_label_1
_geom_bond_atom_site_label_2
_ccdc_geom_bond_type
C19   O13   S    
C35   H27   S    
C4    C8    A    
O21   C34   S    
C9    C25   A    
Cu1   O3    S    
C26   C27   A    
Cu2   O2    S    
Cu1   N1    S    
C3    C7    A    
C5    C6    A    
C7    O22   S    
C21   N2    A    
C23   O7    A    
C22   O5    A    
O13   H10   S    
C18   C19   A    
C12   O4    A    
C28   O20   S    
C24   O17   S    
C6    O16   S    
C32   H16   S    
Cu1   O5    S    
Cu2   O8    S    
C12   O3    A    
C10   C26   A    
C30   H6    S    
C31   H11   S    
C13   C14   A    
C8    C25   A    
C19   N1    A    
C33   H22   S    
C1    O1    A    
C30   H7    S    
C31   H12   S    
C8    O18   S    
O19   C33   S    
O17   C32   S    
C27   O21   S    
O23   H30   S    
C13   O10   S    
O22   C35   S    
C16   C17   A    
O14   C31   S    
Cu1   O1    S    
O20   H23   S    
Cu2   O4    S    
C2    C4    A    
C33   H20   S    
Cu1   Cu2   S    
C29   H3    S    
C18   N2    A    
O10   C30   S    
C9    O9    S    
C33   H21   S    
C10   C12   S    
C30   H5    S    
O16   H15   S    
C34   H25   S    
C35   H28   S    
C29   H2    S    
O9    C29   S    
C20   O14   S    
O11   H8    S    
C1    O2    A    
C20   N1    A    
O12   H9    S    
C11   C17   A    
C31   H13   S    
Cu2   N2    S    
C16   O11   S    
O18   H19   S    
C9    C24   A    
C15   H1    S    
C6    C7    A    
C34   H26   S    
C1    C17   S    
C23   O8    A    
C14   C22   S    
C2    C3    A    
C3    C10   A    
C11   C13   A    
C5    C24   A    
C32   H18   S    
C22   O6    A    
Cu1   O7    S    
C26   O19   S    
Cu2   O6    S    
C23   C25   S    
C29   H4    S    
C21   O15   S    
C18   O12   S    
O15   H14   S    
C11   O23   S    
C4    C5    A    
C20   C21   A    
C32   H17   S    
C34   H24   S    
C35   H29   S    
C27   C28   A    
C14   C15   A    
C2    C28   A    
C15   C16   A    
