data_mof_unit_66754.cif
_audit_creation_date              2013-03-05T15:40:47-0500
_audit_creation_method            fapswitch 2.2
_symmetry_space_group_name_H-M    P1
_symmetry_Int_Tables_number       1
_space_group_crystal_system       triclinic
_cell_length_a                    8.302068
_cell_length_b                    12.790961
_cell_length_c                    15.052574
_cell_angle_alpha                 96.199765
_cell_angle_beta                  99.313473
_cell_angle_gamma                 97.499525
_cell_volume                      1550.21144194

loop_
_atom_site_label
_atom_site_type_symbol
_atom_site_description
_atom_site_fract_x
_atom_site_fract_y
_atom_site_fract_z
_atom_type_partial_charge
P1    P     P_3+3 0.998660 0.747790 0.570900 0.484174
O1    O     O_2   0.168170 0.764170 0.543850 -0.357915
O2    O     O_3   0.898670 0.629780 0.545890 -0.369099
O3    O     O_3   0.365980 0.695510 0.380810 -0.430172
O4    O     O_2   0.281581 0.882306 0.433608 -0.386687
O5    O     O_3   0.066902 0.783132 0.688675 -0.623919
O6    O     O_3   0.361039 0.863208 0.273007 -0.503057
H1    H     H_    0.234617 0.711927 0.223442 0.176519
C1    C     C_3   0.302565 0.793881 0.114843 -0.739389
H2    H     H_    0.182826 0.824080 0.101973 0.297436
H3    H     H_    0.400320 0.855491 0.102349 0.270341
P2    P     P_3+3 0.306970 0.411860 0.294270 0.495569
P3    P     P_3+3 0.882472 0.626497 0.216781 0.463543
O7    O     O_2   0.136040 0.444100 0.280280 -0.336776
O8    O     O_3   0.934510 0.640480 0.335500 -0.394479
O9    O     O_2   0.988819 0.549536 0.176668 -0.355813
O10   O     O_3   0.263126 0.274325 0.266440 -0.512667
O11   O     O_3   0.942115 0.745997 0.175979 -0.513649
C2    C     C_3   0.913982 0.834511 0.232552 0.202061
H4    H     H_    0.028511 0.893092 0.246520 0.140284
H5    H     H_    0.886585 0.817599 0.299916 0.049168
C3    C     C_3   0.774326 0.885650 0.184010 -0.089080
H6    H     H_    0.777113 0.967674 0.217878 0.117772
C4    C     C_3   0.721497 0.310376 0.271328 0.293261
H7    H     H_    0.613117 0.335223 0.297195 0.058131
H8    H     H_    0.825051 0.377706 0.286309 0.106168
C5    C     C_3   0.674915 0.279623 0.168560 -0.132506
H9    H     H_    0.586376 0.204410 0.152773 0.179954
H10   H     H_    0.612841 0.342204 0.138412 0.061337
Ba1   Ba    Ba6+2 0.153570 0.551840 0.456200 1.580349
C6    C     C_3   0.961908 0.730110 0.738607 0.810864
H11   H     H_    0.837084 0.706602 0.699084 0.016380
C7    C     C_3   0.946245 0.802767 0.823452 -0.890612
H12   H     H_    0.068229 0.848201 0.856882 0.272141
H13   H     H_    0.893455 0.755452 0.872496 0.275414
H14   H     H_    0.858967 0.857920 0.804426 0.219263
C8    C     C_3   0.233103 0.226982 0.342824 0.310304
H15   H     H_    0.130388 0.258610 0.370115 0.045037
H16   H     H_    0.345401 0.241732 0.396186 0.111726
C9    C     C_3   0.185983 0.107229 0.314426 -0.111998
H17   H     H_    0.051904 0.089333 0.285658 0.122253
H18   H     H_    0.209046 0.064464 0.374470 0.088016
P4    P     P_3+3 0.811620 0.252200 0.429030 0.480187
O12   O     O_2   0.642110 0.235770 0.456130 -0.360748
O13   O     O_3   0.911620 0.370210 0.454030 -0.403343
O14   O     O_3   0.444310 0.304480 0.619110 -0.387597
O15   O     O_3   0.765839 0.221613 0.310665 -0.537506
P5    P     P_3+3 0.923631 0.360327 0.781760 0.548157
O16   O     O_3   0.400800 0.556680 0.607590 -0.393191
O17   O     O_3   0.875770 0.359510 0.664420 -0.349143
O18   O     O_2   0.812301 0.431328 0.825504 -0.340295
O19   O     O_3   0.859393 0.232588 0.805219 -0.507605
Ba2   Ba    Ba6+2 0.656590 0.448150 0.543720 1.602559
P6    P     P_3+3 0.409396 0.833659 0.384407 0.444724
C10   C     C_3   0.339199 0.768939 0.212114 0.393122
H19   H     H_    0.451672 0.730540 0.220632 0.027793
H20   H     H_    0.296344 0.720645 0.066712 0.223887
O20   O     O_3   0.409490 0.443300 0.392340 -0.433653
C11   C     C_3   0.517514 0.779022 0.684025 0.424906
H21   H     H_    0.631713 0.782741 0.655140 -0.011459
H22   H     H_    0.413730 0.743329 0.630042 0.159901
C12   C     C_3   0.491536 0.891731 0.713448 -0.878727
H23   H     H_    0.588823 0.929346 0.771419 0.256982
H24   H     H_    0.496625 0.938272 0.655627 0.244836
H25   H     H_    0.369635 0.891620 0.734676 0.269360
P7    P     P_3+3 0.496312 0.585231 0.722322 0.496585
O21   O     O_2   0.674250 0.555830 0.719690 -0.371594
O22   O     O_3   0.528444 0.722461 0.759245 -0.540994
H26   H     H_    0.656770 0.838491 0.189777 0.089779
C13   C     C_3   0.897298 0.158895 0.738155 0.452569
H27   H     H_    0.788852 0.136347 0.682469 0.151252
H28   H     H_    0.006033 0.188701 0.708532 0.011148
C14   C     C_3   0.936311 0.060873 0.779959 -1.004061
H29   H     H_    0.942249 0.996543 0.725392 0.224122
H30   H     H_    0.056919 0.078580 0.826813 0.268872
H31   H     H_    0.839615 0.035296 0.819220 0.288944
P8    P     P_3+3 0.399701 0.166183 0.614243 0.425808
C15   C     C_3   0.416732 0.191368 0.787986 0.364827
H32   H     H_    0.282898 0.195185 0.768689 0.010868
O23   O     O_2   0.508225 0.116942 0.552103 -0.392061
O24   O     O_3   0.474839 0.130403 0.720182 -0.547557
H33   H     H_    0.487515 0.273208 0.800865 0.126681
C16   C     C_3   0.442953 0.138711 0.874572 -0.345972
H34   H     H_    0.576123 0.132866 0.894447 0.257143
H35   H     H_    0.372445 0.056837 0.861238 0.213110
C17   C     C_R   0.081512 0.183535 0.531413 -0.536315
C18   C     C_R   0.720508 0.822305 0.483848 -0.524747
C19   C     C_R   0.691843 0.995034 0.436874 -0.190845
C20   C     C_R   0.624023 0.889385 0.440234 0.251525
C21   C     C_R   0.887281 0.854226 0.520158 0.233991
C22   C     C_R   0.954859 0.964825 0.522733 -0.037309
C23   C     C_R   0.854669 0.036854 0.480796 -0.083377
C24   C     C_R   0.920591 0.148305 0.485495 0.253722
C25   C     C_R   0.181158 0.113794 0.568328 0.221148
C26   C     C_R   0.117967 0.006170 0.566012 -0.208529
H36   H     H_    0.614782 0.044347 0.401869 0.223697
H37   H     H_    0.197608 0.955932 0.598344 0.183142
H38   H     H_    0.133103 0.266409 0.535172 0.172290
H39   H     H_    0.664126 0.743196 0.490210 0.152307
C27   C     C_R   0.249520 0.436697 0.765994 -0.369728
C28   C     C_R   0.145221 0.406695 0.826131 0.269289
C29   C     C_R   0.204432 0.425537 0.919817 -0.231191
C30   C     C_R   0.364907 0.481685 0.954908 0.091552
C31   C     C_R   0.454715 0.526578 0.892158 -0.205189
C32   C     C_R   0.397007 0.505157 0.798853 0.317963
C33   C     C_R   0.599935 0.548393 0.087089 -0.235762
C34   C     C_R   0.663706 0.571132 0.179409 0.228214
C35   C     C_R   0.410977 0.482408 0.214052 0.283750
C36   C     C_R   0.344469 0.462226 0.120864 -0.302951
C37   C     C_R   0.435039 0.499379 0.055340 0.035126
C38   C     C_R   0.565285 0.545604 0.243612 -0.216233
H40   H     H_    0.684433 0.567346 0.041932 0.178030
H41   H     H_    0.120850 0.398811 0.963260 0.177496
H42   H     H_    0.224381 0.414576 0.101568 0.202537
H43   H     H_    0.565963 0.583131 0.913586 0.157407
H44   H     H_    0.205973 0.419209 0.693453 0.170127
N1    N     N_R   0.820697 0.266487 0.128248 0.279398
O25   O     O_R   0.861331 0.326776 0.068667 -0.375066
O26   O     O_R   0.903208 0.189300 0.146209 -0.306383
N2    N     N_R   0.028945 0.636020 0.762730 0.234151
O27   O     O_R   0.109986 0.633638 0.843932 -0.439945
O28   O     O_R   0.037237 0.563688 0.697105 -0.381262
N3    N     N_R   0.280911 0.070635 0.246597 0.305488
O29   O     O_R   0.207757 0.038187 0.163307 -0.313668
O30   O     O_R   0.441146 0.084046 0.265728 -0.389605
C39   C     C_3   0.386023 0.200837 0.952888 -0.909854
H45   H     H_    0.395887 0.155964 0.012122 0.298874
H46   H     H_    0.465100 0.279462 0.972566 0.266145
H47   H     H_    0.255237 0.212000 0.933551 0.265697
C40   C     C_3   0.631883 0.585559 0.341891 -0.655474
H48   H     H_    0.679418 0.671014 0.346031 0.182238
H49   H     H_    0.550872 0.591875 0.389778 0.263482
H50   H     H_    0.719140 0.533937 0.370391 0.243850
N4    N     N_R   0.783753 0.887992 0.088147 0.299554
O31   O     O_R   0.900791 0.950886 0.064397 -0.293856
O32   O     O_R   0.672600 0.828769 0.025651 -0.387160

loop_
_geom_bond_atom_site_label_1
_geom_bond_atom_site_label_2
_geom_bond_distance
_ccdc_geom_bond_type
P7    O22   1.755063 S    
C10   H19   1.106407 S    
C19   H36   1.073685 S    
C28   C29   1.399899 A    
C5    H10   1.105769 S    
C14   H29   1.109900 S    
Ba1   O13   2.859627 S    
C2    H4    1.106807 S    
C27   H44   1.082313 S    
C4    C5    1.527248 S    
O6    C10   1.406193 S    
P3    C34   1.834148 S    
N3    O29   1.299347 A    
C33   H40   1.076317 S    
C27   C32   1.393282 A    
P1    C21   1.901711 S    
P3    O11   1.749977 S    
C3    N4    1.460997 S    
C30   C37   1.510778 S    
C23   C24   1.448718 A    
C2    H5    1.111726 S    
C8    H15   1.107766 S    
C4    H8    1.110715 S    
O11   C2    1.409496 S    
C8    C9    1.526464 S    
N1    O26   1.300511 A    
N3    O30   1.299138 A    
C33   C34   1.389386 A    
P8    C25   1.842639 S    
C7    H14   1.102104 S    
C35   C36   1.404647 A    
P1    O1    1.522190 D    
P1    Ba1   3.397400 S    
C12   H24   1.109479 S    
C17   C25   1.392770 A    
C7    H13   1.111448 S    
C15   C16   1.528335 S    
P4    Ba2   3.397879 S    
P5    O18   1.549042 D    
C19   C23   1.412864 A    
P2    O10   1.739851 S    
C6    C7    1.529917 S    
C13   H27   1.110011 S    
C1    C10   1.523229 S    
C1    H2    1.108604 S    
C3    H26   1.099522 S    
P2    Ba1   3.380278 S    
P5    O17   1.745130 S    
P7    O21   1.576708 D    
O13   Ba2   2.912882 S    
C11   H21   1.102861 S    
C14   H30   1.108617 S    
C29   C30   1.417846 A    
O7    Ba1   2.822622 S    
Ba2   O21   2.822816 S    
O12   Ba2   2.867445 S    
H1    C10   1.106444 S    
C31   C32   1.393559 A    
N2    O28   1.295281 A    
C18   H39   1.078890 S    
C5    N1    1.459448 S    
Ba1   Ba2   4.607215 S    
C11   H22   1.096213 S    
O17   Ba2   2.794804 S    
O16   P7    1.757735 S    
P1    O5    1.761586 S    
O4    P6    1.545596 D    
C2    C3    1.527437 S    
C4    H7    1.106131 S    
P6    C20   1.855709 S    
C22   C23   1.447373 A    
P2    C35   1.840467 S    
C15   H32   1.110875 S    
N4    O32   1.301142 A    
C39   H47   1.109602 S    
P1    O2    1.599477 S    
O2    Ba1   2.911970 S    
C40   H49   1.066280 S    
P4    O12   1.522543 D    
C12   H23   1.106825 S    
C17   C24   1.393682 A    
C11   O22   1.405149 S    
C31   H43   1.076620 S    
P4    O13   1.599498 S    
C15   H33   1.112404 S    
C38   C40   1.501194 S    
C16   H34   1.112097 S    
P8    O24   1.746908 S    
C13   C14   1.511064 S    
C7    H12   1.111216 S    
O10   C8    1.398069 S    
C1    H3    1.108830 S    
C36   H42   1.076677 S    
C9    H17   1.111325 S    
C16   H35   1.111846 S    
Ba1   O16   2.798588 S    
P2    O7    1.517552 D    
P3    O8    1.752993 S    
C14   H31   1.107927 S    
P3    O9    1.544084 D    
C40   H50   1.109164 S    
P7    C32   1.843273 S    
C5    H9    1.109865 S    
N2    O27   1.301858 A    
O8    Ba1   2.794206 S    
C33   C37   1.412459 A    
P8    O23   1.541761 D    
C9    N3    1.461552 S    
C11   C12   1.514989 S    
C39   H46   1.109287 S    
C12   H25   1.109374 S    
O3    P6    1.749881 S    
C4    O15   1.399623 S    
C34   C38   1.400839 A    
C6    H11   1.094867 S    
O14   P8    1.750411 S    
Ba2   O20   2.797816 S    
C26   H37   1.077622 S    
N4    O31   1.299846 A    
C35   C38   1.400018 A    
O1    Ba1   2.867035 S    
C18   C20   1.392729 A    
C40   H48   1.104135 S    
P2    O20   1.562397 S    
C8    H16   1.108571 S    
C29   H41   1.076679 S    
C36   C37   1.418446 A    
O2    Ba2   2.860268 S    
C15   O24   1.402914 S    
C21   C22   1.446192 A    
C39   H45   1.109190 S    
O16   Ba2   2.916009 S    
P5    C28   1.847732 S    
Ba1   O20   2.916928 S    
O14   Ba2   2.832515 S    
C9    H18   1.109455 S    
C27   C28   1.399444 A    
P4    C24   1.901525 S    
O5    C6    1.397317 S    
C1    H20   1.110741 S    
C25   C26   1.402389 A    
C17   H38   1.082137 S    
C6    N2    1.447006 S    
O19   C13   1.407595 S    
C22   C26   1.410980 A    
P5    O19   1.742661 S    
C19   C20   1.403955 A    
C18   C21   1.393460 A    
C30   C31   1.418146 A    
C3    H6    1.111520 S    
C13   H28   1.111871 S    
C16   C39   1.523359 S    
O6    P6    1.753431 S    
N1    O25   1.300863 A    
P4    O15   1.750263 S    
O3    Ba1   2.833163 S    
