data_mof_unit_50563.cif
_audit_creation_date              2012-12-11T15:57:39-0500
_audit_creation_method            fapswitch 2.2
_symmetry_space_group_name_H-M    P1
_symmetry_Int_Tables_number       1
_space_group_crystal_system       triclinic
_cell_length_a                    10.75653
_cell_length_b                    10.67776
_cell_length_c                    16.894768
_cell_angle_alpha                 99.705623
_cell_angle_beta                  99.799802
_cell_angle_gamma                 61.027222
_cell_volume                      1664.46843597

loop_
_atom_site_label
_atom_site_type_symbol
_atom_type_description
_atom_site_fract_x
_atom_site_fract_y
_atom_site_fract_z
_atom_type_partial_charge
C1    C     C_R   0.352675 0.779088 0.403613 0.558151
C2    C     C_2   0.914873 0.299161 0.178478 -0.103121
C3    C     C_2   0.937512 0.185008 0.213591 -0.172482
C4    C     C_2   0.885618 0.205616 0.291810 -0.166258
C5    C     C_2   0.318975 0.872795 0.342081 -0.131764
C6    C     C_2   0.307195 0.893771 0.174328 -0.078280
C7    C     C_2   0.396543 0.924980 0.230010 0.239305
C8    C     C_2   0.423862 0.874380 0.310159 -0.142115
C9    C     C_2   0.407127 0.390510 0.683144 -0.109480
C10   C     C_2   0.337180 0.352627 0.833015 -0.120388
C11   C     C_2   0.471266 0.295369 0.813910 -0.125109
C12   C     C_R   0.407260 0.375804 0.356248 0.566986
C13   C     C_2   0.501244 0.289961 0.731894 0.064422
C14   C     C_1   0.849788 0.327373 0.704521 -0.009452
C15   C     C_1   0.897593 0.291882 0.771219 -0.012716
C16   C     C_1   0.359737 0.761934 0.713759 -0.030174
C17   C     C_1   0.326426 0.809312 0.780778 -0.024986
C18   C     C_R   0.957021 0.283363 0.099113 0.555189
C19   C     C_R   0.322109 0.303834 0.118519 0.557861
C20   C     C_R   0.263620 0.946722 0.095699 0.562203
C21   C     C_R   0.946147 0.271922 0.853952 0.567443
C22   C     C_R   0.308407 0.296103 0.895631 0.547439
C23   C     C_R   0.781481 0.374052 0.407292 0.548687
C24   C     C_R   0.280663 0.880161 0.857485 0.551348
C25   C     C_R   0.382060 0.713135 0.631267 0.529715
C26   C     C_R   0.414993 0.381785 0.597326 0.574652
C27   C     C_R   0.778960 0.377985 0.628600 0.545382
C28   C     C_1   0.376410 0.364644 0.271496 -0.029271
C29   C     C_1   0.350408 0.346232 0.200356 -0.015633
C30   C     C_2   0.878332 0.315975 0.345324 -0.103377
Cr1   Cr    Cr6+3 0.608020 0.610770 0.522990 1.045473
Cr2   Cr    Cr6+3 0.289390 0.599570 0.488050 1.033216
Cr3   Cr    Cr6+3 0.602610 0.289690 0.489020 1.033030
Cr4   Cr    Cr6+3 0.053780 0.052210 0.965970 1.040549
Cr5   Cr    Cr6+3 0.060060 0.372530 0.992430 1.029078
Cr6   Cr    Cr6+3 0.372600 0.061970 0.991430 1.057780
H1    H     H_    0.982579 0.077746 0.181741 0.143336
H2    H     H_    0.245139 0.422513 0.795213 0.109340
H3    H     H_    0.319732 0.487788 0.707762 0.075740
H4    H     H_    0.839258 0.139336 0.301111 0.144158
H5    H     H_    0.862618 0.407754 0.208158 0.112795
H6    H     H_    0.931287 0.377049 0.337523 0.118856
H7    H     H_    0.533127 0.823437 0.338158 0.135431
H8    H     H_    0.262174 0.828526 0.187359 0.058165
H9    H     H_    0.208871 0.925939 0.315288 0.102584
H10   H     H_    0.559395 0.224389 0.853624 0.179750
O1    O     O_R   0.749250 0.499990 0.439200 -0.510356
O2    O     O_R   0.299400 0.468710 0.556310 -0.496305
O3    O     O_R   0.489240 0.256450 0.560730 -0.451691
O4    O     O_R   0.723350 0.306730 0.584410 -0.497522
O5    O     O_3   0.500010 0.500010 0.500020 -0.327510
O6    O     O_R   0.170650 0.915100 0.051290 -0.533485
O7    O     O_R   0.941960 0.184500 0.049060 -0.492023
O8    O     O_R   0.922640 0.402670 0.071640 -0.498326
O9    O     O_R   0.196880 0.368740 0.083740 -0.518064
O10   O     O_R   0.411120 0.181190 0.091480 -0.475657
O11   O     O_R   0.364220 0.944920 0.062310 -0.441729
O12   O     O_R   0.477870 0.725740 0.440280 -0.487515
O13   O     O_R   0.158740 0.906940 0.874970 -0.498747
O14   O     O_R   0.930920 0.176940 0.885610 -0.467743
O15   O     O_R   0.910730 0.394510 0.895320 -0.495340
O16   O     O_R   0.185840 0.361180 0.920280 -0.510765
O17   O     O_R   0.399210 0.173040 0.915160 -0.503670
O18   O     O_R   0.353170 0.937370 0.898860 -0.488342
O19   O     O_3   0.162150 0.162240 0.983280 -0.313333
O20   O     O_R   0.260770 0.742210 0.412610 -0.515447
O21   O     O_R   0.297990 0.466320 0.394220 -0.483816
O22   O     O_R   0.487720 0.253870 0.385870 -0.502317
O23   O     O_R   0.721940 0.304340 0.422320 -0.516206
O24   O     O_R   0.750770 0.502570 0.614050 -0.501525
O25   O     O_R   0.479280 0.728140 0.602370 -0.466097
O26   O     O_R   0.262290 0.744790 0.587460 -0.498198
I1    I     I_    0.687160 0.097412 0.697652 -0.298712
O27   O     O_3   0.453129 0.008722 0.212162 -0.527768
C31   C     C_3   0.595726 0.961260 0.246477 -0.086998
H11   H     H_    0.662379 0.843487 0.231560 0.103818
H12   H     H_    0.600946 0.990196 0.312792 0.143675
H13   H     H_    0.641738 0.016879 0.220786 0.144253

loop_
_geom_bond_atom_site_label_1
_geom_bond_atom_site_label_2
_ccdc_geom_bond_type
C19   O10   A    
C2    C18   S    
C23   O23   A    
C8    H7    S    
C7    C8    S    
Cr2   O26   S    
C10   C22   S    
C12   O22   A    
C12   C28   S    
C1    C5    S    
Cr1   O12   S    
C28   C29   T    
Cr5   O19   S    
C2    H5    S    
Cr3   O3    S    
C9    H3    S    
C9    C13   D    
C18   O7    A    
C22   O17   A    
Cr1   O24   S    
C4    H4    S    
C16   C17   T    
C25   O25   A    
C14   C27   S    
Cr6   O17   S    
C21   O15   A    
C27   O4    A    
Cr3   O23   S    
Cr1   O25   S    
C24   O18   A    
Cr1   O1    S    
Cr5   O8    S    
Cr4   O14   S    
Cr2   O2    S    
Cr4   O19   S    
C9    C26   S    
C7    O27   S    
C12   O21   A    
C17   C24   S    
C23   O1    A    
O27   C31   S    
Cr5   O9    S    
C23   C30   S    
C21   O14   A    
Cr6   O11   S    
C26   O3    A    
Cr6   O19   S    
Cr3   O4    S    
C5    H9    S    
C31   H11   S    
Cr2   O5    S    
Cr6   O10   S    
C22   O16   A    
C1    O20   A    
Cr5   O15   S    
C25   O26   A    
C31   H12   S    
C27   O24   A    
Cr2   O21   S    
C13   I1    S    
Cr4   O13   S    
C3    C4    S    
C19   C29   S    
Cr2   O20   S    
C19   O9    A    
C16   C25   S    
Cr1   O5    S    
C5    C8    D    
C6    C7    D    
C26   O2    A    
Cr3   O5    S    
C6    C20   S    
Cr4   O6    S    
C10   H2    S    
C2    C3    D    
C20   O6    A    
C1    O12   A    
C11   C13   S    
C24   O13   A    
Cr5   O16   S    
C31   H13   S    
C10   C11   D    
C18   O8    A    
C15   C21   S    
C3    H1    S    
Cr4   O7    S    
C14   C15   T    
C30   H6    S    
C11   H10   S    
C6    H8    S    
C20   O11   A    
Cr6   O18   S    
C4    C30   D    
Cr3   O22   S    
