data_mof_unit_27679.cif
_audit_creation_date              2012-12-11T14:15:31-0500
_audit_creation_method            fapswitch 2.2
_symmetry_space_group_name_H-M    P1
_symmetry_Int_Tables_number       1
_space_group_crystal_system       triclinic
_cell_length_a                    11.079563
_cell_length_b                    12.731512
_cell_length_c                    23.493837
_cell_angle_alpha                 90.118914
_cell_angle_beta                  96.424907
_cell_angle_gamma                 69.149817
_cell_volume                      3075.01392335

loop_
_atom_site_label
_atom_site_type_symbol
_atom_type_description
_atom_site_fract_x
_atom_site_fract_y
_atom_site_fract_z
_atom_type_partial_charge
C1    C     C_R   0.149571 0.616804 0.428872 0.538180
C2    C     C_R   0.634599 0.570619 0.312986 0.057185
C3    C     C_R   0.691475 0.738813 0.318892 0.050692
C4    C     C_R   0.684846 0.744470 0.259092 0.014166
C5    C     C_R   0.672546 0.653870 0.226963 0.026048
C6    C     C_R   0.689507 0.652576 0.168719 0.090115
C7    C     C_R   0.682257 0.845671 0.171150 0.074871
C8    C     C_R   0.695523 0.837360 0.230906 -0.101656
C9    C     C_1   0.238296 0.172534 0.119913 -0.027759
C10   C     C_2   0.203898 0.261600 0.221589 0.097722
C11   C     C_2   0.103147 0.255916 0.247881 0.000124
C12   C     C_R   0.746304 0.605643 0.404521 0.559138
C13   C     C_1   0.095475 0.280338 0.307866 -0.066220
C14   C     C_1   0.223176 0.216654 0.165307 0.002760
C15   C     C_1   0.091197 0.301965 0.357787 -0.017963
C16   C     C_1   0.162938 0.748966 0.122629 -0.044290
C17   C     C_2   0.136014 0.683101 0.225873 0.103770
C18   C     C_2   0.227212 0.679857 0.269844 -0.116767
C19   C     C_1   0.213859 0.653982 0.328182 -0.057910
C20   C     C_1   0.148474 0.718283 0.169132 -0.007358
C21   C     C_1   0.192832 0.635202 0.375688 -0.004846
C22   C     C_1   0.638238 0.749478 0.867706 -0.022797
C23   C     C_R   0.085600 0.332254 0.416597 0.558270
C24   C     C_2   0.715606 0.691991 0.765675 0.131779
C25   C     C_2   0.623283 0.696669 0.721539 0.095696
C26   C     C_1   0.658265 0.664366 0.664674 -0.054818
C27   C     C_1   0.678533 0.722550 0.822200 0.026571
C28   C     C_1   0.693686 0.636364 0.618417 -0.022666
C29   C     C_R   0.261740 0.082695 0.838758 0.003589
C30   C     C_R   0.111135 0.203325 0.633584 0.008287
C31   C     C_R   0.012568 0.153795 0.711679 -0.143240
C32   C     C_R   0.000741 0.197634 0.655997 -0.133960
C33   C     C_R   0.233234 0.153553 0.663848 -0.128465
C34   C     C_R   0.151321 0.615814 0.590363 0.550368
C35   C     C_R   0.243798 0.119734 0.720477 0.033675
C36   C     C_R   0.133315 0.121070 0.745514 0.044601
C37   C     C_R   0.144326 0.097864 0.804353 -0.144069
C38   C     C_R   0.371585 0.086586 0.812306 -0.014817
C39   C     C_R   0.361485 0.098838 0.753357 -0.141681
C40   C     C_R   0.134408 0.759515 0.847705 0.014160
C41   C     C_R   0.199711 0.632186 0.648278 0.003799
C42   C     C_R   0.283983 0.545614 0.742967 -0.149089
C43   C     C_R   0.278339 0.538810 0.683826 -0.143314
C44   C     C_R   0.139360 0.735078 0.671733 -0.129232
C45   C     C_R   0.750142 0.601468 0.566261 0.548774
C46   C     C_R   0.138606 0.741236 0.730300 0.040723
C47   C     C_R   0.210696 0.645970 0.767092 0.052371
C48   C     C_R   0.206435 0.654398 0.826587 -0.008516
C49   C     C_R   0.056931 0.849274 0.809706 -0.140695
C50   C     C_R   0.059817 0.840497 0.751687 -0.139881
C51   C     C_R   0.265747 0.111752 0.068686 0.551427
C52   C     C_R   0.601663 0.774462 0.081046 0.552516
C53   C     C_R   0.188643 0.787749 0.069519 0.541896
C54   C     C_R   0.272295 0.058340 0.900818 0.561545
C55   C     C_R   0.576250 0.775467 0.918971 0.534016
C56   C     C_R   0.099540 0.275977 0.584005 0.555987
C57   C     C_R   0.164833 0.788526 0.906266 0.535995
C58   C     C_R   0.671201 0.754686 0.139459 0.043530
C59   C     C_R   0.682093 0.643508 0.345940 0.045290
C60   C     C_R   0.635943 0.571245 0.253166 -0.001945
Cr1   Cr    Cr6+3 0.189770 0.415650 0.511620 1.020960
Cr2   Cr    Cr6+3 0.930400 0.667320 0.496770 1.005784
Cr3   Cr    Cr6+3 0.879870 0.417010 0.491650 1.030178
Cr4   Cr    Cr6+3 0.149500 0.973980 0.985330 1.001245
Cr5   Cr    Cr6+3 0.457000 0.976510 0.994660 1.035196
Cr6   Cr    Cr6+3 0.411170 0.724270 0.995270 1.011367
H1    H     H_    0.060036 0.097720 0.823661 0.115580
H2    H     H_    0.926357 0.154471 0.729617 0.103011
H3    H     H_    0.444307 0.101299 0.733320 0.101326
H4    H     H_    0.904849 0.233599 0.632208 0.133660
H5    H     H_    0.318858 0.154704 0.645835 0.124080
H6    H     H_    0.002295 0.930929 0.824684 0.126018
H7    H     H_    0.340381 0.470584 0.769055 0.117032
H8    H     H_    0.002597 0.912667 0.723582 0.109847
H9    H     H_    0.326806 0.458001 0.666181 0.140981
H10   H     H_    0.080630 0.807763 0.644158 0.129130
H11   H     H_    0.707062 0.906610 0.254875 0.149284
H12   H     H_    0.310532 0.701783 0.262398 0.112055
O1    O     O_R   0.196340 0.303200 0.448500 -0.502896
O2    O     O_R   0.811960 0.658090 0.547150 -0.491456
O3    O     O_R   0.757930 0.506140 0.547110 -0.507803
O4    O     O_R   0.988670 0.321620 0.556040 -0.499609
O5    O     O_3   0.000020 0.499990 0.500010 -0.267393
O6    O     O_R   0.113660 0.883270 0.047820 -0.501995
O7    O     O_R   0.186930 0.068530 0.043990 -0.486943
O8    O     O_R   0.377770 0.089040 0.054220 -0.498464
O9    O     O_R   0.562800 0.872960 0.056970 -0.457293
O10   O     O_R   0.555390 0.700940 0.062700 -0.535870
O11   O     O_R   0.295020 0.731920 0.049950 -0.498250
O12   O     O_R   0.199310 0.519670 0.454880 -0.506015
O13   O     O_R   0.094290 0.884230 0.921550 -0.547260
O14   O     O_R   0.168980 0.069410 0.926940 -0.509091
O15   O     O_R   0.358400 0.089990 0.927950 -0.520136
O16   O     O_R   0.544850 0.873850 0.939920 -0.502241
O17   O     O_R   0.536020 0.701900 0.936430 -0.515659
O18   O     O_R   0.277070 0.732810 0.932890 -0.480268
O19   O     O_3   0.339220 0.891590 0.991750 -0.264930
O20   O     O_R   0.045660 0.691380 0.441680 -0.516797
O21   O     O_R   0.811930 0.659460 0.430950 -0.521186
O22   O     O_R   0.757900 0.507620 0.421760 -0.485087
O23   O     O_R   0.988630 0.322990 0.439840 -0.493793
O24   O     O_R   0.196380 0.301720 0.573850 -0.518590
O25   O     O_R   0.199350 0.518300 0.571080 -0.501391
O26   O     O_R   0.045700 0.689900 0.567030 -0.515084
N1    N     N_3   0.737691 0.546842 0.141391 -0.635420
H13   H     H_    0.810238 0.548277 0.116835 0.222715
H14   H     H_    0.664073 0.532686 0.114496 0.263219
N2    N     N_3   0.023971 0.655570 0.233951 -0.610957
H15   H     H_    0.972707 0.709480 0.263742 0.238539
H16   H     H_    0.055643 0.573226 0.251152 0.233959
N3    N     N_3   0.488749 0.733372 0.730636 -0.636687
H17   H     H_    0.437476 0.803217 0.703075 0.235580
H18   H     H_    0.454389 0.669075 0.718640 0.242147
N4    N     N_3   0.851032 0.657387 0.758222 -0.638267
H19   H     H_    0.861957 0.711433 0.727394 0.236890
H20   H     H_    0.881037 0.576076 0.742823 0.235600
C61   C     C_R   0.500265 0.079508 0.842277 0.061311
C62   C     C_R   0.612429 0.992030 0.830188 -0.099943
C63   C     C_R   0.734213 0.981353 0.858242 -0.115174
C64   C     C_R   0.746667 0.063374 0.895455 -0.111659
C65   C     C_R   0.637233 0.157009 0.903584 -0.121057
C66   C     C_R   0.514705 0.166651 0.875988 -0.050568
H21   H     H_    0.604565 0.932816 0.798452 0.117254
H22   H     H_    0.818199 0.909246 0.851039 0.126893
H23   H     H_    0.841136 0.055462 0.917155 0.131007
H24   H     H_    0.647889 0.221397 0.931502 0.093651
H25   H     H_    0.430606 0.240170 0.881760 0.136734
C67   C     C_R   0.281319 0.558161 0.867330 0.027315
C68   C     C_R   0.215559 0.514400 0.903067 -0.092834
C69   C     C_R   0.284964 0.439042 0.948696 -0.111122
C70   C     C_R   0.419975 0.408137 0.959342 -0.119296
C71   C     C_R   0.486236 0.449832 0.923305 -0.105061
C72   C     C_R   0.417537 0.523631 0.877067 -0.061688
H26   H     H_    0.110414 0.541682 0.896713 0.113342
H27   H     H_    0.233855 0.406469 0.976536 0.113956
H28   H     H_    0.473300 0.351423 0.995318 0.103542
H29   H     H_    0.590693 0.426468 0.931730 0.099294
H30   H     H_    0.469429 0.558601 0.850754 0.126742
N5    N     N_3   0.676955 0.946933 0.142577 -0.594429
H31   H     H_    0.672779 0.009637 0.171887 0.208893
H32   H     H_    0.763661 0.927734 0.124286 0.224487
C73   C     C_R   0.582013 0.496378 0.218454 0.048985
C74   C     C_R   0.638026 0.378744 0.226260 -0.078672
C75   C     C_R   0.581595 0.310067 0.195745 -0.087398
C76   C     C_R   0.472640 0.357637 0.155382 -0.086667
C77   C     C_R   0.417959 0.474243 0.146396 -0.106155
C78   C     C_R   0.471458 0.543464 0.178190 -0.091297
H33   H     H_    0.725116 0.340154 0.255929 0.117411
H34   H     H_    0.622860 0.219779 0.203111 0.119075
H35   H     H_    0.430590 0.304142 0.131109 0.130623
H36   H     H_    0.333749 0.510877 0.114976 0.121507
H37   H     H_    0.427945 0.633784 0.171146 0.118452
N6    N     N_3   0.581935 0.499098 0.341011 -0.599291
H38   H     H_    0.488552 0.511497 0.320983 0.236427
H39   H     H_    0.641226 0.415151 0.338077 0.240590
N7    N     N_3   0.708518 0.829684 0.351138 -0.650282
H40   H     H_    0.806427 0.807878 0.367234 0.265079
H41   H     H_    0.650402 0.846534 0.384614 0.245615
C79   C     C_R   0.001580 0.220698 0.215901 0.028078
C80   C     C_R   0.986235 0.120292 0.231505 -0.094735
C81   C     C_R   0.907048 0.077757 0.195251 -0.123592
C82   C     C_R   0.842058 0.135924 0.143726 -0.108315
C83   C     C_R   0.853321 0.237801 0.129050 -0.095408
C84   C     C_R   0.932583 0.280115 0.164978 -0.078754
H42   H     H_    0.040013 0.072558 0.270171 0.118264
H43   H     H_    0.898224 0.998713 0.206643 0.113073
H44   H     H_    0.782095 0.103187 0.115047 0.113880
H45   H     H_    0.802312 0.283052 0.089399 0.105380
H46   H     H_    0.945521 0.356460 0.151947 0.129342
N8    N     N_3   0.302039 0.298447 0.250614 -0.622279
H47   H     H_    0.349237 0.243257 0.285764 0.240527
H48   H     H_    0.256872 0.378577 0.265813 0.234715

loop_
_geom_bond_atom_site_label_1
_geom_bond_atom_site_label_2
_ccdc_geom_bond_type
C7    N5    S    
Cr2   O5    S    
C1    C21   S    
C1    O12   A    
C41   C43   A    
C6    C58   A    
C35   C36   A    
C9    C51   S    
C24   C27   S    
C4    C8    A    
C67   C68   A    
C51   O7    A    
C76   C77   A    
C11   C79   S    
C7    C8    A    
C23   O23   A    
C63   H22   S    
C16   C53   S    
C24   N4    S    
N1    H14   S    
C75   H34   S    
Cr3   O3    S    
C53   O6    A    
Cr6   O19   S    
Cr2   O2    S    
N7    H40   S    
C19   C21   T    
N3    H17   S    
C82   C83   A    
C50   H8    S    
Cr6   O10   S    
C5    C6    A    
C33   C35   A    
C2    C60   A    
C74   C75   A    
C29   C54   S    
C40   C49   A    
C11   C13   S    
C17   C20   S    
N2    H15   S    
C18   C19   S    
C66   H25   S    
C44   H10   S    
C62   C63   A    
Cr4   O6    S    
C54   O15   A    
C60   C73   S    
Cr2   O20   S    
C12   C59   S    
C31   C32   A    
C71   C72   A    
C12   O21   A    
C57   O18   A    
C29   C38   A    
N6    H39   S    
C7    C58   A    
C81   H43   S    
C30   C33   A    
Cr3   O23   S    
C62   H21   S    
Cr5   O15   S    
C72   H30   S    
C61   C66   A    
Cr1   O12   S    
C38   C61   S    
C84   H46   S    
C74   H33   S    
C34   C41   S    
C55   O16   A    
C51   O8    A    
C25   C26   S    
C44   C46   A    
Cr5   O9    S    
Cr6   O11   S    
Cr2   O26   S    
C31   C36   A    
C43   H9    S    
C31   H2    S    
N5    H31   S    
C28   C45   S    
Cr3   O4    S    
C47   C48   A    
Cr5   O8    S    
C24   C25   D    
C55   O17   A    
C70   H28   S    
Cr1   O5    S    
C17   N2    S    
C33   H5    S    
C64   H23   S    
C4    C5    A    
C32   H4    S    
C71   H29   S    
C30   C56   S    
C49   H6    S    
C34   O26   A    
C77   H36   S    
Cr3   O5    S    
C35   C39   A    
C9    C14   T    
C54   O14   A    
Cr3   O22   S    
C48   C67   S    
C69   C70   A    
C79   C80   A    
C52   O10   A    
C16   C20   T    
C17   C18   D    
C39   H3    S    
N3    H18   S    
C80   H42   S    
C56   O4    A    
C65   C66   A    
C52   C58   S    
C18   H12   S    
C69   H27   S    
C2    N6    S    
C22   C27   T    
C13   C15   T    
C53   O11   A    
C8    H11   S    
C41   C44   A    
C42   C43   A    
Cr4   O14   S    
C3    C4    A    
Cr4   O7    S    
C64   C65   A    
Cr6   O18   S    
C77   C78   A    
C40   C48   A    
C46   C47   A    
Cr4   O19   S    
C42   H7    S    
C40   C57   S    
C57   O13   A    
C5    C60   A    
Cr1   O25   S    
C2    C59   A    
C73   C78   A    
C52   O9    A    
C45   O3    A    
C76   H35   S    
C75   C76   A    
C1    O20   A    
N4    H20   S    
C63   C64   A    
N4    H19   S    
C22   C55   S    
C10   N8    S    
N1    H13   S    
C46   C50   A    
C26   C28   T    
C34   O25   A    
C80   C81   A    
N7    H41   S    
C78   H37   S    
C68   C69   A    
C56   O24   A    
C65   H24   S    
C81   C82   A    
C61   C62   A    
C30   C32   A    
Cr2   O21   S    
N5    H32   S    
C38   C39   A    
N8    H48   S    
Cr1   O1    S    
C37   H1    S    
C15   C23   S    
C3    N7    S    
Cr5   O16   S    
C6    N1    S    
N2    H16   S    
C83   H45   S    
C45   O2    A    
C42   C47   A    
C68   H26   S    
C12   O22   A    
C83   C84   A    
C10   C11   D    
C25   N3    S    
Cr5   O19   S    
C82   H44   S    
C36   C37   A    
C49   C50   A    
N8    H47   S    
C29   C37   A    
C73   C74   A    
C79   C84   A    
Cr4   O13   S    
C23   O1    A    
N6    H38   S    
C67   C72   A    
Cr1   O24   S    
C70   C71   A    
C10   C14   S    
Cr6   O17   S    
C3    C59   A    
