data_mof_unit_22693.cif
_audit_creation_date              2012-12-11T14:17:45-0500
_audit_creation_method            fapswitch 2.2
_symmetry_space_group_name_H-M    P1
_symmetry_Int_Tables_number       1
_space_group_crystal_system       triclinic
_cell_length_a                    6.950174
_cell_length_b                    13.66252
_cell_length_c                    20.449918
_cell_angle_alpha                 102.356406
_cell_angle_beta                  90.092135
_cell_angle_gamma                 90.657717
_cell_volume                      1896.73677368

loop_
_atom_site_label
_atom_site_type_symbol
_atom_type_description
_atom_site_fract_x
_atom_site_fract_y
_atom_site_fract_z
_atom_type_partial_charge
O1    O     O_R   0.506860 0.599390 0.449240 -0.539423
O2    O     O_R   0.180220 0.594600 0.586780 -0.542850
O3    O     O_R   0.004500 0.400610 0.550760 -0.540354
C1    C     C_R   0.349184 0.614575 0.613923 0.743558
O4    O     O_R   0.177490 0.611290 0.451970 -0.541245
O5    O     O_R   0.001750 0.417420 0.414990 -0.539639
C2    C     C_R   0.346683 0.637325 0.434791 0.695941
O6    O     O_R   0.509610 0.582580 0.585010 -0.542877
O7    O     O_3   0.337420 0.436370 0.488020 -0.373540
V1    V     V_3+5 0.064680 0.511800 0.502220 1.420274
O8    O     O_R   0.671710 0.405400 0.413220 -0.547333
C3    C     C_R   0.839631 0.384056 0.386543 0.740005
O9    O     O_R   0.674440 0.388710 0.548030 -0.542520
C4    C     C_R   0.842715 0.362144 0.564361 0.696647
V2    V     V_3+5 0.564010 0.488200 0.497780 1.415215
O10   O     O_3   0.841140 0.563630 0.511980 -0.372440
C5    C     C_R   0.848894 0.110090 0.607531 -0.151872
H1    H     H_    0.841450 0.162835 0.516138 0.103955
H2    H     H_    0.852229 0.982861 0.686201 0.125022
H3    H     H_    0.846540 0.032200 0.581342 0.113866
C6    C     C_R   0.849537 0.284449 0.602923 -0.028126
C7    C     C_R   0.865395 0.310337 0.925139 -0.166123
C8    C     C_R   0.863065 0.385982 0.889765 -0.118398
C9    C     C_R   0.859833 0.363000 0.820288 -0.148005
C10   C     C_R   0.858492 0.262316 0.783651 0.075062
C11   C     C_R   0.859624 0.183334 0.819960 0.020032
C12   C     C_R   0.855806 0.238185 0.712036 0.071986
C13   C     C_R   0.853309 0.136279 0.677775 0.129950
C14   C     C_R   0.854342 0.060523 0.713317 -0.234793
C15   C     C_R   0.857289 0.081964 0.782874 -0.083123
C16   C     C_R   0.854877 0.311726 0.672743 -0.211790
C17   C     C_R   0.846253 0.183938 0.570303 -0.176681
C18   C     C_R   0.863624 0.209888 0.891643 -0.085671
H4    H     H_    0.856833 0.390865 0.694261 0.091768
H5    H     H_    0.868886 0.330335 0.979380 0.099286
H6    H     H_    0.858393 0.426550 0.797051 0.104592
H7    H     H_    0.864266 0.463509 0.916492 0.117622
C19   C     C_2   0.005038 0.289219 0.285049 -0.133716
C20   C     C_2   0.841949 0.315581 0.319775 -0.310679
H8    H     H_    0.141973 0.318349 0.307016 0.133859
H9    H     H_    0.703515 0.286925 0.299501 0.126084
C21   C     C_2   0.013737 0.221028 0.217470 -0.134357
C22   C     C_2   0.858844 0.183384 0.180309 -0.304710
H10   H     H_    0.156543 0.202042 0.197603 0.131135
H11   H     H_    0.714803 0.201723 0.198593 0.126035
C23   C     C_2   0.208760 0.768669 0.789597 -0.134752
C24   C     C_2   0.363762 0.820242 0.818336 -0.300162
H12   H     H_    0.076142 0.772078 0.817763 0.162187
H13   H     H_    0.498732 0.816129 0.791579 0.147245
C25   C     C_2   0.205052 0.706271 0.720160 -0.131543
C26   C     C_2   0.361975 0.679189 0.681905 -0.314220
H14   H     H_    0.064163 0.679443 0.700694 0.137417
H15   H     H_    0.505082 0.700957 0.701048 0.129719
C27   C     C_R   0.386087 0.887669 0.387637 -0.158818
H16   H     H_    0.382592 0.837369 0.480079 0.105129
H17   H     H_    0.402680 0.013026 0.305214 0.122136
H18   H     H_    0.400518 0.965691 0.412922 0.113493
C28   C     C_R   0.357201 0.714021 0.394724 -0.030575
C29   C     C_R   0.337410 0.685582 0.071270 -0.167917
C30   C     C_R   0.326194 0.609515 0.106629 -0.119848
C31   C     C_R   0.333020 0.631798 0.176361 -0.157425
C32   C     C_R   0.351507 0.732049 0.212909 0.076978
C33   C     C_R   0.362923 0.809814 0.176197 0.067174
C34   C     C_R   0.359067 0.757722 0.284497 0.072446
C35   C     C_R   0.377886 0.860228 0.317455 0.141299
C36   C     C_R   0.388488 0.934799 0.280332 -0.202248
C37   C     C_R   0.381134 0.910213 0.210910 -0.195161
C38   C     C_R   0.348761 0.685443 0.324809 -0.214201
C39   C     C_R   0.375923 0.814960 0.425989 -0.174154
C40   C     C_R   0.355729 0.785446 0.105227 -0.071309
H19   H     H_    0.334340 0.606371 0.303744 0.092957
H20   H     H_    0.331706 0.666528 0.017057 0.102128
H21   H     H_    0.323399 0.568629 0.199950 0.106826
H22   H     H_    0.311986 0.532372 0.079745 0.118592
H23   H     H_    0.389976 0.970988 0.184614 0.116329
O11   O     O_R   0.203230 0.917310 0.915020 -0.526890
O12   O     O_R   0.535500 0.888690 0.048040 -0.543164
O13   O     O_R   0.711080 0.082610 0.085000 -0.547474
C41   C     C_R   0.366362 0.862802 0.065353 0.677315
O14   O     O_R   0.532630 0.905370 0.913230 -0.530764
O15   O     O_R   0.708190 0.099410 0.949230 -0.537628
C42   C     C_R   0.364259 0.884151 0.886551 0.755941
O16   O     O_R   0.206120 0.900510 0.050790 -0.541538
O17   O     O_3   0.375360 0.063570 0.011990 -0.379887
V3    V     V_3+5 0.648170 0.988200 0.997780 1.454071
O18   O     O_R   0.038240 0.111390 0.951940 -0.541420
C43   C     C_R   0.870154 0.136158 0.933954 0.709408
O19   O     O_R   0.041120 0.094710 0.086750 -0.545187
C44   C     C_R   0.872667 0.115737 0.113503 0.733830
V4    V     V_3+5 0.148810 0.011930 0.002180 1.443808
O20   O     O_3   0.871750 0.936430 0.988010 -0.359764
C45   C     C_1   0.855925 0.995221 0.812340 0.279595
N1    N     N_1   0.854410 0.924556 0.834865 -0.351604

loop_
_geom_bond_atom_site_label_1
_geom_bond_atom_site_label_2
_ccdc_geom_bond_type
C41   O16   A    
C1    O6    A    
V3    O20   S    
C24   H13   S    
C27   C35   A    
C7    H5    S    
C6    C16   A    
C32   C33   A    
C21   H10   S    
C34   C38   A    
C4    C6    S    
C13   C14   A    
C19   C21   S    
O5    C3    A    
C19   C20   D    
V2    O10   S    
C5    H3    S    
C24   C42   S    
O16   V4    S    
C32   C34   A    
O8    V2    S    
C25   H14   S    
C8    C9    A    
O1    V2    S    
C14   C15   A    
O7    V1    S    
C2    C28   S    
C29   H20   S    
C36   C37   A    
O12   V3    S    
C29   C30   A    
O9    C4    A    
O17   V4    S    
C33   C37   A    
O12   C41   A    
O13   C44   A    
C6    C17   A    
C23   H12   S    
C1    C26   S    
C12   C16   A    
C9    C10   A    
C15   C45   S    
O18   V4    S    
O11   C42   A    
O4    C2    A    
O18   C43   A    
C31   H21   S    
C10   C11   A    
C8    H7    S    
C30   C31   A    
C26   H15   S    
O2    C1    A    
O14   V3    S    
C11   C18   A    
C33   C40   A    
C25   C26   D    
C16   H4    S    
C22   C44   S    
O17   V3    S    
C22   H11   S    
H16   C39   S    
O3    C4    A    
O13   V3    S    
C28   C38   A    
O19   V4    S    
C11   C15   A    
O6    V2    S    
O9    V2    S    
C37   H23   S    
C21   C22   D    
O2    V1    S    
C7    C18   A    
C23   C24   D    
C40   C41   S    
O1    C2    A    
C5    C13   A    
O5    V1    S    
O8    C3    A    
C28   C39   A    
C10   C12   A    
C23   C25   S    
C9    H6    S    
C34   C35   A    
C3    C20   S    
O7    V2    S    
O4    V1    S    
O3    V1    S    
V1    O10   S    
C19   H8    S    
O15   C43   A    
V4    O20   S    
C27   C39   A    
C38   H19   S    
H17   C36   S    
C30   H22   S    
C45   N1    T    
O14   C42   A    
C18   C43   S    
C31   C32   A    
C29   C40   A    
H1    C17   S    
O19   C44   A    
C20   H9    S    
C35   C36   A    
C12   C13   A    
C5    C17   A    
C7    C8    A    
O15   V3    S    
O11   V4    S    
C27   H18   S    
H2    C14   S    
