data_mof_unit_58875.cif
_audit_creation_date              2012-12-10T17:40:30-0500
_audit_creation_method            fapswitch 2.2
_symmetry_space_group_name_H-M    P1
_symmetry_Int_Tables_number       1
_space_group_crystal_system       triclinic
_cell_length_a                    13.703033
_cell_length_b                    15.081472
_cell_length_c                    15.838543
_cell_angle_alpha                 90.218177
_cell_angle_beta                  70.126689
_cell_angle_gamma                 90.192662
_cell_volume                      3078.26209972

loop_
_atom_site_label
_atom_site_type_symbol
_atom_type_description
_atom_site_fract_x
_atom_site_fract_y
_atom_site_fract_z
_atom_type_partial_charge
C1    C     C_R   0.500227 0.671522 0.499700 0.821917
C2    C     C_R   0.499792 0.328475 0.500251 0.821740
C3    C     C_R   0.372415 0.505613 0.097053 -0.238304
C4    C     C_R   0.616058 0.555128 0.909226 -0.239153
C5    C     C_R   0.301091 0.497870 0.052910 -0.175416
C6    C     C_R   0.686607 0.565623 0.953877 -0.173865
C7    C     C_R   0.412363 0.184950 0.496830 -0.242119
C8    C     C_R   0.587732 0.815039 0.502925 -0.240980
C9    C     C_R   0.499562 0.231621 0.500549 -0.075491
C10   C     C_R   0.500510 0.768369 0.499267 -0.074702
C11   C     C_R   0.586790 0.185566 0.504320 -0.236068
C12   C     C_R   0.413322 0.814420 0.495400 -0.235164
C13   C     C_R   0.587603 0.093223 0.504076 0.110169
C14   C     C_R   0.412541 0.906762 0.495565 0.110142
C15   C     C_R   0.499927 0.046466 0.500054 0.064660
C16   C     C_R   0.500219 0.953521 0.499582 0.064538
C17   C     C_R   0.411977 0.092557 0.496457 0.108719
C18   C     C_R   0.588157 0.907431 0.503204 0.108831
C19   C     C_R   0.674647 0.046906 0.507578 -0.215061
C20   C     C_R   0.325518 0.953079 0.492015 -0.214594
C21   C     C_R   0.674903 0.954465 0.507186 -0.204084
C22   C     C_R   0.325250 0.045521 0.492430 -0.204770
C23   C     C_R   0.437209 0.499828 0.672382 0.825972
C24   C     C_R   0.562735 0.501512 0.327711 0.826302
C25   C     C_R   0.230955 0.551650 0.439942 -0.007600
C26   C     C_R   0.769082 0.448320 0.560002 -0.007924
C27   C     C_R   0.182929 0.448750 0.559917 0.028244
C28   C     C_R   0.817072 0.551235 0.440047 0.029362
C29   C     C_R   0.079619 0.447642 0.561097 -0.018943
C30   C     C_R   0.920415 0.552311 0.438804 -0.019302
C31   C     C_R   0.051951 0.500385 0.499663 0.055358
C32   C     C_R   0.948093 0.499571 0.500232 0.054704
C33   C     C_R   0.128246 0.553783 0.437804 -0.024258
C34   C     C_R   0.871810 0.446154 0.562077 -0.024570
C35   C     C_R   0.004150 0.394701 0.622356 -0.224227
C36   C     C_R   0.995915 0.605180 0.377474 -0.223974
C37   C     C_R   0.900686 0.392909 0.623722 0.094722
C38   C     C_R   0.099396 0.606949 0.376082 0.092278
C39   C     C_R   0.399747 0.500702 0.770964 -0.110877
C40   C     C_R   0.599314 0.511765 0.229833 -0.110460
C41   C     C_R   0.261065 0.487861 0.914194 0.267006
C42   C     C_R   0.730422 0.557616 0.090899 0.269619
C43   C     C_R   0.294645 0.489371 0.820668 -0.206638
C44   C     C_R   0.700436 0.539673 0.182526 -0.205171
C45   C     C_R   0.471211 0.512182 0.815336 -0.254307
C46   C     C_R   0.528354 0.500906 0.184967 -0.254122
C47   C     C_R   0.439819 0.514842 0.909451 0.053701
C48   C     C_R   0.554059 0.522558 0.093856 0.051670
C49   C     C_R   0.333190 0.500227 0.959322 0.085390
C50   C     C_R   0.657864 0.548608 0.045702 0.082898
C51   C     C_R   0.512322 0.528808 0.954938 0.089798
C52   C     C_R   0.479401 0.517986 0.049510 0.092702
Cu1   Cu    Cu3+1 0.402580 0.500010 0.499990 0.942124
Cu2   Cu    Cu3+1 0.597420 0.499990 0.500010 0.941937
H1    H     H_    0.220403 0.488970 0.093437 0.195591
H2    H     H_    0.764445 0.586557 0.914956 0.196530
H3    H     H_    0.291864 0.591070 0.394170 0.143810
H4    H     H_    0.708185 0.408897 0.605777 0.143081
H5    H     H_    0.205275 0.408419 0.606730 0.125443
H6    H     H_    0.794709 0.591568 0.393243 0.125506
H7    H     H_    0.026231 0.353961 0.669155 0.142817
H8    H     H_    0.973854 0.645869 0.330627 0.145771
H9    H     H_    0.453331 0.474213 0.222857 0.160132
H10   H     H_    0.551866 0.516393 0.774635 0.158007
H11   H     H_    0.755710 0.549353 0.217029 0.180367
H12   H     H_    0.238661 0.479698 0.786894 0.182674
H13   H     H_    0.340146 0.504518 0.169253 0.137754
H14   H     H_    0.644860 0.571603 0.838926 0.146570
H15   H     H_    0.344844 0.220382 0.493941 0.156713
H16   H     H_    0.655233 0.779609 0.505856 0.156645
H17   H     H_    0.654212 0.221443 0.507337 0.154373
H18   H     H_    0.345896 0.778540 0.492391 0.154330
H19   H     H_    0.742460 0.082168 0.510539 0.144938
H20   H     H_    0.257718 0.917815 0.489023 0.144928
H21   H     H_    0.742859 0.919765 0.509976 0.144748
H22   H     H_    0.257293 0.080221 0.489639 0.144656
N1    N     N_R   0.256170 0.500070 0.500040 -0.185319
N2    N     N_R   0.743830 0.499930 0.499960 -0.185566
O1    O     O_R   0.417730 0.629750 0.499970 -0.587147
O2    O     O_R   0.582270 0.370250 0.500030 -0.586989
O3    O     O_R   0.582270 0.629730 0.499980 -0.589035
O4    O     O_R   0.417730 0.370270 0.500020 -0.588601
O5    O     O_R   0.371590 0.500020 0.629830 -0.583813
O6    O     O_R   0.628410 0.499980 0.370170 -0.582981
O7    O     O_R   0.536130 0.499990 0.629840 -0.592589
O8    O     O_R   0.463870 0.500010 0.370160 -0.591721
C53   C     C_3   0.823820 0.333523 0.691560 -0.402349
C54   C     C_3   0.803064 0.248357 0.646922 -0.366191
C55   C     C_3   0.716684 0.193485 0.712424 -0.820761
H23   H     H_    0.737709 0.175359 0.771951 0.261311
H24   H     H_    0.642975 0.231554 0.734609 0.255991
H25   H     H_    0.704638 0.131696 0.678889 0.243668
H26   H     H_    0.780474 0.264163 0.587691 0.211519
H27   H     H_    0.875119 0.208017 0.623284 0.223920
H28   H     H_    0.854376 0.314569 0.745656 0.207483
H29   H     H_    0.750755 0.370280 0.725568 0.190914
C56   C     C_3   0.176307 0.666174 0.308088 -0.404969
C57   C     C_3   0.197089 0.751508 0.352423 -0.363663
C58   C     C_3   0.283639 0.806093 0.286747 -0.817721
H30   H     H_    0.357222 0.767848 0.264614 0.256846
H31   H     H_    0.262626 0.824142 0.227200 0.261972
H32   H     H_    0.295917 0.867917 0.320106 0.243021
H33   H     H_    0.125100 0.791935 0.375820 0.223932
H34   H     H_    0.219571 0.735919 0.411755 0.211214
H35   H     H_    0.249397 0.629442 0.274349 0.187179
H36   H     H_    0.145891 0.684831 0.253824 0.209588
Br1   Br    Br    0.116027 0.465884 0.975834 -0.478727
Br2   Br    Br    0.870339 0.598006 0.032663 -0.478165

loop_
_geom_bond_atom_site_label_1
_geom_bond_atom_site_label_2
_ccdc_geom_bond_type
C53   C54   S    
C27   C29   A    
C18   C21   A    
C22   H22   S    
Cu2   O6    S    
C56   C57   S    
C47   C49   A    
Cu1   Cu2   S    
C40   C46   A    
C26   N2    A    
C23   O5    A    
C25   N1    A    
Cu1   O1    S    
C57   H34   S    
C1    O3    A    
C57   H33   S    
C34   C37   A    
C7    C9    A    
C45   C47   A    
C26   C34   A    
C58   H30   S    
C7    C17   A    
C53   H28   S    
C31   C33   A    
Cu1   O8    S    
C55   H24   S    
C28   N2    A    
C39   C45   A    
C56   H35   S    
C48   C50   A    
C12   H18   S    
C41   C43   A    
C5    C49   A    
C44   H11   S    
C42   C44   A    
C38   C56   S    
C36   H8    S    
C41   C49   A    
C37   C53   S    
Cu2   O2    S    
C28   H6    S    
C46   C48   A    
C13   C19   A    
C4    C51   A    
C51   C52   A    
C25   H3    S    
C14   C20   A    
C19   H19   S    
C4    C6    A    
C4    H14   S    
C39   C43   A    
C3    C5    A    
C8    C18   A    
Cu1   O4    S    
C32   C34   A    
Cu1   N1    S    
C26   H4    S    
C31   C32   A    
C40   C44   A    
C53   H29   S    
C20   H20   S    
C35   H7    S    
C6    C50   A    
C55   H25   S    
C9    C11   A    
C10   C12   A    
C42   C50   A    
C56   H36   S    
C16   C18   A    
C58   H31   S    
C20   C22   A    
C13   C15   A    
C1    O1    A    
C14   C16   A    
C2    O4    A    
C15   C17   A    
C29   C35   A    
C54   H26   S    
C41   Br1   S    
C35   C37   A    
C5    H1    S    
C3    H13   S    
C1    C10   S    
C33   C38   A    
C6    H2    S    
C27   N1    A    
C7    H15   S    
Cu2   O7    S    
C47   C51   A    
C3    C52   A    
C21   H21   S    
C45   H10   S    
C8    H16   S    
C17   C22   A    
C30   C36   A    
C46   H9    S    
Cu1   O5    S    
C28   C30   A    
C12   C14   A    
C29   C31   A    
C27   H5    S    
C30   C32   A    
C11   C13   A    
C42   Br2   S    
C43   H12   S    
C23   C39   S    
C36   C38   A    
C24   C40   S    
C11   H17   S    
C24   O6    A    
C2    O2    A    
C48   C52   A    
C58   H32   S    
C54   C55   S    
C8    C10   A    
C57   C58   S    
C23   O7    A    
C54   H27   S    
Cu2   N2    S    
C55   H23   S    
C2    C9    S    
C24   O8    A    
Cu2   O3    S    
C15   C16   A    
C25   C33   A    
C19   C21   A    
