data_mof_unit_5151.cif
_audit_creation_date              2012-12-11T17:01:25-0500
_audit_creation_method            fapswitch 2.2
_symmetry_space_group_name_H-M    P1
_symmetry_Int_Tables_number       1
_space_group_crystal_system       triclinic
_cell_length_a                    19.374031
_cell_length_b                    7.141162
_cell_length_c                    17.572117
_cell_angle_alpha                 89.998731
_cell_angle_beta                  108.514445
_cell_angle_gamma                 89.998133
_cell_volume                      2305.32889971

loop_
_atom_site_label
_atom_site_type_symbol
_atom_type_description
_atom_site_fract_x
_atom_site_fract_y
_atom_site_fract_z
_atom_type_partial_charge
O1    O     O_R   0.413720 0.494330 0.415730 -0.538339
O2    O     O_R   0.586280 0.994330 0.584270 -0.538338
O3    O     O_R   0.560210 0.819300 0.430070 -0.541005
O4    O     O_R   0.439790 0.319300 0.569930 -0.541009
C1    C     C_R   0.581588 0.655474 0.414775 0.720875
C2    C     C_R   0.418411 0.155476 0.585223 0.720870
O5    O     O_R   0.412670 0.823730 0.406310 -0.526842
O6    O     O_R   0.587330 0.323730 0.593690 -0.526839
O7    O     O_R   0.437690 0.998790 0.560340 -0.541759
O8    O     O_R   0.562310 0.498790 0.439660 -0.541767
C3    C     C_R   0.385682 0.655147 0.383303 0.715780
C4    C     C_R   0.614318 0.155142 0.616696 0.715775
O9    O     O_3   0.508380 0.662350 0.550560 -0.360488
O10   O     O_3   0.491620 0.162350 0.449440 -0.360491
V1    V     V_3+5 0.498450 0.935370 0.490620 1.502202
V2    V     V_3+5 0.501550 0.435370 0.509380 1.502192
C5    C     C_R   0.697315 0.993220 0.739409 0.047088
C6    C     C_R   0.302693 0.493236 0.260588 0.047082
C7    C     C_R   0.681711 0.146558 0.686677 -0.114159
C8    C     C_R   0.318290 0.646567 0.313320 -0.114151
C9    C     C_R   0.733205 0.292727 0.702381 -0.087645
C10   C     C_R   0.266786 0.792718 0.297619 -0.087660
H1    H     H_    0.723981 0.413702 0.663357 0.148028
H2    H     H_    0.276002 0.913682 0.336645 0.148032
C11   C     C_R   0.799547 0.278374 0.765515 -0.072099
C12   C     C_R   0.200443 0.778354 0.234487 -0.072080
H3    H     H_    0.840037 0.385474 0.773482 0.194759
H4    H     H_    0.159944 0.885433 0.226525 0.194752
C13   C     C_R   0.816094 0.121414 0.815934 -0.089439
C14   C     C_R   0.183905 0.621405 0.184068 -0.089443
C15   C     C_R   0.763702 0.979916 0.801071 0.052034
C16   C     C_R   0.236307 0.479925 0.198927 0.052015
C17   C     C_3   0.771798 0.778339 0.784509 0.361865
C18   C     C_3   0.228225 0.278340 0.215488 0.361890
C19   C     C_3   0.696791 0.789434 0.720598 0.056926
C20   C     C_3   0.303232 0.289445 0.279399 0.056954
H5    H     H_    0.697408 0.762736 0.658486 0.111464
H6    H     H_    0.302617 0.262729 0.341511 0.111472
C21   C     C_R   0.321390 0.299514 0.632260 -0.169565
C22   C     C_R   0.678603 0.799506 0.367731 -0.169595
C23   C     C_R   0.368575 0.148505 0.634026 -0.077376
C24   C     C_R   0.631422 0.648502 0.365969 -0.077367
C25   C     C_R   0.367536 0.991901 0.682174 -0.195106
C26   C     C_R   0.632486 0.491869 0.317850 -0.195087
C27   C     C_R   0.320909 0.987078 0.729216 0.107653
C28   C     C_R   0.679099 0.487058 0.270792 0.107673
C29   C     C_R   0.273312 0.138732 0.726601 0.064797
C30   C     C_R   0.726677 0.638737 0.273384 0.064764
C31   C     C_R   0.273172 0.294444 0.677304 0.040153
C32   C     C_R   0.726837 0.794419 0.322706 0.040105
C33   C     C_R   0.321091 0.833285 0.778923 -0.173803
C34   C     C_R   0.678955 0.333214 0.221128 -0.173741
C35   C     C_R   0.274697 0.829507 0.825729 -0.135371
C36   C     C_R   0.725355 0.329435 0.174328 -0.135406
C37   C     C_R   0.226641 0.978447 0.822974 0.132600
C38   C     C_R   0.773378 0.478423 0.177046 0.132532
C39   C     C_R   0.225670 0.134198 0.773088 0.023794
C40   C     C_R   0.774327 0.634196 0.226907 0.023764
C41   C     C_R   0.176780 0.284175 0.769117 0.029606
C42   C     C_R   0.823238 0.784142 0.230905 0.029546
C43   C     C_R   0.175492 0.436346 0.717217 0.265159
C44   C     C_R   0.824582 0.936229 0.282874 0.265157
C45   C     C_R   0.224157 0.441524 0.672927 -0.195148
C46   C     C_R   0.775927 0.941398 0.327177 -0.195117
C47   C     C_R   0.179043 0.972862 0.868637 -0.114961
C48   C     C_R   0.820975 0.472847 0.131383 -0.115045
C49   C     C_R   0.130886 0.121671 0.866086 -0.081548
C50   C     C_R   0.869119 0.621670 0.133919 -0.081549
C51   C     C_R   0.130316 0.276799 0.816631 -0.156296
C52   C     C_R   0.869702 0.776775 0.183391 -0.156318
H7    H     H_    0.321231 0.419816 0.594537 0.124247
H8    H     H_    0.678761 0.919802 0.405453 0.124238
H9    H     H_    0.403913 0.875293 0.684092 0.145720
H10   H     H_    0.596152 0.375214 0.315979 0.145712
H11   H     H_    0.357115 0.715635 0.781575 0.141925
H12   H     H_    0.642969 0.215512 0.218519 0.141912
H13   H     H_    0.275764 0.708731 0.863433 0.136556
H14   H     H_    0.724321 0.208615 0.136663 0.136533
H15   H     H_    0.179967 0.853034 0.906861 0.133061
H16   H     H_    0.820060 0.353011 0.093169 0.133046
H17   H     H_    0.092776 0.390010 0.814967 0.176858
H18   H     H_    0.907256 0.889962 0.185073 0.176833
H19   H     H_    0.222977 0.560273 0.634133 0.168226
H20   H     H_    0.777191 0.060032 0.366075 0.168248
O11   O     O_R   0.937800 0.775460 0.060470 -0.541502
O12   O     O_R   0.062200 0.275460 0.939530 -0.541499
O13   O     O_R   0.087350 0.441340 0.093710 -0.510540
O14   O     O_R   0.912650 0.941340 0.906290 -0.510538
C53   C     C_R   0.114491 0.610082 0.116564 0.735126
C54   C     C_R   0.885509 0.110088 0.883437 0.735142
O15   O     O_R   0.939820 0.446010 0.069950 -0.535011
O16   O     O_R   0.060180 0.946010 0.930050 -0.535001
O17   O     O_R   0.913690 0.271230 0.915700 -0.534718
O18   O     O_R   0.086310 0.771230 0.084300 -0.534728
C55   C     C_R   0.918726 0.614251 0.084828 0.746707
C56   C     C_R   0.081274 0.114249 0.915173 0.746706
O19   O     O_3   0.991670 0.603050 0.949510 -0.361426
O20   O     O_3   0.008330 0.103050 0.050490 -0.361446
V3    V     V_3+5 0.001550 0.329940 0.009370 1.585090
V4    V     V_3+5 0.998450 0.829940 0.990630 1.585091
Br1   Br    Br    0.106564 0.637863 0.701309 -0.500284
Br2   Br    Br    0.893582 0.137625 0.298869 -0.500093
Br3   Br    Br    0.782035 0.629846 0.880579 -0.496276
Br4   Br    Br    0.217996 0.129865 0.119419 -0.496274
Br5   Br    Br    0.849616 0.742911 0.737026 -0.552180
Br6   Br    Br    0.150412 0.242875 0.262973 -0.552193
Br7   Br    Br    0.616968 0.664996 0.745195 -0.465356
Br8   Br    Br    0.383062 0.165037 0.254801 -0.465320

loop_
_geom_bond_atom_site_label_1
_geom_bond_atom_site_label_2
_ccdc_geom_bond_type
C25   H9    S    
C48   C50   A    
C1    C24   S    
C31   C45   A    
C44   Br2   S    
C20   Br8   S    
C32   C46   A    
C35   H13   S    
O1    C3    A    
O2    C4    A    
C2    O7    A    
C29   C31   A    
O5    C3    A    
C47   H15   S    
C19   H5    S    
C33   H11   S    
C17   C19   S    
C38   C48   A    
C39   C41   A    
C27   C33   A    
C40   C42   A    
C28   C34   A    
O16   C56   A    
C42   C44   A    
C27   C29   A    
C53   O18   A    
C43   C45   A    
C46   H20   S    
C44   C46   A    
C37   C47   A    
C26   C28   A    
C47   C49   A    
C2    C23   S    
C15   C17   S    
O18   V4    S    
O17   V3    S    
C18   C20   S    
C30   C32   A    
O6    V2    S    
C23   C25   A    
C24   C26   A    
C14   C53   S    
C13   C54   S    
O19   V3    S    
C34   C36   A    
C28   C30   A    
C35   C37   A    
C11   C13   A    
C36   C38   A    
C3    C8    S    
C41   C43   A    
C50   C55   S    
C18   Br6   S    
C19   Br7   S    
C17   Br5   S    
C21   C23   A    
O5    V1    S    
O3    C1    A    
C18   Br4   S    
C45   H19   S    
C33   C35   A    
C16   C18   S    
O4    V2    S    
C43   Br1   S    
O2    V1    S    
C29   C39   A    
C42   C52   A    
O6    C4    A    
O1    V2    S    
C26   H10   S    
O12   V3    S    
C25   C27   A    
O14   V4    S    
O12   C56   A    
C41   C51   A    
O4    C2    A    
C21   C31   A    
C8    C10   A    
C12   C14   A    
O20   V4    S    
C37   C39   A    
C49   C56   S    
C5    C15   A    
C10   H2    S    
C6    C16   A    
C20   H6    S    
O19   V4    S    
O3    V1    S    
O16   V4    S    
C54   O17   A    
C9    C11   A    
C22   H8    S    
C7    C9    A    
C17   Br3   S    
O14   C54   A    
C34   H12   S    
C30   C40   A    
C11   H3    S    
C48   H16   S    
C12   H4    S    
O15   V3    S    
C9    H1    S    
O7    V1    S    
C1    O8    A    
C13   C15   A    
O11   V4    S    
O8    V2    S    
C14   C16   A    
O11   C55   A    
C22   C32   A    
C4    C7    S    
C22   C24   A    
C5    C7    A    
C38   C40   A    
C6    C8    A    
C52   H18   S    
C51   H17   S    
O15   C55   A    
O13   V3    S    
C50   C52   A    
O20   V3    S    
C10   C12   A    
O9    V2    S    
O13   C53   A    
C21   H7    S    
O10   V1    S    
C5    C19   S    
C49   C51   A    
C6    C20   S    
C36   H14   S    
