data_mof_unit_63301.cif
_audit_creation_date              2012-12-10T19:19:40-0500
_audit_creation_method            fapswitch 2.2
_symmetry_space_group_name_H-M    P1
_symmetry_Int_Tables_number       1
_space_group_crystal_system       triclinic
_cell_length_a                    24.451625
_cell_length_b                    24.4515
_cell_length_c                    39.690948
_cell_angle_alpha                 90.000183
_cell_angle_beta                  89.999905
_cell_angle_gamma                 89.996539
_cell_volume                      23730.3806316

loop_
_atom_site_label
_atom_site_type_symbol
_atom_type_description
_atom_site_fract_x
_atom_site_fract_y
_atom_site_fract_z
_atom_type_partial_charge
C1    C     C_R   0.271378 0.228766 0.250088 0.109622
C2    C     C_R   0.728741 0.228600 0.249912 0.107546
C3    C     C_R   0.499986 0.000046 0.621972 -0.201105
C4    C     C_R   0.499935 0.000011 0.878027 -0.200762
C5    C     C_R   0.499964 0.000006 0.121972 -0.201456
C6    C     C_R   0.999985 0.499948 0.878028 -0.200721
C7    C     C_R   0.999994 0.499973 0.121974 -0.200193
C8    C     C_R   0.499999 0.000005 0.340907 0.909177
C9    C     C_R   0.499998 0.000008 0.659093 0.908848
C10   C     C_R   0.999997 0.499999 0.340907 0.908165
C11   C     C_R   0.999988 0.499998 0.659093 0.909022
C12   C     C_R   0.999998 0.499991 0.840907 0.908911
C13   C     C_R   0.771354 0.728690 0.750013 0.106899
C14   C     C_R   0.999999 0.499998 0.159093 0.908412
C15   C     C_R   0.499988 0.000002 0.840907 0.909025
C16   C     C_R   0.499997 0.000000 0.159093 0.909430
C17   C     C_R   0.605198 0.105177 0.249988 0.798911
C18   C     C_R   0.394815 0.894812 0.749999 0.788633
C19   C     C_R   0.894816 0.605179 0.250003 0.813780
C20   C     C_R   0.105194 0.394809 0.749999 0.788571
C21   C     C_R   0.394802 0.894823 0.249988 0.798917
C22   C     C_R   0.605195 0.105191 0.750001 0.788561
C23   C     C_R   0.105184 0.394821 0.250003 0.813772
C24   C     C_R   0.228716 0.271420 0.250073 0.101102
C25   C     C_R   0.894816 0.605187 0.750001 0.788645
C26   C     C_R   0.605189 0.894815 0.750001 0.811372
C27   C     C_R   0.394818 0.105203 0.250012 0.799416
C28   C     C_R   0.894819 0.394816 0.750001 0.812983
C29   C     C_R   0.105185 0.605190 0.249997 0.789312
C30   C     C_R   0.394820 0.105183 0.749999 0.812991
C31   C     C_R   0.605182 0.894797 0.250012 0.799370
C32   C     C_R   0.105189 0.605186 0.749999 0.811361
C33   C     C_R   0.894815 0.394810 0.249997 0.789317
C34   C     C_R   0.999867 0.499947 0.448762 -0.001896
C35   C     C_R   0.728714 0.228673 0.750014 0.110681
C36   C     C_R   0.999847 0.499958 0.551236 -0.001019
C37   C     C_R   0.499970 0.000099 0.448765 -0.000018
C38   C     C_R   0.499957 0.000108 0.551237 -0.000143
C39   C     C_R   0.499847 0.000042 0.948762 -0.001312
C40   C     C_R   0.499867 0.000053 0.051236 -0.001010
C41   C     C_R   0.999949 0.499879 0.948764 -0.001234
C42   C     C_R   0.999946 0.499892 0.051238 -0.001502
C43   C     C_1   0.999834 0.499937 0.484861 0.014093
C44   C     C_1   0.999826 0.499938 0.515137 0.014311
C45   C     C_1   0.499952 0.000121 0.484863 0.014739
C46   C     C_R   0.271259 0.771400 0.249912 0.107551
C47   C     C_1   0.499947 0.000126 0.515139 0.014624
C48   C     C_1   0.499826 0.000062 0.984861 0.014541
C49   C     C_1   0.499834 0.000063 0.015137 0.014681
C50   C     C_1   0.999932 0.499859 0.984863 0.014317
C51   C     C_1   0.999933 0.499865 0.015139 0.014174
C52   C     C_R   0.260528 0.176896 0.263754 -0.162451
C53   C     C_R   0.739658 0.823350 0.736572 -0.162382
C54   C     C_R   0.807342 0.276322 0.277361 -0.167904
C55   C     C_R   0.176693 0.739625 0.736541 -0.162259
C56   C     C_R   0.739472 0.823104 0.263753 -0.162445
C57   C     C_R   0.228714 0.271326 0.749986 0.110701
C58   C     C_R   0.276822 0.193091 0.722401 -0.165072
C59   C     C_R   0.192661 0.723675 0.277362 -0.167909
C60   C     C_R   0.806959 0.276767 0.722430 -0.165239
C61   C     C_R   0.276510 0.807189 0.722527 -0.165024
C62   C     C_R   0.739762 0.176540 0.263253 -0.164756
C63   C     C_R   0.807221 0.723528 0.722549 -0.164830
C64   C     C_R   0.193199 0.276957 0.277683 -0.161962
C65   C     C_R   0.739605 0.176750 0.736436 -0.165093
C66   C     C_R   0.260239 0.823459 0.263256 -0.164766
C67   C     C_R   0.176794 0.260426 0.736410 -0.164761
C68   C     C_R   0.771284 0.728580 0.250073 0.101106
C69   C     C_R   0.806801 0.723044 0.277683 -0.161971
C70   C     C_R   0.776516 0.692818 0.777476 -0.164944
C71   C     C_R   0.223185 0.306891 0.222440 -0.165693
C72   C     C_R   0.307227 0.776467 0.777449 -0.164906
C73   C     C_R   0.676683 0.239636 0.236573 -0.164500
C74   C     C_R   0.239605 0.323248 0.763564 -0.165014
C75   C     C_R   0.776814 0.693107 0.222440 -0.165695
C76   C     C_R   0.676792 0.239574 0.763590 -0.164841
C77   C     C_R   0.323316 0.760365 0.236570 -0.164503
C78   C     C_R   0.776462 0.307252 0.222518 -0.164232
C79   C     C_R   0.300898 0.136766 0.263955 -0.154110
C80   C     C_R   0.239655 0.676651 0.763433 -0.162478
C81   C     C_R   0.323249 0.239602 0.236421 -0.162719
C82   C     C_R   0.676692 0.760373 0.763453 -0.162169
C83   C     C_R   0.223535 0.692751 0.222516 -0.164223
C84   C     C_R   0.776811 0.306921 0.777594 -0.165161
C85   C     C_R   0.676751 0.760397 0.236422 -0.162724
C86   C     C_R   0.306947 0.223222 0.777575 -0.165152
C87   C     C_R   0.699264 0.863451 0.736337 -0.154034
C88   C     C_R   0.847832 0.316327 0.277262 -0.171534
C89   C     C_R   0.728693 0.771348 0.750014 0.106158
C90   C     C_R   0.136582 0.699243 0.736313 -0.152928
C91   C     C_R   0.699102 0.863234 0.263954 -0.154127
C92   C     C_R   0.316807 0.152577 0.722520 -0.154775
C93   C     C_R   0.152170 0.683670 0.277263 -0.171530
C94   C     C_R   0.847459 0.316764 0.722541 -0.156476
C95   C     C_R   0.316482 0.847711 0.722654 -0.171914
C96   C     C_R   0.699361 0.136448 0.263503 -0.171637
C97   C     C_R   0.847731 0.683541 0.722668 -0.173295
C98   C     C_R   0.152667 0.316923 0.277543 -0.155331
C99   C     C_R   0.699215 0.136641 0.736212 -0.171968
C100  C     C_R   0.771396 0.271262 0.249927 0.106904
C101  C     C_R   0.300640 0.863551 0.263505 -0.171659
C102  C     C_R   0.136672 0.300805 0.736194 -0.170591
C103  C     C_R   0.847334 0.683078 0.277543 -0.155304
C104  C     C_R   0.816489 0.652295 0.777348 -0.171874
C105  C     C_R   0.183173 0.347379 0.222531 -0.154628
C106  C     C_R   0.347736 0.816452 0.777329 -0.173332
C107  C     C_R   0.636559 0.199266 0.236362 -0.154797
C108  C     C_R   0.199214 0.363358 0.763787 -0.171919
C109  C     C_R   0.816827 0.652620 0.222532 -0.154664
C110  C     C_R   0.636672 0.199196 0.763806 -0.170640
C111  C     C_R   0.228692 0.728652 0.749986 0.106147
C112  C     C_R   0.363439 0.800735 0.236359 -0.154786
C113  C     C_R   0.816422 0.347786 0.222665 -0.172184
C114  C     C_R   0.199262 0.636551 0.763669 -0.154104
C115  C     C_R   0.363347 0.199200 0.236182 -0.171289
C116  C     C_R   0.636579 0.800755 0.763681 -0.152870
C117  C     C_R   0.183576 0.652217 0.222663 -0.172172
C118  C     C_R   0.816795 0.347434 0.777475 -0.154830
C119  C     C_R   0.636652 0.800799 0.236183 -0.171293
C120  C     C_R   0.347448 0.183223 0.777463 -0.156420
C121  C     C_R   0.352488 0.147589 0.250048 -0.002702
C122  C     C_R   0.728622 0.771234 0.250089 0.109620
C123  C     C_R   0.647544 0.852473 0.750006 -0.002146
C124  C     C_R   0.852486 0.352442 0.249976 -0.005799
C125  C     C_R   0.147545 0.647527 0.749994 -0.002157
C126  C     C_R   0.647512 0.852411 0.250047 -0.002707
C127  C     C_R   0.352488 0.147530 0.749995 -0.021416
C128  C     C_R   0.147514 0.647558 0.249976 -0.005804
C129  C     C_R   0.852488 0.352470 0.750005 -0.021370
C130  C     C_R   0.352475 0.852458 0.749995 -0.005880
C131  C     C_R   0.647573 0.147498 0.249953 -0.001781
C132  C     C_R   0.852476 0.647542 0.750005 -0.005908
C133  C     C_R   0.271374 0.228671 0.749987 0.101434
C134  C     C_R   0.147541 0.352503 0.250024 -0.021741
C135  C     C_R   0.647560 0.147543 0.750006 -0.003689
C136  C     C_R   0.352426 0.852502 0.249953 -0.001774
C137  C     C_R   0.147560 0.352457 0.749994 -0.003681
C138  C     C_R   0.852459 0.647497 0.250024 -0.021737
C139  C     C_R   0.965405 0.535452 0.431228 -0.185726
C140  C     C_R   0.965338 0.464518 0.568783 -0.185206
C141  C     C_R   0.464573 0.034663 0.431225 -0.186094
C142  C     C_R   0.535412 0.965561 0.568745 -0.186028
C143  C     C_R   0.034380 0.464467 0.431245 -0.185602
C144  C     C_R   0.228603 0.728738 0.249927 0.106899
C145  C     C_R   0.034394 0.535414 0.568740 -0.186084
C146  C     C_R   0.535381 0.965508 0.431255 -0.186000
C147  C     C_R   0.464515 0.034625 0.568778 -0.185542
C148  C     C_R   0.465327 0.035475 0.931216 -0.185047
C149  C     C_R   0.465308 0.964648 0.068770 -0.185733
C150  C     C_R   0.964513 0.465363 0.931219 -0.185404
C151  C     C_R   0.035442 0.465416 0.068770 -0.185415
C152  C     C_R   0.534405 0.964592 0.931258 -0.185925
C153  C     C_R   0.534477 0.035433 0.068752 -0.185607
C154  C     C_R   0.035401 0.534427 0.931257 -0.185875
C155  C     C_R   0.771374 0.271329 0.750013 0.101512
C156  C     C_R   0.964476 0.534411 0.068758 -0.185646
C157  C     C_R   0.965163 0.535766 0.396039 0.340840
C158  C     C_R   0.965092 0.464244 0.603973 0.341801
C159  C     C_R   0.464297 0.034922 0.396036 0.341076
C160  C     C_R   0.535714 0.965240 0.603933 0.340580
C161  C     C_R   0.034717 0.464201 0.396056 0.340818
C162  C     C_R   0.034727 0.535718 0.603928 0.340252
C163  C     C_R   0.535682 0.965190 0.396066 0.341044
C164  C     C_R   0.464239 0.034883 0.603968 0.342143
C165  C     C_R   0.465081 0.035749 0.896026 0.341745
C166  C     C_R   0.271354 0.771309 0.749986 0.106962
C167  C     C_R   0.465067 0.964337 0.103959 0.340828
C168  C     C_R   0.964241 0.465108 0.896029 0.341764
C169  C     C_R   0.035756 0.465166 0.103959 0.340992
C170  C     C_R   0.534738 0.964289 0.896070 0.340194
C171  C     C_R   0.534813 0.035697 0.103941 0.340810
C172  C     C_R   0.035706 0.534751 0.896069 0.340195
C173  C     C_R   0.964210 0.534740 0.103947 0.341083
C174  C     C_R   0.999964 0.499994 0.378026 -0.200703
C175  C     C_R   0.999935 0.499989 0.621972 -0.200646
C176  C     C_R   0.499994 0.000039 0.378029 -0.202175
Cl1   Cl    Cl    0.918755 0.579926 0.375641 -0.597937
Cl2   Cl    Cl    0.418541 0.920319 0.124358 -0.584957
Cl3   Cl    Cl    0.920164 0.418644 0.875616 -0.599024
Cl4   Cl    Cl    0.079904 0.418741 0.124353 -0.599293
Cl5   Cl    Cl    0.581264 0.920211 0.875715 -0.586075
Cl6   Cl    Cl    0.581393 0.079690 0.124315 -0.584887
Cl7   Cl    Cl    0.079786 0.581268 0.875711 -0.585995
Cl8   Cl    Cl    0.920087 0.581210 0.124324 -0.599374
Cl9   Cl    Cl    0.918635 0.420163 0.624389 -0.599106
Cl10  Cl    Cl    0.420281 0.081449 0.375631 -0.583632
Cl11  Cl    Cl    0.579797 0.918725 0.624294 -0.585565
Cl12  Cl    Cl    0.081179 0.420065 0.375684 -0.597853
Cl13  Cl    Cl    0.081242 0.579805 0.624282 -0.586459
Cl14  Cl    Cl    0.579713 0.918634 0.375700 -0.583534
Cl15  Cl    Cl    0.420153 0.081349 0.624378 -0.598607
Cl16  Cl    Cl    0.418612 0.079821 0.875609 -0.598746
H1    H     H_    0.938430 0.562734 0.444914 0.187855
H2    H     H_    0.438257 0.937444 0.055085 0.187475
H3    H     H_    0.937255 0.438357 0.944897 0.187451
H4    H     H_    0.062716 0.438435 0.055081 0.187625
H5    H     H_    0.561390 0.937352 0.944967 0.187624
H6    H     H_    0.561495 0.062649 0.055053 0.187551
H7    H     H_    0.062642 0.561411 0.944964 0.187535
H8    H     H_    0.937188 0.561364 0.055061 0.187501
H9    H     H_    0.220625 0.167058 0.273906 0.138574
H10   H     H_    0.779658 0.833309 0.726613 0.137979
H11   H     H_    0.803768 0.249830 0.299106 0.139587
H12   H     H_    0.938334 0.437257 0.555107 0.187251
H13   H     H_    0.166740 0.779623 0.726575 0.138637
H14   H     H_    0.779375 0.832942 0.273905 0.138580
H15   H     H_    0.250648 0.196976 0.700529 0.144633
H16   H     H_    0.196237 0.750166 0.299108 0.139578
H17   H     H_    0.803088 0.250579 0.700563 0.144400
H18   H     H_    0.250115 0.803544 0.700741 0.142641
H19   H     H_    0.779807 0.166535 0.273129 0.138072
H20   H     H_    0.803571 0.749926 0.700764 0.142862
H21   H     H_    0.197146 0.250865 0.299588 0.147647
H22   H     H_    0.779548 0.166861 0.726360 0.138069
H23   H     H_    0.437349 0.061703 0.444907 0.186685
H24   H     H_    0.220195 0.833463 0.273134 0.138066
H25   H     H_    0.166916 0.220481 0.726333 0.138801
H26   H     H_    0.802855 0.749136 0.299588 0.147651
H27   H     H_    0.750124 0.696469 0.799263 0.142759
H28   H     H_    0.249311 0.302937 0.200550 0.144375
H29   H     H_    0.303584 0.750066 0.799232 0.142747
H30   H     H_    0.666693 0.279677 0.226686 0.138035
H31   H     H_    0.279548 0.333133 0.773639 0.138099
H32   H     H_    0.750688 0.697061 0.200551 0.144366
H33   H     H_    0.666911 0.279519 0.773667 0.138770
H34   H     H_    0.562658 0.938577 0.555039 0.186681
H35   H     H_    0.333304 0.720325 0.226681 0.138038
H36   H     H_    0.750004 0.303685 0.200756 0.142925
H37   H     H_    0.279653 0.666691 0.773397 0.137947
H38   H     H_    0.333101 0.279509 0.226280 0.138574
H39   H     H_    0.666740 0.720372 0.773415 0.138666
H40   H     H_    0.249991 0.696319 0.200754 0.142936
H41   H     H_    0.750629 0.303047 0.799463 0.144512
H42   H     H_    0.666898 0.720490 0.226282 0.138571
H43   H     H_    0.303064 0.249402 0.799444 0.144519
H44   H     H_    0.291494 0.097047 0.274561 0.164851
H45   H     H_    0.061323 0.437173 0.444945 0.187931
H46   H     H_    0.708744 0.903268 0.725896 0.164374
H47   H     H_    0.874978 0.319498 0.298740 0.166594
H48   H     H_    0.096769 0.708732 0.725869 0.166100
H49   H     H_    0.708506 0.902954 0.274559 0.164857
H50   H     H_    0.320317 0.125728 0.700918 0.186511
H51   H     H_    0.125027 0.680497 0.298742 0.166594
H52   H     H_    0.874310 0.320266 0.700940 0.186242
H53   H     H_    0.319727 0.874807 0.701157 0.167040
H54   H     H_    0.708883 0.096586 0.273864 0.162597
H55   H     H_    0.874817 0.680288 0.701166 0.167006
H56   H     H_    0.061371 0.562660 0.555031 0.187334
H57   H     H_    0.125867 0.320503 0.299164 0.186998
H58   H     H_    0.708648 0.096881 0.725673 0.162951
H59   H     H_    0.291119 0.903412 0.273869 0.162591
H60   H     H_    0.096914 0.291365 0.725657 0.164687
H61   H     H_    0.874134 0.679499 0.299164 0.187017
H62   H     H_    0.819740 0.625202 0.798848 0.167086
H63   H     H_    0.179597 0.374143 0.200893 0.186486
H64   H     H_    0.374827 0.819699 0.798829 0.166960
H65   H     H_    0.596695 0.208805 0.226010 0.164284
H66   H     H_    0.208645 0.403118 0.774326 0.162963
H67   H     H_    0.562595 0.938490 0.444960 0.186742
H68   H     H_    0.820402 0.625855 0.200894 0.186463
H69   H     H_    0.596913 0.208638 0.774343 0.164674
H70   H     H_    0.403302 0.791197 0.226005 0.164286
H71   H     H_    0.819596 0.374966 0.201203 0.167197
H72   H     H_    0.208742 0.596737 0.774115 0.164363
H73   H     H_    0.403063 0.208587 0.225566 0.163043
H74   H     H_    0.596764 0.791266 0.774120 0.166107
H75   H     H_    0.180399 0.625038 0.201201 0.167210
H76   H     H_    0.820294 0.374291 0.799074 0.186451
H77   H     H_    0.596936 0.791411 0.225567 0.163041
H78   H     H_    0.437254 0.061629 0.555097 0.186606
H79   H     H_    0.374291 0.179711 0.799069 0.186297
H80   H     H_    0.438314 0.062731 0.944892 0.187539
O1    O     O_3   0.500000 0.000000 0.250000 -0.507621
O2    O     O_R   0.454490 0.000000 0.675180 -0.603636
O3    O     O_R   0.000000 0.545510 0.324820 -0.603034
O4    O     O_R   0.000000 0.454490 0.675180 -0.601109
O5    O     O_R   0.954490 0.500000 0.824820 -0.603629
O6    O     O_R   0.045510 0.500000 0.175180 -0.602941
O7    O     O_R   0.500000 0.954490 0.824820 -0.601990
O8    O     O_R   0.500000 0.045510 0.175180 -0.600232
O9    O     O_R   0.045510 0.500000 0.824820 -0.599527
O10   O     O_R   0.954490 0.500000 0.175180 -0.602973
O11   O     O_R   0.500000 0.045510 0.824820 -0.601134
O12   O     O_3   0.500000 0.000000 0.750000 -0.507356
O13   O     O_R   0.500000 0.954490 0.175180 -0.600202
O14   O     O_R   0.609450 0.064000 0.269610 -0.648275
O15   O     O_R   0.390550 0.936000 0.730390 -0.642742
O16   O     O_R   0.936000 0.609450 0.269610 -0.629445
O17   O     O_R   0.064000 0.390550 0.730390 -0.642793
O18   O     O_R   0.390550 0.936000 0.269610 -0.648293
O19   O     O_R   0.609450 0.064000 0.730390 -0.644549
O20   O     O_R   0.064000 0.390550 0.269610 -0.629466
O21   O     O_R   0.936000 0.609450 0.730390 -0.644927
O22   O     O_R   0.609450 0.936000 0.730390 -0.630117
O23   O     O_3   0.000000 0.500000 0.250000 -0.507053
O24   O     O_R   0.390550 0.064000 0.269610 -0.626106
O25   O     O_R   0.936000 0.390550 0.730390 -0.631303
O26   O     O_R   0.064000 0.609450 0.269610 -0.643120
O27   O     O_R   0.390550 0.064000 0.730390 -0.629102
O28   O     O_R   0.609450 0.936000 0.269610 -0.626143
O29   O     O_R   0.064000 0.609450 0.730390 -0.628355
O30   O     O_R   0.936000 0.390550 0.269610 -0.643119
O31   O     O_R   0.109450 0.564000 0.769610 -0.630120
O32   O     O_R   0.890550 0.436000 0.230390 -0.643057
O33   O     O_R   0.436000 0.109450 0.769610 -0.631309
O34   O     O_3   0.000000 0.500000 0.750000 -0.507361
O35   O     O_R   0.564000 0.890550 0.230390 -0.648242
O36   O     O_R   0.890550 0.436000 0.769610 -0.629096
O37   O     O_R   0.109450 0.564000 0.230390 -0.643053
O38   O     O_R   0.564000 0.890550 0.769610 -0.628360
O39   O     O_R   0.436000 0.109450 0.230390 -0.648248
O40   O     O_R   0.109450 0.436000 0.230390 -0.629447
O41   O     O_R   0.890550 0.564000 0.769610 -0.642748
O42   O     O_R   0.436000 0.890550 0.230390 -0.626001
O43   O     O_R   0.564000 0.109450 0.769610 -0.642795
O44   O     O_R   0.890550 0.564000 0.230390 -0.629465
O45   O     O_R   0.454490 0.000000 0.324820 -0.600304
O46   O     O_R   0.109450 0.436000 0.769610 -0.644549
O47   O     O_R   0.564000 0.109450 0.230390 -0.626022
O48   O     O_R   0.436000 0.890550 0.769610 -0.644929
O49   O     O_R   0.545510 0.000000 0.675180 -0.599535
O50   O     O_R   0.000000 0.454490 0.324820 -0.603063
O51   O     O_R   0.000000 0.545510 0.675180 -0.601970
O52   O     O_R   0.545510 0.000000 0.324820 -0.600278
Zn1   Zn    Zn3+2 0.500000 0.064990 0.221970 1.024506
Zn2   Zn    Zn3+2 0.000000 0.435010 0.278030 1.023800
Zn3   Zn    Zn3+2 0.435010 0.000000 0.721970 1.023783
Zn4   Zn    Zn3+2 0.564990 0.000000 0.278030 1.024358
Zn5   Zn    Zn3+2 0.000000 0.435010 0.721970 1.024039
Zn6   Zn    Zn3+2 0.000000 0.564990 0.278030 1.023815
Zn7   Zn    Zn3+2 0.564990 0.000000 0.721970 1.024754
Zn8   Zn    Zn3+2 0.435010 0.000000 0.278030 1.024354
Zn9   Zn    Zn3+2 0.500000 0.935010 0.778030 1.024250
Zn10  Zn    Zn3+2 0.935010 0.500000 0.221970 1.023934
Zn11  Zn    Zn3+2 0.064990 0.500000 0.778030 1.024756
Zn12  Zn    Zn3+2 0.500000 0.935010 0.221970 1.024512
Zn13  Zn    Zn3+2 0.500000 0.064990 0.778030 1.024023
Zn14  Zn    Zn3+2 0.064990 0.500000 0.221970 1.023957
Zn15  Zn    Zn3+2 0.935010 0.500000 0.778030 1.023788
Zn16  Zn    Zn3+2 0.000000 0.564990 0.721970 1.024257

loop_
_geom_bond_atom_site_label_1
_geom_bond_atom_site_label_2
_ccdc_geom_bond_type
C59   H16   S    
C10   C174  S    
C82   H39   S    
C17   C131  S    
C148  H80   S    
O31   Zn11  S    
C63   H20   S    
C141  H23   S    
C27   C121  S    
O34   Zn16  S    
C68   C75   A    
C79   C121  A    
C159  Cl10  S    
C97   C132  A    
C79   H44   S    
C147  C164  A    
C83   H40   S    
C52   H9    S    
C113  H71   S    
O32   Zn10  S    
C114  H72   S    
C91   H49   S    
C31   O35   A    
O21   Zn16  S    
C164  Cl15  S    
C10   O3    A    
C169  Cl4   S    
O42   Zn12  S    
C25   O21   A    
C14   O6    A    
C21   O42   A    
C87   H46   S    
C148  C165  A    
C57   C133  S    
O22   Zn7   S    
C45   C47   T    
C34   C143  A    
O26   Zn6   S    
C69   H26   S    
O46   Zn11  S    
C65   C99   A    
C33   O32   A    
C88   H47   S    
C74   H31   S    
C71   H28   S    
C20   C137  S    
O36   Zn15  S    
C42   C156  A    
C43   C44   T    
C46   C77   A    
C152  C170  A    
C13   C63   A    
C150  C168  A    
C3    C164  A    
C72   C106  A    
C53   C89   A    
C18   C130  S    
C78   C113  A    
C26   C123  S    
C105  H63   S    
C37   C45   S    
C158  Cl9   S    
C106  C130  A    
C30   C127  S    
C55   C111  A    
C72   C166  A    
O3    Zn6   S    
O43   Zn13  S    
C97   H55   S    
C98   H57   S    
C162  C175  A    
C22   C135  S    
O49   Zn7   S    
C8    O45   A    
C83   C117  A    
C60   C155  A    
C16   O8    A    
C118  C129  A    
C6    C12   S    
C161  C174  A    
C113  C124  A    
O23   Zn2   S    
C11   O51   A    
C163  Cl14  S    
C61   H18   S    
C117  C128  A    
C119  C126  A    
C167  Cl2   S    
C139  C157  A    
C13   C70   A    
C22   O43   A    
C21   O18   A    
C16   O13   A    
C143  C161  A    
C139  H1    S    
C57   C74   A    
C54   C88   A    
C115  C121  A    
C116  C123  A    
O48   Zn9   S    
C143  H45   S    
C88   C124  A    
C120  C127  A    
C6    C172  A    
O19   Zn7   S    
C82   C89   A    
C4    C170  A    
O6    Zn14  S    
C35   C155  S    
C8    O52   A    
C147  H78   S    
C116  H74   S    
C140  H12   S    
C108  C137  A    
C40   C49   S    
C165  Cl16  S    
O23   Zn6   S    
C85   C119  A    
C140  C158  A    
C141  C159  A    
O5    Zn15  S    
C173  Cl8   S    
C95   C130  A    
O41   Zn15  S    
C22   O19   A    
C19   O44   A    
C52   C79   A    
C157  C174  A    
O51   Zn16  S    
C28   O36   A    
C66   C101  A    
C153  C171  A    
C112  C136  A    
O8    Zn1   S    
C69   C103  A    
C20   O46   A    
C119  H77   S    
C6    C168  A    
C35   C76   A    
C106  H64   S    
C64   H21   S    
O11   Zn13  S    
C110  C135  A    
O34   Zn5   S    
C46   C144  S    
C153  H6    S    
O25   Zn5   S    
O24   Zn8   S    
C109  C138  A    
C102  C137  A    
C56   C122  A    
C3    C9    S    
C33   C124  S    
C157  Cl1   S    
C161  Cl12  S    
C23   O40   A    
C53   C87   A    
O7    Zn9   S    
C42   C151  A    
C2    C73   A    
C96   C131  A    
C75   H32   S    
C159  C176  A    
C27   O39   A    
C40   C153  A    
O29   Zn16  S    
C92   C127  A    
C23   C134  S    
C76   H33   S    
O9    Zn11  S    
C34   C43   S    
C8    C176  S    
C70   H27   S    
C151  C169  A    
C107  H65   S    
C15   O7    A    
C93   C128  A    
C63   C97   A    
C95   H53   S    
C87   C123  A    
C17   O14   A    
C172  Cl7   S    
O50   Zn2   S    
O13   Zn12  S    
C19   O16   A    
O15   Zn3   S    
C152  H5    S    
C66   H24   S    
C150  H3    S    
O30   Zn2   S    
C31   O28   A    
C115  H73   S    
C158  C175  A    
C56   H14   S    
C1    C24   S    
C84   C118  A    
C105  C134  A    
C86   C120  A    
C160  Cl11  S    
C25   C132  S    
C58   C92   A    
C12   O5    A    
C60   C94   A    
C62   C96   A    
C149  C167  A    
O34   Zn11  S    
C37   C141  A    
C46   C66   A    
O16   Zn6   S    
C70   C104  A    
C73   C107  A    
C35   C65   A    
C1    C81   A    
C4    C165  A    
O35   Zn12  S    
C110  H69   S    
C108  H66   S    
C56   C91   A    
O47   Zn1   S    
C68   C69   A    
C39   C148  A    
O1    Zn8   S    
C37   C146  A    
C60   H17   S    
C27   O24   A    
C12   O9    A    
O38   Zn9   S    
C64   C98   A    
O12   Zn13  S    
C24   C64   A    
C17   O47   A    
C18   O48   A    
C101  H59   S    
C29   O37   A    
C96   H54   S    
O34   Zn15  S    
C142  H34   S    
C58   C133  A    
C55   H13   S    
C9    O49   A    
C85   H42   S    
O23   Zn10  S    
C67   H25   S    
C93   H51   S    
C103  C138  A    
C68   C122  S    
C41   C150  A    
C156  C173  A    
O37   Zn14  S    
C29   O26   A    
C32   O29   A    
C86   C133  A    
O52   Zn4   S    
C50   C51   T    
C99   C135  A    
C85   C122  A    
O39   Zn1   S    
C118  H76   S    
O17   Zn5   S    
C48   C49   T    
C77   H35   S    
C81   H38   S    
C71   C105  A    
C78   C100  A    
C103  H61   S    
O12   Zn3   S    
C41   C50   S    
O2    Zn3   S    
O27   Zn3   S    
O23   Zn14  S    
O14   Zn4   S    
C61   C95   A    
O40   Zn14  S    
C18   O15   A    
C55   C90   A    
C168  Cl3   S    
C11   C175  S    
C53   H10   S    
C109  H68   S    
C82   C116  A    
C65   H22   S    
C154  H7    S    
C25   O41   A    
C26   O38   A    
C80   C111  A    
C32   O31   A    
C90   C125  A    
C40   C149  A    
O28   Zn4   S    
C10   O50   A    
C1    C52   A    
C38   C147  A    
C74   C108  A    
C76   C110  A    
C104  C132  A    
O12   Zn7   S    
C162  Cl13  S    
C54   H11   S    
C39   C48   S    
C151  H4    S    
O1    Zn1   S    
C91   C126  A    
C77   C112  A    
C171  Cl6   S    
C15   O11   A    
C80   H37   S    
C14   O10   A    
O44   Zn10  S    
O10   Zn10  S    
C120  H79   S    
C73   H30   S    
C102  H60   S    
C20   O17   A    
C30   O33   A    
C83   C144  A    
C84   C155  A    
C30   O27   A    
C145  C162  A    
C72   H29   S    
C34   C139  A    
C104  H62   S    
C28   C129  S    
O33   Zn13  S    
C94   H52   S    
C5    C16   S    
C92   H50   S    
C7    C14   S    
O4    Zn5   S    
C62   H19   S    
C21   C136  S    
C42   C51   S    
C2    C100  S    
C38   C142  A    
C54   C100  A    
C146  H67   S    
C156  H8    S    
C57   C67   A    
C99   H58   S    
C163  C176  A    
O20   Zn2   S    
O45   Zn8   S    
C78   H36   S    
C11   O4    A    
C75   C109  A    
C94   C129  A    
C9    O2    A    
C107  C131  A    
C23   O20   A    
C114  C125  A    
C39   C152  A    
O1    Zn12  S    
C32   C125  S    
C149  H2    S    
C36   C145  A    
C81   C115  A    
C5    C171  A    
C154  C172  A    
C111  C166  S    
C117  H75   S    
O12   Zn9   S    
C36   C140  A    
C38   C47   S    
C61   C166  A    
O1    Zn4   S    
C80   C114  A    
C59   C144  A    
C170  Cl5   S    
C3    C160  A    
C28   O25   A    
C41   C154  A    
C101  C136  A    
C145  H56   S    
C13   C89   S    
C26   O22   A    
C142  C160  A    
C146  C163  A    
C98   C134  A    
C86   H43   S    
C90   H48   S    
C4    C15   S    
C7    C169  A    
C84   H41   S    
C33   O30   A    
C58   H15   S    
C19   C138  S    
C7    C173  A    
C5    C167  A    
C36   C44   S    
C24   C71   A    
C29   C128  S    
O18   Zn8   S    
C59   C93   A    
C31   C126  S    
C2    C62   A    
C67   C102  A    
C112  H70   S    
