data_mof_unit_40288.cif
_audit_creation_date              2012-12-10T18:52:19-0500
_audit_creation_method            fapswitch 2.2
_symmetry_space_group_name_H-M    P1
_symmetry_Int_Tables_number       1
_space_group_crystal_system       triclinic
_cell_length_a                    15.700784
_cell_length_b                    10.704918
_cell_length_c                    9.927412
_cell_angle_alpha                 90.56845
_cell_angle_beta                  90.622223
_cell_angle_gamma                 92.947252
_cell_volume                      1666.15876033

loop_
_atom_site_label
_atom_site_type_symbol
_atom_type_description
_atom_site_fract_x
_atom_site_fract_y
_atom_site_fract_z
_atom_type_partial_charge
C1    C     C_R   0.501641 0.260240 0.499690 0.812504
C2    C     C_R   0.437847 0.430415 0.068182 0.282748
C3    C     C_R   0.338069 0.499391 0.499322 0.879797
C4    C     C_R   0.661854 0.498338 0.500817 0.878055
C5    C     C_3   0.968615 0.380934 0.549555 -0.217629
C6    C     C_3   0.030772 0.601982 0.452989 -0.207639
C7    C     C_3   0.024043 0.397010 0.421535 -0.210972
C8    C     C_3   0.975463 0.585934 0.580959 -0.218422
C9    C     C_1   0.249086 0.496827 0.497968 -0.150312
C10   C     C_1   0.750612 0.494178 0.503127 -0.217639
C11   C     C_3   0.028769 0.476400 0.625726 0.245111
C12   C     C_R   0.501368 0.739915 0.500510 0.836082
C13   C     C_3   0.970724 0.506574 0.376799 0.263630
C14   C     C_3   0.082751 0.492264 0.499403 0.147192
C15   C     C_3   0.916699 0.490731 0.503098 0.154798
C16   C     C_1   0.173695 0.494391 0.497993 -0.049348
C17   C     C_1   0.825843 0.491684 0.503985 -0.058218
C18   C     C_R   0.521636 0.064310 0.380929 -0.214734
C19   C     C_R   0.490879 0.936416 0.621644 -0.178465
C20   C     C_3   0.936329 0.523774 0.234771 -0.941517
C21   C     C_3   0.063481 0.459211 0.767567 -0.904303
C22   C     C_3   0.675506 0.713041 0.123227 0.148958
C23   C     C_R   0.521170 0.936302 0.381182 -0.184921
C24   C     C_3   0.729070 0.744462 0.248674 -0.882394
C25   C     C_3   0.338754 0.272568 0.859120 0.174504
C26   C     C_3   0.300210 0.224875 0.725650 -0.864029
C27   C     C_3   0.658623 0.688542 0.800712 0.182824
C28   C     C_3   0.719836 0.803276 0.821398 -0.995886
C29   C     C_3   0.372418 0.269394 0.193823 0.187271
C30   C     C_3   0.297491 0.175469 0.166253 -0.983357
C31   C     C_R   0.491066 0.064234 0.621208 -0.206509
C32   C     C_R   0.504568 0.872656 0.501199 -0.024156
C33   C     C_R   0.504722 0.127825 0.500288 -0.004406
C34   C     C_R   0.553896 0.581517 0.077801 0.394412
C35   C     C_R   0.437952 0.432545 0.923167 0.384153
C36   C     C_R   0.552947 0.585358 0.931751 0.267565
H1    H     H_    0.045703 0.320820 0.355549 0.147199
H2    H     H_    0.892440 0.443004 0.206379 0.244529
H3    H     H_    0.901308 0.611051 0.230250 0.243417
H4    H     H_    0.009844 0.451138 0.839372 0.238052
H5    H     H_    0.099675 0.372943 0.771398 0.242775
H6    H     H_    0.106432 0.540890 0.796431 0.254427
H7    H     H_    0.671159 0.801765 0.068270 0.202404
H8    H     H_    0.708236 0.640779 0.064454 0.119536
H9    H     H_    0.745252 0.657479 0.299724 0.263286
H10   H     H_    0.789501 0.795241 0.219882 0.205780
H11   H     H_    0.694054 0.804234 0.318968 0.260267
H12   H     H_    0.953836 0.662151 0.646950 0.145559
H13   H     H_    0.285684 0.267003 0.930877 0.201176
H14   H     H_    0.391123 0.211839 0.889646 0.092199
H15   H     H_    0.347218 0.234164 0.643862 0.257593
H16   H     H_    0.279123 0.124726 0.734606 0.206460
H17   H     H_    0.244185 0.279090 0.698519 0.252517
H18   H     H_    0.642554 0.695373 0.693295 0.212468
H19   H     H_    0.692833 0.601913 0.821556 0.118829
H20   H     H_    0.766490 0.788390 0.903520 0.230563
H21   H     H_    0.757939 0.820100 0.728948 0.232183
H22   H     H_    0.684026 0.888108 0.842121 0.283081
H23   H     H_    0.941522 0.291329 0.590105 0.145773
H24   H     H_    0.367133 0.286561 0.302757 0.207407
H25   H     H_    0.432892 0.224437 0.169375 0.107144
H26   H     H_    0.309312 0.116628 0.076547 0.231256
H27   H     H_    0.290067 0.110327 0.252365 0.235974
H28   H     H_    0.237121 0.224158 0.154072 0.279621
H29   H     H_    0.057787 0.691637 0.412434 0.147277
H30   H     H_    0.535279 0.112975 0.287961 0.145570
H31   H     H_    0.478723 0.887962 0.715366 0.190671
H32   H     H_    0.533567 0.887682 0.287788 0.198045
H33   H     H_    0.479399 0.112607 0.714963 0.158161
H34   H     H_    0.990047 0.530032 0.163011 0.248373
N1    N     N_R   0.499980 0.499970 0.857200 -0.188840
N2    N     N_R   0.500020 0.500030 0.142800 -0.188318
O1    O     O_R   0.499990 0.316750 0.614620 -0.613310
O2    O     O_3   0.365173 0.399389 0.847858 -0.542229
O3    O     O_3   0.582060 0.698075 0.873984 -0.598800
O4    O     O_3   0.362725 0.385259 0.128653 -0.578351
O5    O     O_R   0.500010 0.683250 0.385380 -0.559356
O6    O     O_R   0.500000 0.316780 0.385290 -0.667911
O7    O     O_R   0.500000 0.683220 0.614710 -0.605865
O8    O     O_R   0.376780 0.499970 0.614640 -0.536338
O9    O     O_R   0.623220 0.500030 0.385360 -0.575044
O10   O     O_R   0.376780 0.500000 0.385310 -0.587063
O11   O     O_R   0.623220 0.500000 0.614690 -0.658662
O12   O     O_3   0.592311 0.674487 0.160126 -0.562739
Zn1   Zn    Zn3+2 0.500000 0.499980 0.653120 0.989453
Zn2   Zn    Zn3+2 0.500000 0.500020 0.346880 0.999057

loop_
_geom_bond_atom_site_label_1
_geom_bond_atom_site_label_2
_ccdc_geom_bond_type
C2    C35   A    
C35   O2    S    
C30   H28   S    
C19   C31   A    
C28   H20   S    
C27   H18   S    
C1    C33   S    
C29   O4    S    
C28   H21   S    
C21   H4    S    
C29   C30   S    
C24   H9    S    
C9    C16   T    
C5    C11   S    
C11   C14   S    
C27   H19   S    
C19   C32   A    
C10   C17   T    
C12   O7    A    
C25   O2    S    
C25   H14   S    
N1    Zn1   S    
C6    H29   S    
C22   H8    S    
C4    O9    A    
C31   C33   A    
C19   H31   S    
C14   C16   S    
O9    Zn2   S    
C36   N1    A    
O6    Zn2   S    
C35   N1    A    
C30   H27   S    
C12   C32   S    
C1    O6    A    
C20   H34   S    
C34   O12   S    
C2    N2    A    
C3    O8    A    
C7    C14   S    
C29   H25   S    
C5    H23   S    
C18   C23   A    
C5    C7    S    
C20   H3    S    
C6    C8    S    
C25   C26   S    
O10   Zn2   S    
C11   C21   S    
C22   O12   S    
C23   H32   S    
C8    H12   S    
O8    Zn1   S    
C3    C9    S    
C36   O3    S    
C26   H16   S    
C6    C14   S    
C20   H2    S    
C22   H7    S    
C29   H24   S    
C31   H33   S    
C12   O5    A    
C3    O10   A    
C7    H1    S    
O1    Zn1   S    
C21   H5    S    
O11   Zn1   S    
O5    Zn2   S    
C8    C15   S    
C13   C15   S    
C22   C24   S    
C4    C10   S    
C26   H17   S    
C34   N2    A    
O7    Zn1   S    
C2    O4    S    
C15   C17   S    
C13   C20   S    
C24   H11   S    
C27   O3    S    
N2    Zn2   S    
C28   H22   S    
C18   H30   S    
C1    O1    A    
C23   C32   A    
C30   H26   S    
C24   H10   S    
C26   H15   S    
C6    C13   S    
C4    O11   A    
C8    C11   S    
C34   C36   A    
C18   C33   A    
C25   H13   S    
C5    C15   S    
C21   H6    S    
C7    C13   S    
C27   C28   S    
