data_mof_unit_54470.cif
_audit_creation_date              2013-03-05T15:51:15-0500
_audit_creation_method            fapswitch 2.2
_symmetry_space_group_name_H-M    P1
_symmetry_Int_Tables_number       1
_space_group_crystal_system       triclinic
_cell_length_a                    9.642264
_cell_length_b                    10.790323
_cell_length_c                    13.873781
_cell_angle_alpha                 92.933001
_cell_angle_beta                  84.988465
_cell_angle_gamma                 90.093755
_cell_volume                      1436.06410754

loop_
_atom_site_label
_atom_site_type_symbol
_atom_site_description
_atom_site_fract_x
_atom_site_fract_y
_atom_site_fract_z
_atom_type_partial_charge
O1    O     O_R   0.381190 0.680360 0.500010 -0.584679
O2    O     O_R   0.618760 0.680340 0.500000 -0.507593
C1    C     C_R   0.500049 0.736870 0.500864 0.851337
O3    O     O_R   0.364420 0.499990 0.637850 -0.592872
O4    O     O_R   0.601990 0.499960 0.637840 -0.530934
C2    C     C_R   0.477502 0.500760 0.682755 0.780266
Cu1   Cu    Cu3+1 0.359340 0.500010 0.500010 0.975809
Cu2   Cu    Cu3+1 0.640660 0.499990 0.499990 1.039463
O5    O     O_R   0.381240 0.319660 0.500000 -0.591246
O6    O     O_R   0.618810 0.319640 0.499990 -0.602182
O7    O     O_R   0.398010 0.500040 0.362160 -0.585619
O8    O     O_R   0.635580 0.500010 0.362150 -0.584343
C3    C     C_R   0.499965 0.262870 0.499481 0.842324
C4    C     C_R   0.522483 0.500713 0.317311 0.900133
C5    C     C_1   0.535750 0.500790 0.214130 -0.026579
C6    C     C_2   0.557248 0.501280 0.023567 -0.129729
C7    C     C_2   0.442493 0.496808 0.976411 -0.146465
C8    C     C_1   0.453367 0.498343 0.872762 0.027538
C9    C     C_1   0.546416 0.500904 0.127249 0.059166
C10   C     C_1   0.464156 0.499659 0.785918 -0.119442
H1    H     H_    0.339951 0.492322 0.015363 0.172747
H2    H     H_    0.659779 0.505834 0.984615 0.178655
C11   C     C_R   0.423811 0.883193 0.676665 -0.101985
H3    H     H_    0.424689 0.783337 0.680839 0.119538
C12   C     C_R   0.385065 0.954103 0.761488 -0.097400
H4    H     H_    0.356794 0.908951 0.828277 0.155858
C13   C     C_R   0.382996 0.082857 0.760451 -0.120202
H5    H     H_    0.353122 0.137819 0.826451 0.149371
C14   C     C_R   0.419850 0.141243 0.674618 -0.131756
H6    H     H_    0.417312 0.241436 0.677556 0.123263
C15   C     C_R   0.459436 0.071180 0.587447 0.084510
C16   C     C_R   0.461112 0.940670 0.588685 0.058872
C17   C     C_R   0.500697 0.870706 0.502230 -0.196363
C18   C     C_R   0.538880 0.927565 0.415181 0.292547
C19   C     C_R   0.540150 0.057440 0.413177 -0.131008
C20   C     C_R   0.499143 0.128544 0.499777 -0.203797
C21   C     C_R   0.872429 0.338116 0.369247 -0.125049
H7    H     H_    0.763810 0.328906 0.365292 0.215699
C22   C     C_R   0.951482 0.262889 0.301746 -0.226323
H8    H     H_    0.899524 0.205006 0.250162 0.201256
C23   C     C_R   0.095355 0.263786 0.298773 -0.039297
C24   C     C_R   0.159363 0.339106 0.366871 -0.159176
H9    H     H_    0.269051 0.329484 0.364235 0.236346
C25   C     C_R   0.082465 0.420485 0.435161 0.172958
C26   C     C_R   0.933301 0.420327 0.435657 0.143305
N1    N     N_R   0.852210 0.498790 0.499090 -0.256485
C27   C     C_R   0.919453 0.576566 0.561492 0.430420
H10   H     H_    0.116553 0.638072 0.611371 0.164857
C28   C     C_R   0.067014 0.575820 0.561271 -0.088966
N2    N     N_R   0.148080 0.498710 0.499060 -0.219583
C29   C     C_2   0.178831 0.187627 0.222838 0.876144
O9    O     O_2   0.126567 0.098084 0.182216 -0.554699
O10   O     O_R   0.316331 0.220172 0.195391 -0.743748
H11   H     H_    0.362000 0.161896 0.142310 0.350713
N3    N     N_R   0.568048 0.852025 0.327501 0.132655
O11   O     O_R   0.482253 0.851189 0.260116 -0.334705
O12   O     O_R   0.681384 0.785815 0.314273 -0.312113
C30   C     C_2   0.584676 0.116798 0.320342 0.868951
O13   O     O_2   0.538169 0.217789 0.303480 -0.638553
O14   O     O_R   0.679635 0.056782 0.251488 -0.682890
H12   H     H_    0.696777 0.104098 0.190302 0.333237
N4    N     N_R   0.841740 0.660528 0.628223 0.133423
O15   O     O_R   0.820155 0.632516 0.718349 -0.363285
O16   O     O_R   0.830868 0.775838 0.606765 -0.342295

loop_
_geom_bond_atom_site_label_1
_geom_bond_atom_site_label_2
_geom_bond_distance
_ccdc_geom_bond_type
O4    Cu2   1.916290 S    
Cu1   O7    1.916290 S    
C11   H3    1.082082 S    
C14   H6    1.080032 S    
C13   C14   1.394048 A    
C2    C10   1.426464 S    
C23   C24   1.398470 A    
C15   C20   1.415641 A    
N4    O16   1.300584 A    
C19   C20   1.418505 A    
Cu2   O8    1.917273 S    
C16   C17   1.408051 A    
C27   N4    1.426403 S    
C11   C12   1.393524 A    
O2    C1    1.296757 A    
C12   H4    1.082559 S    
C18   N3    1.436228 S    
C27   C28   1.422593 A    
O1    Cu1   1.957063 S    
O10   H11   1.014159 S    
C11   C16   1.415602 A    
C5    C9    1.200826 T    
N4    O15   1.300447 A    
C24   C25   1.418706 A    
O3    Cu1   1.917273 S    
Cu2   O6    1.957063 S    
H10   C28   1.082438 S    
C14   C15   1.416547 A    
C21   H7    1.057801 S    
O8    C4    1.302037 A    
C7    C8    1.433595 S    
C8    C10   1.201057 T    
N3    O12   1.300937 A    
C6    C9    1.433339 S    
O4    C2    1.303077 A    
O7    C4    1.302944 A    
Cu2   N1    2.038826 S    
N3    O11   1.301021 A    
O3    C2    1.302003 A    
C12   C13   1.390297 A    
C24   H9    1.060160 S    
C1    C17   1.443290 S    
C29   O10   1.396449 S    
C21   C26   1.410476 A    
C29   O9    1.223689 D    
Cu1   O5    1.957792 S    
C19   C30   1.496781 S    
Cu1   Cu2   2.712538 S    
C17   C18   1.402821 A    
C25   C26   1.437691 A    
C22   C23   1.384300 A    
C3    C20   1.449652 S    
C21   C22   1.384362 A    
C18   C19   1.403106 A    
N1    C27   1.377006 A    
C25   N2    1.385040 A    
C22   H8    1.081270 S    
C28   N2    1.363448 A    
O5    C3    1.298638 A    
C4    C5    1.426079 S    
C6    C7    1.333322 D    
C6    H2    1.086767 S    
O1    C1    1.297987 A    
C30   O13   1.220381 D    
C26   N1    1.381433 A    
C30   O14   1.398594 S    
C23   C29   1.482723 S    
O2    Cu2   1.957793 S    
C15   C16   1.409366 A    
Cu1   N2    2.038240 S    
O14   H12   1.013980 S    
C13   H5    1.082612 S    
O6    C3    1.298895 A    
C7    H1    1.086812 S    
