data_mof_unit_23758.cif
_audit_creation_date              2012-12-10T17:17:54-0500
_audit_creation_method            fapswitch 2.2
_symmetry_space_group_name_H-M    P1
_symmetry_Int_Tables_number       1
_space_group_crystal_system       triclinic
_cell_length_a                    14.753572
_cell_length_b                    16.279525
_cell_length_c                    9.710196
_cell_angle_alpha                 90.23018
_cell_angle_beta                  90.578966
_cell_angle_gamma                 89.617252
_cell_volume                      2332.01668882

loop_
_atom_site_label
_atom_site_type_symbol
_atom_type_description
_atom_site_fract_x
_atom_site_fract_y
_atom_site_fract_z
_atom_type_partial_charge
C1    C     C_R   0.383554 0.879201 0.499702 0.775611
C2    C     C_R   0.389463 0.124549 0.500529 0.779861
C3    C     C_R   0.883553 0.379202 0.499702 0.775610
C4    C     C_R   0.889463 0.624548 0.500529 0.779862
C5    C     C_R   0.302915 0.235934 0.380723 -0.215577
C6    C     C_R   0.259780 0.797630 0.389285 -0.217739
C7    C     C_R   0.802913 0.735933 0.380722 -0.215575
C8    C     C_R   0.759778 0.297632 0.389286 -0.217741
C9    C     C_R   0.734850 0.795620 0.382613 -0.224490
C10   C     C_R   0.693202 0.237632 0.392228 -0.215409
C11   C     C_R   0.234852 0.295621 0.382614 -0.224491
C12   C     C_R   0.193204 0.737630 0.392228 -0.215409
C13   C     C_R   0.691636 0.816878 0.505924 -0.089271
C14   C     C_R   0.678458 0.191888 0.511324 -0.087940
C15   C     C_R   0.191636 0.316878 0.505924 -0.089270
C16   C     C_R   0.178459 0.691887 0.511324 -0.087940
C17   C     C_R   0.665050 0.988084 0.144289 -0.125646
C18   C     C_R   0.165050 0.488083 0.144289 -0.125644
C19   C     C_R   0.745333 0.975390 0.073132 -0.212976
C20   C     C_R   0.245333 0.475389 0.073132 -0.212972
C21   C     C_R   0.745885 0.980639 0.931063 -0.168727
C22   C     C_R   0.245885 0.480637 0.931062 -0.168724
C23   C     C_R   0.665241 0.993051 0.858944 -0.111421
C24   C     C_R   0.165242 0.493051 0.858944 -0.111421
C25   C     C_R   0.581147 0.996901 0.926584 0.089232
C26   C     C_R   0.081147 0.496901 0.926584 0.089232
C27   C     C_R   0.581114 0.996484 0.075185 0.114420
C28   C     C_R   0.081114 0.496484 0.075185 0.114417
C29   C     C_R   0.421391 0.999446 0.072429 0.325357
C30   C     C_R   0.921391 0.499446 0.072429 0.325355
C31   C     C_R   0.615793 0.121115 0.502415 0.760857
C32   C     C_R   0.619163 0.880900 0.501270 0.765341
C33   C     C_R   0.115794 0.621114 0.502415 0.760857
C34   C     C_R   0.119163 0.380900 0.501270 0.765340
C35   C     C_R   0.421197 0.003477 0.925005 0.339743
C36   C     C_R   0.921197 0.503477 0.925005 0.339742
C37   C     C_R   0.363020 0.234255 0.750181 -0.242366
C38   C     C_R   0.366174 0.766374 0.734166 -0.245119
C39   C     C_R   0.863021 0.734255 0.750180 -0.242366
C40   C     C_R   0.866174 0.266373 0.734163 -0.245124
C41   C     C_R   0.328105 0.259885 0.878058 0.277286
C42   C     C_R   0.335473 0.752626 0.866372 0.311640
C43   C     C_R   0.828107 0.759885 0.878058 0.277285
C44   C     C_R   0.835474 0.252624 0.866370 0.311638
C45   C     C_R   0.736203 0.783000 0.883242 0.248251
C46   C     C_R   0.752806 0.212447 0.885829 0.232062
C47   C     C_R   0.236201 0.283000 0.883241 0.248252
C48   C     C_R   0.252806 0.712446 0.885830 0.232058
C49   C     C_R   0.687351 0.795729 0.761054 -0.300071
C50   C     C_R   0.700036 0.192253 0.769628 -0.304466
C51   C     C_R   0.187350 0.295728 0.761054 -0.300074
C52   C     C_R   0.200037 0.692252 0.769628 -0.304467
C53   C     C_R   0.728045 0.784830 0.631809 0.063347
C54   C     C_R   0.727533 0.213175 0.634121 0.074331
C55   C     C_R   0.228045 0.284829 0.631808 0.063347
C56   C     C_R   0.227533 0.713174 0.634122 0.074331
C57   C     C_R   0.309567 0.239197 0.628846 0.040518
C58   C     C_R   0.306251 0.761575 0.621443 0.041119
C59   C     C_R   0.809568 0.739197 0.628846 0.040517
C60   C     C_R   0.806251 0.261575 0.621441 0.041119
C61   C     C_R   0.335543 0.201820 0.503508 -0.094493
C62   C     C_R   0.318974 0.809278 0.501243 -0.088003
C63   C     C_R   0.835543 0.701820 0.503507 -0.094494
C64   C     C_R   0.818973 0.309279 0.501242 -0.088004
Cu1   Cu    Cu3+1 0.499990 0.000000 0.640660 0.911386
Cu2   Cu    Cu3+1 0.999990 0.500000 0.640660 0.911388
Cu3   Cu    Cu3+1 0.500010 1.000000 0.359340 0.922032
Cu4   Cu    Cu3+1 0.000010 0.500000 0.359340 0.922034
H1    H     H_    0.331302 0.217416 0.283478 0.169049
H2    H     H_    0.264116 0.834700 0.298378 0.151964
H3    H     H_    0.831299 0.717414 0.283477 0.169050
H4    H     H_    0.764113 0.334703 0.298379 0.151965
H5    H     H_    0.809230 0.975294 0.876316 0.142365
H6    H     H_    0.309230 0.475293 0.876316 0.142364
H7    H     H_    0.671643 0.998451 0.750197 0.202569
H8    H     H_    0.171643 0.498451 0.750197 0.202569
H9    H     H_    0.432243 0.212853 0.743689 0.183323
H10   H     H_    0.434105 0.789320 0.723262 0.179377
H11   H     H_    0.932244 0.712854 0.743688 0.183323
H12   H     H_    0.934106 0.289319 0.723259 0.179378
H13   H     H_    0.616561 0.810450 0.770346 0.178561
H14   H     H_    0.633880 0.168740 0.791090 0.183760
H15   H     H_    0.116559 0.310449 0.770345 0.178563
H16   H     H_    0.133881 0.668738 0.791091 0.183761
H17   H     H_    0.715017 0.824337 0.286820 0.197884
H18   H     H_    0.651505 0.228186 0.301173 0.178426
H19   H     H_    0.215020 0.324340 0.286821 0.197883
H20   H     H_    0.151508 0.728184 0.301172 0.178427
H21   H     H_    0.672309 0.993335 0.253182 0.195571
H22   H     H_    0.172309 0.493335 0.253182 0.195569
H23   H     H_    0.808444 0.966629 0.129222 0.141002
H24   H     H_    0.308444 0.466627 0.129222 0.141000
N1    N     N_R   0.501200 1.000000 0.147910 -0.246905
N2    N     N_R   0.001200 0.500000 0.147910 -0.246904
N3    N     N_R   0.501270 1.000000 0.852040 -0.263429
N4    N     N_R   0.001270 0.500000 0.852040 -0.263427
O1    O     O_R   0.409820 0.909830 0.618810 -0.602203
O2    O     O_R   0.409820 0.090170 0.618810 -0.590179
O3    O     O_R   0.909820 0.409830 0.618810 -0.602203
O4    O     O_R   0.909820 0.590170 0.618810 -0.590177
O5    O     O_R   0.409840 0.909830 0.381240 -0.582231
O6    O     O_R   0.409840 0.090170 0.381240 -0.571974
O7    O     O_R   0.909840 0.409830 0.381240 -0.582229
O8    O     O_R   0.909840 0.590170 0.381240 -0.571974
O9    O     O_R   0.590170 0.090170 0.618760 -0.616195
O10   O     O_R   0.590170 0.909830 0.618760 -0.605954
O11   O     O_R   0.090170 0.590170 0.618760 -0.616196
O12   O     O_R   0.090170 0.409830 0.618760 -0.605953
O13   O     O_R   0.590190 0.090180 0.381190 -0.598063
O14   O     O_R   0.590190 0.909820 0.381190 -0.596843
O15   O     O_R   0.090190 0.590180 0.381190 -0.598063
O16   O     O_R   0.090190 0.409820 0.381190 -0.596842
N5    N     N_2   0.335308 0.002202 0.854729 -0.396879
H25   H     H_    0.332411 0.986798 0.753846 0.313249
C65   C     C_3   0.269638 0.065673 0.884399 -0.690233
H26   H     H_    0.206720 0.037219 0.922543 0.231719
H27   H     H_    0.251455 0.099658 0.789070 0.227012
H28   H     H_    0.296781 0.109648 0.960282 0.254596
N6    N     N_2   0.835308 0.502201 0.854730 -0.396882
H29   H     H_    0.832410 0.486795 0.753848 0.313247
C66   C     C_3   0.769639 0.565674 0.884398 -0.690231
H30   H     H_    0.706720 0.537221 0.922542 0.231718
H31   H     H_    0.751457 0.599658 0.789068 0.227014
H32   H     H_    0.796782 0.609649 0.960281 0.254597
N7    N     N_2   0.380491 0.257196 0.003039 -0.437127
H33   H     H_    0.363279 0.300856 0.075640 0.268742
C67   C     C_3   0.476144 0.237232 0.999385 -0.746219
H34   H     H_    0.504411 0.237676 0.105841 0.233381
H35   H     H_    0.512938 0.283203 0.937279 0.234206
H36   H     H_    0.486468 0.174593 0.956648 0.229751
N8    N     N_2   0.376157 0.797663 0.974834 -0.418451
H37   H     H_    0.333021 0.811525 0.053291 0.264267
C68   C     C_3   0.464944 0.771041 0.017699 -0.757167
H38   H     H_    0.490762 0.813555 0.098464 0.246775
H39   H     H_    0.511036 0.771799 0.928912 0.239005
H40   H     H_    0.462942 0.707906 0.059901 0.229472
N9    N     N_2   0.880492 0.757196 0.003039 -0.437127
H41   H     H_    0.863281 0.800854 0.075640 0.268742
C69   C     C_3   0.976145 0.737231 0.999384 -0.746217
H42   H     H_    0.004413 0.737675 0.105840 0.233381
H43   H     H_    0.012939 0.783203 0.937278 0.234206
H44   H     H_    0.986469 0.674592 0.956645 0.229751
N10   N     N_2   0.876162 0.297660 0.974832 -0.418453
H45   H     H_    0.833027 0.311525 0.053289 0.264267
C70   C     C_3   0.964947 0.271033 0.017697 -0.757155
H46   H     H_    0.962939 0.207902 0.059918 0.229468
H47   H     H_    0.990772 0.313552 0.098449 0.246774
H48   H     H_    0.011037 0.271775 0.928905 0.239003
N11   N     N_2   0.691982 0.794194 0.011297 -0.434013
H49   H     H_    0.639706 0.836161 0.007760 0.271772
C71   C     C_3   0.665771 0.718617 0.076396 -0.784199
H50   H     H_    0.621547 0.731476 0.165702 0.242512
H51   H     H_    0.726358 0.687774 0.115769 0.247826
H52   H     H_    0.629524 0.677652 0.002778 0.236621
N12   N     N_2   0.720426 0.195164 0.021215 -0.443840
H53   H     H_    0.657020 0.169090 0.024451 0.255412
C72   C     C_3   0.784584 0.158039 0.117498 -0.676829
H54   H     H_    0.748295 0.123146 0.196793 0.229319
H55   H     H_    0.822280 0.204773 0.176577 0.236075
H56   H     H_    0.833503 0.117338 0.063641 0.231722
N13   N     N_2   0.191981 0.294195 0.011296 -0.434012
H57   H     H_    0.139702 0.336159 0.007757 0.271772
C73   C     C_3   0.165775 0.218617 0.076401 -0.784198
H58   H     H_    0.121551 0.231476 0.165706 0.242513
H59   H     H_    0.226364 0.187778 0.115773 0.247826
H60   H     H_    0.129529 0.177649 0.002786 0.236619
N14   N     N_2   0.220427 0.695160 0.021215 -0.443840
H61   H     H_    0.157022 0.669085 0.024452 0.255413
C74   C     C_3   0.284587 0.658037 0.117497 -0.676829
H62   H     H_    0.248300 0.623144 0.196794 0.229317
H63   H     H_    0.322284 0.704771 0.176574 0.236077
H64   H     H_    0.333506 0.617336 0.063638 0.231720
N15   N     N_2   0.339893 0.972446 0.134064 -0.401792
H65   H     H_    0.342335 0.914847 0.173106 0.257964
C75   C     C_3   0.279924 0.028555 0.203835 -0.613197
H66   H     H_    0.211130 0.024996 0.157557 0.202671
H67   H     H_    0.305471 0.091401 0.195866 0.229517
H68   H     H_    0.273600 0.011164 0.313711 0.227804
N16   N     N_2   0.839893 0.472445 0.134064 -0.401793
H69   H     H_    0.842335 0.414846 0.173105 0.257962
C76   C     C_3   0.779924 0.528555 0.203835 -0.613197
H70   H     H_    0.711130 0.524995 0.157556 0.202671
H71   H     H_    0.805471 0.591401 0.195865 0.229516
H72   H     H_    0.773600 0.511164 0.313711 0.227804

loop_
_geom_bond_atom_site_label_1
_geom_bond_atom_site_label_2
_ccdc_geom_bond_type
C58   C62   A    
Cu2   Cu4   S    
C72   H54   S    
C40   C60   A    
C51   H15   S    
N12   C72   S    
C34   O16   A    
C74   H62   S    
C13   C32   S    
C73   H58   S    
C33   O11   A    
Cu4   O7    S    
Cu2   O11   S    
C1    C62   S    
C67   H35   S    
N13   H57   S    
C53   C59   A    
N14   C74   S    
C54   C60   A    
C76   H70   S    
C46   N12   S    
C20   H24   S    
C4    C63   S    
C50   H14   S    
C50   C54   A    
C32   O14   A    
C73   H59   S    
C24   C26   A    
Cu1   O2    S    
C5    C11   A    
N11   C71   S    
C7    H3    S    
C69   H44   S    
C2    O6    A    
Cu2   O4    S    
C65   H26   S    
C21   H5    S    
C28   N2    A    
Cu4   O16   S    
C71   H52   S    
C49   H13   S    
C52   H16   S    
C36   N6    S    
C9    C13   A    
C66   H32   S    
C5    H1    S    
C70   H47   S    
C38   C58   A    
C11   C15   A    
Cu3   O13   S    
N10   C70   S    
C12   C16   A    
C11   H19   S    
Cu1   Cu3   S    
C68   H40   S    
C30   N16   S    
C40   H12   S    
C43   N9    S    
C42   N8    S    
C33   O15   A    
C14   C31   S    
C15   C34   S    
C51   C55   A    
C2    C61   S    
C9    H17   S    
C76   H71   S    
C72   H55   S    
C15   C55   A    
C32   O10   A    
C71   H51   S    
C37   C41   A    
C74   H63   S    
Cu1   O9    S    
N13   C73   S    
C44   C46   A    
C70   H46   S    
C75   H68   S    
C13   C53   A    
N15   C75   S    
C21   C23   A    
C26   N4    A    
C69   H42   S    
C8    H4    S    
C12   H20   S    
Cu1   N3    S    
C5    C61   A    
C17   C27   A    
C41   N7    S    
C73   H60   S    
C18   C28   A    
C45   N11   S    
C75   H67   S    
C10   C14   A    
C1    O1    A    
N14   H61   S    
C29   N1    A    
C24   H8    S    
C39   C43   A    
C38   H10   S    
C65   H27   S    
N15   H65   S    
C37   H9    S    
Cu4   N2    S    
Cu4   O15   S    
C18   H22   S    
Cu2   O3    S    
C16   C56   A    
C3    O3    A    
C16   C33   S    
N9    C69   S    
C36   N4    A    
Cu3   O14   S    
C75   H66   S    
C45   C49   A    
C71   H50   S    
C65   H28   S    
C39   C59   A    
C41   C47   A    
C17   H21   S    
C42   C48   A    
C43   C45   A    
C7    C63   A    
C66   H30   S    
N6    C66   S    
C8    C64   A    
C14   C54   A    
C20   C22   A    
C25   N3    A    
C72   H56   S    
C55   C57   A    
N7    H33   S    
C74   H64   S    
C22   C24   A    
C59   C63   A    
C27   N1    A    
C22   H6    S    
C40   C44   A    
C67   H34   S    
C1    O5    A    
Cu1   O10   S    
C70   H48   S    
C23   H7    S    
Cu3   O5    S    
Cu2   N4    S    
N5    H25   S    
C76   H72   S    
C3    O7    A    
C6    H2    S    
C46   C50   A    
C10   H18   S    
C29   N15   S    
C19   C21   A    
C31   O13   A    
Cu4   O8    S    
Cu2   O12   S    
N8    C68   S    
C47   C51   A    
N6    H29   S    
C57   C61   A    
C35   N3    A    
C25   C27   A    
N9    H41   S    
C29   C35   A    
C26   C28   A    
C30   C36   A    
C60   C64   A    
C34   O12   A    
C6    C62   A    
C4    O4    A    
C67   H36   S    
Cu1   O1    S    
C30   N2    A    
N11   H49   S    
C6    C12   A    
C69   H43   S    
C68   H38   S    
C48   N14   S    
C52   C56   A    
C44   N10   S    
C49   C53   A    
C4    O8    A    
Cu3   N1    S    
C17   C19   A    
C56   C58   A    
C35   N5    S    
C18   C20   A    
C23   C25   A    
C3    C64   S    
N8    H37   S    
C66   H31   S    
C19   H23   S    
N16   H69   S    
C47   N13   S    
C38   C42   A    
C7    C9    A    
C48   C52   A    
C2    O2    A    
C8    C10   A    
C31   O9    A    
N12   H53   S    
N7    C67   S    
C68   H39   S    
N5    C65   S    
C37   C57   A    
N10   H45   S    
Cu3   O6    S    
C39   H11   S    
N16   C76   S    
