data_mof_unit_51617.cif
_audit_creation_date              2012-12-10T16:52:07-0500
_audit_creation_method            fapswitch 2.2
_symmetry_space_group_name_H-M    P1
_symmetry_Int_Tables_number       1
_space_group_crystal_system       triclinic
_cell_length_a                    7.851326
_cell_length_b                    8.571229
_cell_length_c                    14.848031
_cell_angle_alpha                 91.496557
_cell_angle_beta                  85.236181
_cell_angle_gamma                 93.455272
_cell_volume                      993.720102702

loop_
_atom_site_label
_atom_site_type_symbol
_atom_type_description
_atom_site_fract_x
_atom_site_fract_y
_atom_site_fract_z
_atom_type_partial_charge
C1    C     C_R   0.545338 0.794334 0.497724 0.945522
C2    C     C_R   0.576197 0.627027 0.811173 -0.179321
C3    C     C_R   0.496849 0.501645 0.232320 -0.075189
C4    C     C_R   0.503161 0.498350 0.767679 -0.075195
C5    C     C_R   0.572983 0.628513 0.185864 -0.204001
C6    C     C_R   0.427126 0.371449 0.814129 -0.204049
C7    C     C_R   0.572581 0.630762 0.092488 -0.000822
C8    C     C_R   0.427519 0.369209 0.907505 -0.000863
C9    C     C_R   0.501266 0.498806 0.046690 -0.019887
C10   C     C_R   0.498814 0.501173 0.953301 -0.019876
C11   C     C_R   0.435077 0.363853 0.094740 0.007336
C12   C     C_R   0.454662 0.205666 0.502276 0.945525
C13   C     C_R   0.564964 0.636144 0.905256 0.007332
C14   C     C_R   0.638513 0.764442 0.045377 0.455031
C15   C     C_R   0.361575 0.235536 0.954618 0.455058
C16   C     C_3   0.883692 0.872947 0.095578 -0.234898
C17   C     C_3   0.116397 0.127076 0.904403 -0.234963
C18   C     C_2   0.645699 0.930559 0.907885 0.972204
C19   C     C_2   0.354297 0.069449 0.092130 0.972228
C20   C     C_3   0.952298 0.308021 0.350926 -0.130113
C21   C     C_3   0.047701 0.691978 0.649075 -0.130115
C22   C     C_R   0.621093 0.773899 0.952104 -0.172036
C23   C     C_R   0.378955 0.226098 0.047896 -0.172029
C24   C     C_2   0.569107 0.957888 0.496329 -0.355371
C25   C     C_2   0.430892 0.042112 0.503671 -0.355367
C26   C     C_R   0.501066 0.499001 0.672510 0.858346
C27   C     C_R   0.498934 0.500998 0.327489 0.858371
C28   C     C_R   0.423770 0.372993 0.188825 -0.179331
H1    H     H_    0.357294 0.282713 0.229987 0.166494
H2    H     H_    0.092536 0.229554 0.863758 0.134294
H3    H     H_    0.051246 0.138719 0.973554 0.192312
H4    H     H_    0.058964 0.021301 0.871369 0.200887
H5    H     H_    0.735472 0.156117 0.914170 0.324394
H6    H     H_    0.264499 0.843893 0.085855 0.324402
H7    H     H_    0.947364 0.415235 0.310783 0.152375
H8    H     H_    0.824090 0.248564 0.364691 0.184861
H9    H     H_    0.031077 0.225998 0.308944 0.129772
H10   H     H_    0.175909 0.751436 0.635310 0.184852
H11   H     H_    0.052635 0.584762 0.689217 0.152379
H12   H     H_    0.642597 0.717333 0.770007 0.166509
H13   H     H_    0.968921 0.773999 0.691057 0.129771
H14   H     H_    0.626536 0.726989 0.223696 0.186445
H15   H     H_    0.373630 0.272950 0.776297 0.186460
H16   H     H_    0.699851 0.008456 0.489228 0.193110
H17   H     H_    0.300149 0.991544 0.510772 0.193110
H18   H     H_    0.948785 0.861366 0.026425 0.192372
H19   H     H_    0.907638 0.770456 0.136196 0.134235
H20   H     H_    0.941129 0.978722 0.128631 0.200842
N1    N     N_2   0.950330 0.457950 0.475660 0.190016
N2    N     N_2   0.049670 0.542050 0.524340 0.190017
O1    O     O_R   0.389250 0.738570 0.505970 -0.632769
O2    O     O_3   0.292929 0.108875 0.907441 -0.548038
O3    O     O_2   0.579640 0.953736 0.838121 -0.617216
O4    O     O_R   0.733338 0.055930 0.949219 -0.801735
O5    O     O_2   0.420315 0.046286 0.161905 -0.617230
O6    O     O_R   0.266684 0.944070 0.050798 -0.801744
O7    O     O_3   0.031074 0.341155 0.431081 -0.528079
O8    O     O_3   0.968926 0.658845 0.568919 -0.528079
O9    O     O_R   0.610750 0.261430 0.494030 -0.632772
O10   O     O_R   0.678390 0.711620 0.490370 -0.576529
O11   O     O_R   0.321610 0.288380 0.509630 -0.576528
O12   O     O_R   0.355420 0.513510 0.639950 -0.658566
O13   O     O_R   0.644580 0.486490 0.360050 -0.658568
O14   O     O_R   0.644560 0.486560 0.624350 -0.588620
O15   O     O_R   0.355440 0.513440 0.375650 -0.588621
O16   O     O_3   0.707130 0.891107 0.092561 -0.548040
Zn1   Zn    Zn3+2 0.306940 0.517990 0.510420 1.029848
Zn2   Zn    Zn3+2 0.693060 0.482010 0.489580 1.029847

loop_
_geom_bond_atom_site_label_1
_geom_bond_atom_site_label_2
_ccdc_geom_bond_type
C19   O6    S    
C2    C4    A    
C5    H14   S    
C8    C10   A    
C2    H12   S    
H6    O6    S    
C27   O15   A    
N1    Zn2   S    
C20   H9    S    
O9    Zn2   S    
C9    C11   A    
C9    C10   A    
O11   Zn1   S    
C19   C23   S    
C21   H10   S    
C21   H11   S    
C12   C25   S    
C14   C22   A    
C15   C23   A    
C26   O12   A    
C21   O8    S    
O1    Zn1   S    
C15   O2    S    
C17   H2    S    
C1    O1    A    
C16   H20   S    
C27   O13   A    
O12   Zn1   S    
C21   H13   S    
C11   C28   A    
C17   O2    S    
C3    C27   S    
C3    C28   A    
C17   H3    S    
C13   C22   A    
C6    C8    A    
C8    C15   A    
C5    C7    A    
C6    H15   S    
O14   Zn2   S    
C14   O16   S    
C24   H16   S    
C4    C26   S    
C16   O16   S    
C17   H4    S    
C18   O4    S    
C16   H18   S    
N2    O8    S    
C25   H17   S    
N1    O7    S    
C24   C25   D    
O10   Zn2   S    
C1    C24   S    
C4    C6    A    
N1    N2    D    
N2    Zn1   S    
C1    O10   A    
C11   C23   A    
H5    O4    S    
C7    C9    A    
C2    C13   A    
C16   H19   S    
O13   Zn2   S    
C19   O5    D    
C26   O14   A    
C12   O11   A    
C18   O3    D    
C3    C5    A    
C20   O7    S    
C18   C22   S    
C12   O9    A    
C20   H7    S    
C7    C14   A    
C28   H1    S    
O15   Zn1   S    
C10   C13   A    
C20   H8    S    
