data_mof_unit_5231.cif
_audit_creation_date              2012-12-10T18:45:10-0500
_audit_creation_method            fapswitch 2.2
_symmetry_space_group_name_H-M    P1
_symmetry_Int_Tables_number       1
_space_group_crystal_system       triclinic
_cell_length_a                    10.86874
_cell_length_b                    10.049708
_cell_length_c                    10.834299
_cell_angle_alpha                 89.84928
_cell_angle_beta                  90.922701
_cell_angle_gamma                 90.117905
_cell_volume                      1183.24521434

loop_
_atom_site_label
_atom_site_type_symbol
_atom_type_description
_atom_site_fract_x
_atom_site_fract_y
_atom_site_fract_z
_atom_type_partial_charge
C1    C     C_R   0.260316 0.500179 0.501671 0.934616
C2    C     C_R   0.494796 0.499654 0.739412 0.905813
C3    C     C_R   0.581025 0.731990 0.099533 0.482806
C4    C     C_R   0.417367 0.732595 0.896566 0.491612
C5    C     C_R   0.545390 0.853524 0.045167 -0.017631
C6    C     C_R   0.450976 0.853188 0.952717 0.107011
C7    C     C_R   0.472117 0.614388 0.941191 -0.252655
C8    C     C_R   0.522615 0.616321 0.059811 -0.127083
C9    C     C_R   0.523122 0.498092 0.127320 -0.116405
C10   C     C_R   0.489597 0.497132 0.872717 -0.176744
C11   C     C_R   0.519171 0.378308 0.062952 0.313755
C12   C     C_R   0.739463 0.500994 0.508736 0.931561
C13   C     C_R   0.525866 0.380860 0.935199 0.337179
C14   C     C_R   0.063940 0.383214 0.538239 0.404274
C15   C     C_R   0.937203 0.387729 0.552508 0.288351
C16   C     C_R   0.872616 0.505477 0.524898 -0.304571
C17   C     C_R   0.127385 0.502084 0.510983 -0.258613
C18   C     C_3   0.587464 0.011432 0.207396 -0.687325
C19   C     C_3   0.409906 0.031556 0.808030 -0.627024
C20   C     C_3   0.855953 0.827939 0.407831 -0.661885
C21   C     C_3   0.134024 0.833046 0.595687 -0.575888
C22   C     C_R   0.937246 0.626258 0.509814 0.138635
C23   C     C_R   0.063911 0.624619 0.502003 0.094555
C24   C     C_R   0.586718 0.069280 0.565577 0.426038
C25   C     C_R   0.409888 0.069885 0.438336 0.427380
C26   C     C_R   0.585765 0.927816 0.565135 -0.136180
C27   C     C_R   0.410853 0.927826 0.438839 -0.150741
C28   C     C_R   0.508747 0.499834 0.260657 0.960674
H1    H     H_    0.651590 0.874856 0.621983 0.166772
H2    H     H_    0.489628 0.037737 0.217926 0.265243
H3    H     H_    0.369329 0.032772 0.996496 0.221603
H4    H     H_    0.358630 0.126581 0.798365 0.255412
H5    H     H_    0.382798 0.965969 0.730356 0.251078
H6    H     H_    0.509895 0.051002 0.803711 0.264297
H7    H     H_    0.070935 0.189255 0.560819 0.379642
H8    H     H_    0.830683 0.316223 0.673068 0.348047
H9    H     H_    0.826824 0.770405 0.595725 0.234117
H10   H     H_    0.893731 0.929919 0.419034 0.235675
H11   H     H_    0.755712 0.834990 0.391440 0.261534
H12   H     H_    0.340750 0.874401 0.387060 0.182504
H13   H     H_    0.898714 0.780641 0.326467 0.232385
H14   H     H_    0.109743 0.797842 0.405881 0.230003
H15   H     H_    0.072345 0.920204 0.583412 0.222333
H16   H     H_    0.229367 0.869716 0.607637 0.253664
H17   H     H_    0.107986 0.778661 0.680939 0.244555
H18   H     H_    0.646250 0.220514 0.652886 0.404415
H19   H     H_    0.346106 0.220836 0.349828 0.395158
H20   H     H_    0.456761 0.202715 0.069607 0.336505
H21   H     H_    0.637723 0.233707 0.925540 0.343134
H22   H     H_    0.738778 0.793891 0.162823 0.344679
H23   H     H_    0.291929 0.640106 0.799799 0.323601
H24   H     H_    0.600337 0.047959 0.018276 0.258466
H25   H     H_    0.647789 0.097105 0.231359 0.279128
H26   H     H_    0.608979 0.930344 0.272890 0.239834
N1    N     N_R   0.500000 0.857200 0.500000 -0.145607
N2    N     N_R   0.500000 0.142810 0.500000 -0.196091
N3    N     N_2   0.606715 0.972078 0.081201 -0.322560
N4    N     N_2   0.381710 0.969022 0.924065 -0.285040
N5    N     N_2   0.879265 0.752425 0.519433 -0.278821
N6    N     N_2   0.127038 0.748273 0.487709 -0.274471
O1    O     O_R   0.316770 0.614620 0.499990 -0.601768
O2    O     O_3   0.572020 0.273420 0.873022 -0.790125
O3    O     O_3   0.680696 0.720201 0.179431 -0.770271
O4    O     O_3   0.323450 0.732233 0.809211 -0.753716
O5    O     O_3   0.128154 0.266007 0.558756 -0.708334
O6    O     O_3   0.880087 0.280002 0.604746 -0.714735
O7    O     O_3   0.673265 0.128696 0.640023 -0.730351
O8    O     O_3   0.318260 0.130341 0.369922 -0.746514
O9    O     O_R   0.683230 0.614620 0.500010 -0.611306
O10   O     O_R   0.316800 0.385290 0.500000 -0.572505
O11   O     O_R   0.683200 0.385290 0.500000 -0.599847
O12   O     O_R   0.500010 0.614690 0.316770 -0.599733
O13   O     O_R   0.499990 0.614690 0.683230 -0.609146
O14   O     O_R   0.500040 0.385360 0.316770 -0.598695
O15   O     O_R   0.499960 0.385360 0.683230 -0.596734
O16   O     O_3   0.507120 0.260331 0.123776 -0.780160
Zn1   Zn    Zn3+2 0.500000 0.653120 0.500000 0.962713
Zn2   Zn    Zn3+2 0.500000 0.346880 0.500000 0.998517

loop_
_geom_bond_atom_site_label_1
_geom_bond_atom_site_label_2
_ccdc_geom_bond_type
C7    C10   A    
C12   O9    A    
O10   Zn2   S    
H20   O16   S    
O9    Zn1   S    
C25   N2    A    
C28   O14   A    
C26   N1    A    
C20   H13   S    
C7    C8    A    
C17   C23   A    
H3    N4    S    
C24   C26   A    
C11   O16   S    
C5    C6    A    
N1    Zn1   S    
C27   N1    A    
H7    O5    S    
C15   C16   A    
N2    Zn2   S    
C6    N4    S    
C24   O7    S    
C21   H15   S    
C13   O2    S    
C12   C16   S    
O1    Zn1   S    
C8    C9    A    
C18   H2    S    
C18   H25   S    
H22   O3    S    
C14   C17   A    
C28   O12   A    
C25   O8    S    
C4    C7    A    
C19   H4    S    
C21   H17   S    
C19   N4    S    
C23   N6    S    
C21   N6    S    
C4    C6    A    
C3    C8    A    
C19   H5    S    
H14   N6    S    
C22   N5    S    
C20   H11   S    
C15   O6    S    
C10   C13   A    
O12   Zn1   S    
C21   H16   S    
C20   H10   S    
C18   N3    S    
C27   H12   S    
C20   N5    S    
C9    C11   A    
H9    N5    S    
C2    O13   A    
C12   O11   A    
C25   C27   A    
C2    C10   S    
H19   O8    S    
C16   C22   A    
H21   O2    S    
C14   C15   A    
H23   O4    S    
C3    C5    A    
C19   H6    S    
C1    O1    A    
C3    O3    S    
C24   N2    A    
C4    O4    S    
C1    C17   S    
C1    O10   A    
C5    N3    S    
H18   O7    S    
C11   C13   A    
C14   O5    S    
H8    O6    S    
O15   Zn2   S    
H24   N3    S    
C18   H26   S    
C26   H1    S    
O14   Zn2   S    
O13   Zn1   S    
C22   C23   A    
O11   Zn2   S    
C2    O15   A    
C9    C28   S    
