data_mof_unit_24486.cif
_audit_creation_date              2012-12-10T17:31:28-0500
_audit_creation_method            fapswitch 2.2
_symmetry_space_group_name_H-M    P1
_symmetry_Int_Tables_number       1
_space_group_crystal_system       triclinic
_cell_length_a                    19.109087
_cell_length_b                    19.247905
_cell_length_c                    12.391491
_cell_angle_alpha                 89.133354
_cell_angle_beta                  130.48117
_cell_angle_gamma                 91.558121
_cell_volume                      3465.38380052

loop_
_atom_site_label
_atom_site_type_symbol
_atom_type_description
_atom_site_fract_x
_atom_site_fract_y
_atom_site_fract_z
_atom_type_partial_charge
C1    C     C_R   0.611692 0.898710 0.654867 0.840167
C2    C     C_R   0.610718 0.102524 0.650531 0.833142
C3    C     C_R   0.111694 0.398712 0.654869 0.840163
C4    C     C_R   0.110721 0.602522 0.650535 0.833131
C5    C     C_R   0.242550 0.776770 0.033499 0.090137
C6    C     C_R   0.226240 0.211956 0.023072 0.068605
C7    C     C_R   0.742557 0.276763 0.033515 0.090135
C8    C     C_R   0.726236 0.711953 0.023068 0.068608
C9    C     C_R   0.663827 0.266643 0.022044 0.065017
C10   C     C_R   0.679040 0.740313 0.063191 0.074663
C11   C     C_R   0.163805 0.766668 0.021993 0.065016
C12   C     C_R   0.179036 0.240312 0.063187 0.074656
C13   C     C_R   0.586276 0.230105 0.906031 -0.046406
C14   C     C_R   0.642102 0.805537 0.014640 -0.040881
C15   C     C_R   0.086254 0.730135 0.905971 -0.046399
C16   C     C_R   0.142092 0.305534 0.014630 -0.040891
C17   C     C_R   0.587398 0.201875 0.805266 -0.211767
C18   C     C_R   0.639445 0.837077 0.910823 -0.193479
C19   C     C_R   0.087392 0.701888 0.805234 -0.211775
C20   C     C_R   0.139437 0.337076 0.910816 -0.193471
C21   C     C_R   0.319447 0.811422 0.156357 -0.195056
C22   C     C_R   0.293833 0.163450 0.115769 -0.205642
C23   C     C_R   0.819453 0.311421 0.156362 -0.195062
C24   C     C_R   0.793827 0.663445 0.115762 -0.205645
C25   C     C_R   0.239181 0.829669 0.244159 0.012933
C26   C     C_R   0.227197 0.145771 0.227157 -0.018570
C27   C     C_R   0.739219 0.329632 0.244227 0.012921
C28   C     C_R   0.727194 0.645769 0.227153 -0.018572
C29   C     C_R   0.673195 0.162749 0.733035 -0.109884
C30   C     C_R   0.662855 0.834090 0.731904 -0.100246
C31   C     C_R   0.173207 0.662743 0.733049 -0.109881
C32   C     C_R   0.162865 0.334097 0.731917 -0.100235
C33   C     C_R   0.680570 0.039120 0.292945 -0.290326
C34   C     C_R   0.180568 0.539124 0.292941 -0.290330
C35   C     C_R   0.344597 0.983323 0.625744 0.006886
C36   C     C_R   0.844599 0.483316 0.625746 0.006863
C37   C     C_R   0.310524 0.974206 0.695858 -0.066039
C38   C     C_R   0.810524 0.474205 0.695858 -0.066036
C39   C     C_R   0.378553 0.092028 0.333838 0.784547
C40   C     C_R   0.385863 0.899230 0.345522 0.775182
C41   C     C_R   0.878552 0.592027 0.333837 0.784551
C42   C     C_R   0.885868 0.399227 0.345529 0.775188
C43   C     C_R   0.369398 0.985193 0.842298 -0.127832
C44   C     C_R   0.869393 0.485202 0.842295 -0.127845
C45   C     C_R   0.461836 0.006688 0.920113 -0.031137
C46   C     C_R   0.961833 0.506695 0.920110 -0.031150
C47   C     C_R   0.495774 0.012148 0.845320 0.213206
C48   C     C_R   0.995771 0.512153 0.845318 0.213201
C49   C     C_R   0.523401 0.016961 0.071779 -0.003823
C50   C     C_R   0.023398 0.516968 0.071777 -0.003847
C51   C     C_R   0.614724 0.040684 0.143838 0.089230
C52   C     C_R   0.114720 0.540691 0.143834 0.089213
C53   C     C_R   0.642088 0.059056 0.067237 -0.119274
C54   C     C_R   0.142081 0.559067 0.067230 -0.119277
C55   C     C_R   0.592314 0.031960 0.930285 -0.096821
C56   C     C_R   0.092310 0.531967 0.930282 -0.096804
C57   C     C_R   0.499855 0.003052 0.157805 0.085369
C58   C     C_R   0.999854 0.503055 0.157805 0.085367
C59   C     C_R   0.655888 0.014818 0.369737 0.172603
C60   C     C_R   0.155888 0.514819 0.369735 0.172606
C61   C     C_R   0.664528 0.291581 0.128966 -0.152101
C62   C     C_R   0.673191 0.703580 0.155700 -0.144349
C63   C     C_R   0.164489 0.791622 0.128890 -0.152114
C64   C     C_R   0.173189 0.203578 0.155699 -0.144395
C65   C     C_R   0.315132 0.844469 0.251806 -0.149528
C66   C     C_R   0.299111 0.134118 0.225311 -0.144781
C67   C     C_R   0.815148 0.344456 0.251831 -0.149540
C68   C     C_R   0.799109 0.634116 0.225309 -0.144789
C69   C     C_R   0.743776 0.176256 0.729520 -0.204227
C70   C     C_R   0.694804 0.796372 0.675988 -0.228706
C71   C     C_R   0.243801 0.676236 0.729560 -0.204246
C72   C     C_R   0.194839 0.296389 0.676028 -0.228717
C73   C     C_R   0.309675 0.727673 0.813725 -0.002179
C74   C     C_R   0.223681 0.228335 0.717940 -0.007490
C75   C     C_R   0.809645 0.227697 0.813677 -0.002171
C76   C     C_R   0.723633 0.728314 0.717889 -0.007449
C77   C     C_R   0.310714 0.763558 0.912995 -0.032782
C78   C     C_R   0.228614 0.198037 0.826321 -0.058106
C79   C     C_R   0.810695 0.263572 0.912965 -0.032782
C80   C     C_R   0.728583 0.698022 0.826291 -0.058116
C81   C     C_R   0.742448 0.248489 0.926012 0.049264
C82   C     C_R   0.711709 0.738330 0.901835 0.027855
C83   C     C_R   0.242453 0.748486 0.926016 0.049274
C84   C     C_R   0.211720 0.238336 0.901847 0.027848
C85   C     C_R   0.667434 0.203735 0.821469 0.058209
C86   C     C_R   0.670788 0.804396 0.847149 0.079588
C87   C     C_R   0.167438 0.703735 0.821465 0.058206
C88   C     C_R   0.170792 0.304400 0.847155 0.079584
Cu1   Cu    Cu3+1 0.526340 1.000000 0.421010 0.978830
Cu2   Cu    Cu3+1 0.026340 0.500000 0.421010 0.978824
Cu3   Cu    Cu3+1 0.473640 1.000000 0.578990 0.945734
Cu4   Cu    Cu3+1 0.973640 0.500000 0.578990 0.945720
H1    H     H_    0.752234 0.053028 0.350123 0.156503
H2    H     H_    0.252231 0.553033 0.350118 0.156506
H3    H     H_    0.429653 0.994477 0.113064 0.131543
H4    H     H_    0.929652 0.494480 0.113065 0.131543
H5    H     H_    0.299836 0.974477 0.513023 0.120815
H6    H     H_    0.799841 0.474459 0.513028 0.120804
H7    H     H_    0.341744 0.975537 0.893893 0.191197
H8    H     H_    0.841738 0.475554 0.893888 0.191195
H9    H     H_    0.606670 0.280914 0.124299 0.186915
H10   H     H_    0.624961 0.718899 0.168923 0.186113
H11   H     H_    0.106617 0.780973 0.124193 0.186905
H12   H     H_    0.124957 0.218895 0.168918 0.186111
H13   H     H_    0.386060 0.811243 0.186274 0.175138
H14   H     H_    0.345060 0.151341 0.107183 0.171153
H15   H     H_    0.886060 0.311255 0.186258 0.175147
H16   H     H_    0.845050 0.651332 0.107168 0.171142
H17   H     H_    0.747527 0.146898 0.659492 0.171309
H18   H     H_    0.689973 0.817732 0.589904 0.176497
H19   H     H_    0.247558 0.646871 0.659545 0.171311
H20   H     H_    0.190019 0.317754 0.589957 0.176503
H21   H     H_    0.523652 0.178873 0.712720 0.184117
H22   H     H_    0.611296 0.886915 0.885283 0.178904
H23   H     H_    0.023648 0.678887 0.712681 0.184101
H24   H     H_    0.111283 0.386913 0.885273 0.178910
N1    N     N_R   0.566260 0.000000 0.302220 -0.208745
N2    N     N_R   0.066260 0.500000 0.302220 -0.208742
N3    N     N_R   0.434410 0.000000 0.697680 -0.206137
N4    N     N_R   0.934410 0.500000 0.697680 -0.206135
O1    O     O_R   0.608610 0.924520 0.551740 -0.572363
O2    O     O_R   0.608610 0.075480 0.551740 -0.580114
O3    O     O_R   0.108610 0.424520 0.551740 -0.572366
O4    O     O_R   0.108610 0.575480 0.551740 -0.580116
O5    O     O_R   0.564110 0.924510 0.685150 -0.599758
O6    O     O_R   0.564110 0.075490 0.685150 -0.594193
O7    O     O_R   0.064110 0.424510 0.685150 -0.599762
O8    O     O_R   0.064110 0.575490 0.685150 -0.594186
O9    O     O_R   0.435880 0.075470 0.314850 -0.584100
O10   O     O_R   0.435880 0.924530 0.314850 -0.568923
O11   O     O_R   0.935880 0.575470 0.314850 -0.584098
O12   O     O_R   0.935880 0.424530 0.314850 -0.568921
O13   O     O_R   0.391380 0.075460 0.448260 -0.599433
O14   O     O_R   0.391380 0.924540 0.448260 -0.618718
O15   O     O_R   0.891380 0.575460 0.448260 -0.599447
O16   O     O_R   0.891380 0.424540 0.448260 -0.618729
C89   C     C_2   0.237039 0.848563 0.357501 0.325960
H25   H     H_    0.299598 0.849649 0.467651 0.108180
O17   O     O_2   0.164307 0.860426 0.329381 -0.560932
C90   C     C_2   0.202208 0.095739 0.290125 0.432760
H26   H     H_    0.231683 0.044704 0.321997 0.068984
O18   O     O_2   0.143643 0.109140 0.298222 -0.532037
C91   C     C_2   0.737105 0.348499 0.357610 0.325990
H27   H     H_    0.799681 0.349605 0.467746 0.108230
O19   O     O_2   0.664379 0.360315 0.329545 -0.560930
C92   C     C_2   0.702190 0.595732 0.290095 0.432723
H28   H     H_    0.731712 0.544714 0.322060 0.069000
O20   O     O_2   0.643550 0.609103 0.298044 -0.532020
C93   C     C_1   0.729748 0.096238 0.137102 0.255817
N5    N     N_1   0.799304 0.125431 0.192624 -0.260829
C94   C     C_1   0.229738 0.596252 0.137091 0.255826
N6    N     N_1   0.299291 0.625448 0.192611 -0.260835
C95   C     C_2   0.213427 0.951595 0.614484 0.412429
H29   H     H_    0.167078 0.949299 0.499541 0.127869
O21   O     O_2   0.184101 0.934694 0.674293 -0.516399
C96   C     C_2   0.713428 0.451589 0.614484 0.412479
H30   H     H_    0.667082 0.449285 0.499542 0.127844
O22   O     O_2   0.684101 0.434692 0.674293 -0.516393
C97   C     C_1   0.655649 0.009465 0.911895 0.331767
N7    N     N_1   0.711525 0.993809 0.906629 -0.283726
C98   C     C_1   0.155646 0.509465 0.911900 0.331765
N8    N     N_1   0.211523 0.493805 0.906640 -0.283727
C99   C     C_1   0.506619 0.215941 0.893541 0.241276
N9    N     N_1   0.444158 0.204289 0.886623 -0.288654
C100  C     C_1   0.624009 0.846012 0.090910 0.236727
N10   N     N_1   0.612819 0.877642 0.156811 -0.257635
C101  C     C_1   0.006573 0.715999 0.893433 0.241278
N11   N     N_1   0.944091 0.704372 0.886470 -0.288633
C102  C     C_1   0.123993 0.346007 0.090894 0.236741
N12   N     N_1   0.112799 0.377638 0.156790 -0.257625
C103  C     C_1   0.377579 0.819160 0.988481 0.229311
N13   N     N_1   0.432319 0.863095 0.050119 -0.286049
C104  C     C_1   0.231578 0.123132 0.839311 0.238042
N14   N     N_1   0.231874 0.063381 0.849713 -0.252388
C105  C     C_1   0.877559 0.319174 0.988451 0.229327
N15   N     N_1   0.932299 0.363109 0.050088 -0.286052
C106  C     C_1   0.731543 0.623118 0.839289 0.238013
N16   N     N_1   0.731835 0.563368 0.849697 -0.252367
C107  C     C_1   0.376400 0.742459 0.795896 0.251878
N17   N     N_1   0.429313 0.754266 0.780895 -0.287441
C108  C     C_1   0.243800 0.188958 0.642969 0.310883
N18   N     N_1   0.260928 0.157351 0.584381 -0.233463
C109  C     C_1   0.876356 0.242495 0.795824 0.251882
N19   N     N_1   0.929259 0.254313 0.780806 -0.287471
C110  C     C_1   0.743715 0.688925 0.642882 0.310844
N20   N     N_1   0.760811 0.657307 0.584264 -0.233543
C111  C     C_1   0.725530 0.008406 0.521329 0.290373
N21   N     N_1   0.781952 0.003121 0.643168 -0.270030
C112  C     C_1   0.225531 0.508402 0.521326 0.290358
N22   N     N_1   0.281954 0.503115 0.643163 -0.270039

loop_
_geom_bond_atom_site_label_1
_geom_bond_atom_site_label_2
_ccdc_geom_bond_type
C53   C93   S    
C103  N13   T    
C72   H20   S    
C100  N10   T    
Cu3   O6    S    
C72   C74   A    
C102  N12   T    
C14   C18   A    
C53   C55   A    
C35   N3    A    
C99   N9    T    
C38   C96   S    
C75   C109  S    
C18   H22   S    
C98   N8    T    
C17   H21   S    
C48   N4    A    
C74   C108  S    
Cu4   O16   S    
C108  N18   T    
C15   C19   A    
C89   O17   D    
C18   C86   A    
C2    C29   S    
C9    C61   A    
Cu2   N2    S    
C47   C55   A    
C96   H30   S    
C28   C68   A    
C90   O18   D    
C5    C11   A    
C19   C87   A    
C92   O20   D    
C6    C12   A    
C12   C64   A    
Cu1   Cu3   S    
C3    O7    A    
Cu1   O2    S    
C77   C83   A    
C91   H27   S    
C32   C88   A    
C58   N2    A    
C49   C57   A    
C28   C92   S    
C4    O4    A    
C42   O16   A    
Cu2   O3    S    
C45   C47   A    
C23   C67   A    
C9    C13   A    
C22   C66   A    
C96   O22   D    
C26   C64   A    
C34   C52   A    
C27   C61   A    
C69   H17   S    
C16   C102  S    
C12   C16   A    
C3    O3    A    
C60   C112  S    
C49   C51   A    
C71   H19   S    
C78   C104  S    
C50   C52   A    
C94   N6    T    
C60   N2    A    
C24   H16   S    
C19   H23   S    
C30   C86   A    
C70   H18   S    
C29   C85   A    
C48   C56   A    
C77   C103  S    
Cu2   O12   S    
C31   C71   A    
C59   N1    A    
C104  N14   T    
C34   C60   A    
C15   C101  S    
C10   C62   A    
C11   C15   A    
Cu4   O8    S    
C21   C65   A    
C30   C70   A    
C52   C54   A    
C13   C99   S    
C41   C68   S    
C29   C69   A    
C2    O2    A    
Cu2   Cu4   S    
C46   C48   A    
C6    C84   A    
C4    O8    A    
C26   C66   A    
C79   C105  S    
C31   C87   A    
C90   H26   S    
C32   C72   A    
C10   C14   A    
C101  N11   T    
C20   H24   S    
C44   C46   A    
C22   H14   S    
C40   O14   A    
C56   C98   S    
C78   C84   A    
Cu1   O10   S    
C51   C53   A    
C50   C58   A    
C37   C43   A    
C25   C89   S    
C109  N19   T    
C5    C83   A    
C38   C44   A    
C37   C95   S    
C27   C91   S    
C97   N7    T    
Cu3   O13   S    
C45   C49   A    
C16   C20   A    
C23   H15   S    
C61   H9    S    
C25   C65   A    
C3    C32   S    
C14   C100  S    
C59   C111  S    
C43   C45   A    
Cu2   O11   S    
C2    O6    A    
C63   H11   S    
C7    C81   A    
C34   H2    S    
Cu1   N1    S    
C40   C65   S    
C70   C76   A    
C42   C67   S    
C58   H4    S    
C39   C66   S    
C17   C85   A    
Cu4   O15   S    
C95   O21   D    
Cu4   O7    S    
C41   O15   A    
C47   N3    A    
C57   N1    A    
C92   H28   S    
C39   O13   A    
C57   H3    S    
C91   O19   D    
C40   O10   A    
Cu3   O5    S    
C35   C37   A    
Cu2   O4    S    
C76   C110  S    
C8    C10   A    
C64   H12   S    
C76   C80   A    
C1    O5    A    
C33   H1    S    
C83   C87   A    
C26   C90   S    
C36   H6    S    
C79   C81   A    
C54   C56   A    
C54   C94   S    
C33   C51   A    
C39   O9    A    
C89   H25   S    
C46   C50   A    
C11   C63   A    
C13   C17   A    
C80   C106  S    
C36   C38   A    
Cu4   N4    S    
C111  N21   T    
C105  N15   T    
C82   C86   A    
C93   N5    T    
C43   H7    S    
C25   C63   A    
C44   H8    S    
C110  N20   T    
C84   C88   A    
Cu1   O1    S    
C7    C23   A    
C20   C88   A    
C55   C97   S    
C1    C30   S    
C8    C24   A    
C80   C82   A    
Cu3   O14   S    
C69   C75   A    
Cu3   N3    S    
C112  N22   T    
C36   N4    A    
C1    O1    A    
C4    C31   S    
C27   C67   A    
C24   C68   A    
C107  N17   T    
C73   C107  S    
C7    C9    A    
C8    C82   A    
C41   O11   A    
C5    C21   A    
C33   C59   A    
C106  N16   T    
C74   C78   A    
C71   C73   A    
C73   C77   A    
C42   O12   A    
C95   H29   S    
C35   H5    S    
Cu1   O9    S    
C75   C79   A    
C81   C85   A    
C21   H13   S    
C28   C62   A    
C62   H10   S    
C6    C22   A    
