data_mof_unit_62996.cif
_audit_creation_date              2013-03-05T16:13:09-0500
_audit_creation_method            fapswitch 2.2
_symmetry_space_group_name_H-M    P1
_symmetry_Int_Tables_number       1
_space_group_crystal_system       triclinic
_cell_length_a                    44.039636
_cell_length_b                    30.267204
_cell_length_c                    30.348603
_cell_angle_alpha                 90.000133
_cell_angle_beta                  133.62527
_cell_angle_gamma                 89.999876
_cell_volume                      29282.8869047

loop_
_atom_site_label
_atom_site_type_symbol
_atom_site_description
_atom_site_fract_x
_atom_site_fract_y
_atom_site_fract_z
_atom_type_partial_charge
O1    O     O_R   0.500000 0.963030 0.565470 -0.627752
O2    O     O_R   0.500000 0.963030 0.434530 -0.627553
O3    O     O_R   0.000000 0.463030 0.565470 -0.627626
O4    O     O_R   0.000000 0.463030 0.434530 -0.627708
O5    O     O_R   0.499990 0.036970 0.565490 -0.570770
O6    O     O_R   0.500010 0.036970 0.434510 -0.571087
O7    O     O_R   0.999990 0.536970 0.565490 -0.570978
O8    O     O_R   0.000010 0.536970 0.434510 -0.570845
C1    C     C_R   0.501436 0.000051 0.587709 0.907072
C2    C     C_R   0.498563 0.000050 0.412290 0.906123
C3    C     C_R   0.001437 0.500050 0.587709 0.906420
C4    C     C_R   0.998564 0.500050 0.412291 0.906835
O9    O     O_R   0.438570 0.963030 0.438570 -0.598124
O10   O     O_R   0.561430 0.963030 0.561430 -0.597395
O11   O     O_R   0.938570 0.463030 0.438570 -0.597637
O12   O     O_R   0.061430 0.463030 0.561430 -0.597952
O13   O     O_R   0.438570 0.036970 0.438590 -0.599121
O14   O     O_R   0.561430 0.036970 0.561410 -0.599907
O15   O     O_R   0.938570 0.536970 0.438590 -0.599670
O16   O     O_R   0.061430 0.536970 0.561410 -0.599321
C5    C     C_R   0.418963 0.000001 0.418940 0.899797
C6    C     C_R   0.581037 0.000001 0.581057 0.899563
C7    C     C_R   0.918963 0.500001 0.418942 0.899652
C8    C     C_R   0.081037 0.500001 0.581059 0.899746
Zn1   Zn    Zn3+2 0.500000 0.950630 0.500000 1.062154
Zn2   Zn    Zn3+2 0.000000 0.450630 0.500000 1.062082
Zn3   Zn    Zn3+2 0.500000 0.049370 0.500000 1.140681
Zn4   Zn    Zn3+2 0.000000 0.549370 0.500000 1.140704
C9    C     C_3   0.274682 0.955030 0.252436 0.821865
C10   C     C_3   0.725331 0.956955 0.751131 0.821682
C11   C     C_3   0.774673 0.456279 0.250048 0.821753
C12   C     C_3   0.225321 0.455452 0.748408 0.821829
C13   C     C_3   0.274029 0.004046 0.321330 0.060921
C14   C     C_3   0.725972 0.000235 0.678534 0.061578
C15   C     C_3   0.774028 0.501515 0.321454 0.061368
C16   C     C_3   0.225972 0.503160 0.678612 0.061075
C17   C     C_3   0.225085 0.002889 0.272090 -0.613833
C18   C     C_3   0.774914 0.999123 0.727863 -0.614371
C19   C     C_3   0.725085 0.500387 0.272154 -0.614183
C20   C     C_3   0.274915 0.502013 0.727872 -0.613955
H1    H     H_    0.215913 0.928130 0.219677 0.130140
H2    H     H_    0.784105 0.928073 0.786113 0.130030
H3    H     H_    0.715901 0.428041 0.215828 0.130057
H4    H     H_    0.284091 0.428075 0.781670 0.130112
H5    H     H_    0.283218 0.037385 0.342842 0.131968
H6    H     H_    0.716770 0.032477 0.654391 0.131809
H7    H     H_    0.783225 0.534148 0.344725 0.131858
H8    H     H_    0.216780 0.536263 0.656481 0.131922
H9    H     H_    0.212300 0.975251 0.279287 0.258791
H10   H     H_    0.787708 0.969974 0.722943 0.258521
H11   H     H_    0.712294 0.471724 0.277851 0.258614
H12   H     H_    0.287701 0.474007 0.721194 0.258732
H13   H     H_    0.212940 0.033579 0.275671 0.208704
H14   H     H_    0.787048 0.028456 0.721873 0.208356
H15   H     H_    0.712947 0.530196 0.277349 0.208471
H16   H     H_    0.287057 0.532404 0.723721 0.208615
C21   C     C_1   0.125390 0.000016 0.125404 -0.097736
C22   C     C_1   0.874608 0.000039 0.874607 -0.098487
C23   C     C_1   0.625391 0.500031 0.125396 -0.098227
C24   C     C_1   0.374609 0.500021 0.874599 -0.097906
C25   C     C_3   0.291278 0.999200 0.290256 -0.075497
C26   C     C_3   0.708720 0.999273 0.709836 -0.075275
C27   C     C_3   0.791279 0.499249 0.290195 -0.075355
C28   C     C_3   0.208722 0.499217 0.709767 -0.075449
C29   C     C_3   0.225306 0.954628 0.205338 0.142219
C30   C     C_3   0.774707 0.956385 0.798262 0.142259
C31   C     C_3   0.725297 0.455765 0.202929 0.142244
C32   C     C_3   0.274697 0.455011 0.795512 0.142228
C33   C     C_3   0.208606 0.999400 0.207534 -0.057981
C34   C     C_3   0.791393 0.999506 0.792544 -0.057285
C35   C     C_3   0.708607 0.499471 0.207481 -0.057526
C36   C     C_3   0.291394 0.499424 0.792485 -0.057822
C37   C     C_3   0.225662 0.040603 0.199071 0.189413
C38   C     C_3   0.774317 0.042618 0.797620 0.188409
C39   C     C_3   0.725676 0.541973 0.201253 0.188760
C40   C     C_3   0.274333 0.541095 0.800174 0.189184
C41   C     C_3   0.274640 0.040333 0.247412 0.055286
C42   C     C_3   0.725340 0.042382 0.749296 0.055134
C43   C     C_3   0.774653 0.541725 0.249583 0.055176
C44   C     C_3   0.225356 0.540833 0.751838 0.055252
C45   C     C_1   0.162863 0.999806 0.162548 0.046472
C46   C     C_1   0.837136 0.999861 0.837492 0.045736
C47   C     C_1   0.662864 0.499843 0.162521 0.045977
C48   C     C_1   0.337137 0.499818 0.837462 0.046294
C49   C     C_1   0.337093 0.999743 0.336501 0.126626
C50   C     C_1   0.662906 0.999768 0.663541 0.126502
C51   C     C_1   0.837094 0.499760 0.336473 0.126535
C52   C     C_1   0.162907 0.499749 0.663509 0.126587
C53   C     C_1   0.374570 0.999966 0.374267 -0.080011
C54   C     C_1   0.625429 0.999972 0.625748 -0.080123
C55   C     C_1   0.874570 0.499970 0.374258 -0.080088
C56   C     C_1   0.125430 0.499968 0.625736 -0.080041
H17   H     H_    0.285239 0.070866 0.275561 0.111899
H18   H     H_    0.714730 0.071406 0.718757 0.111152
H19   H     H_    0.785259 0.571277 0.279335 0.111393
H20   H     H_    0.214754 0.571032 0.723122 0.111727
H21   H     H_    0.216344 0.070075 0.209586 0.099799
H22   H     H_    0.783625 0.070408 0.784809 0.098284
H23   H     H_    0.716364 0.570347 0.213310 0.098782
H24   H     H_    0.283649 0.570192 0.789113 0.099443
C57   C     C_R   0.513497 0.036666 0.717797 -0.157233
C58   C     C_R   0.486479 0.036660 0.282181 -0.157805
C59   C     C_R   0.013514 0.536662 0.717812 -0.157613
C60   C     C_R   0.986495 0.536664 0.282196 -0.157421
H25   H     H_    0.522039 0.065610 0.745379 0.200347
H26   H     H_    0.477923 0.065600 0.254586 0.200342
H27   H     H_    0.022066 0.565603 0.745404 0.200355
H28   H     H_    0.977948 0.565607 0.254609 0.200326
C61   C     C_R   0.515616 0.037899 0.674128 0.297652
C62   C     C_R   0.484361 0.037891 0.325851 0.297375
C63   C     C_R   0.015632 0.537893 0.674143 0.297452
C64   C     C_R   0.984376 0.537896 0.325865 0.297603
C65   C     C_R   0.503640 0.999896 0.637903 -0.163603
C66   C     C_R   0.496356 0.999895 0.362094 -0.164111
C67   C     C_R   0.003642 0.499895 0.637905 -0.163954
C68   C     C_R   0.996359 0.499896 0.362096 -0.163736
C69   C     C_R   0.492543 0.960925 0.649008 -0.177658
C70   C     C_R   0.507469 0.960929 0.351004 -0.178056
C71   C     C_R   0.992534 0.460928 0.648999 -0.177905
C72   C     C_R   0.007462 0.460926 0.350996 -0.177735
H29   H     H_    0.483552 0.931378 0.622218 0.193250
H30   H     H_    0.516474 0.931386 0.377809 0.193576
H31   H     H_    0.983533 0.431384 0.622198 0.193466
H32   H     H_    0.016458 0.431381 0.377792 0.193332
C73   C     C_R   0.492463 0.959654 0.694450 -0.077318
C74   C     C_R   0.507548 0.959658 0.305561 -0.077299
C75   C     C_R   0.992455 0.459657 0.694442 -0.077316
C76   C     C_R   0.007542 0.459655 0.305555 -0.077286
H33   H     H_    0.484206 0.929250 0.702924 0.168689
H34   H     H_    0.515818 0.929258 0.297099 0.168815
H35   H     H_    0.984188 0.429256 0.702907 0.168769
H36   H     H_    0.015803 0.429253 0.297085 0.168728
C77   C     C_R   0.502372 0.997640 0.728194 0.079435
C78   C     C_R   0.497621 0.997639 0.271801 0.079607
C79   C     C_R   0.002377 0.497640 0.728197 0.079544
C80   C     C_R   0.997626 0.497639 0.271805 0.079481
C81   C     C_R   0.463910 0.986249 0.759536 0.268612
C82   C     C_R   0.536089 0.986265 0.240466 0.268973
C83   C     C_R   0.963910 0.486261 0.759535 0.268847
C84   C     C_R   0.036090 0.486255 0.240465 0.268684
C85   C     C_R   0.463603 0.983256 0.805163 0.366606
C86   C     C_R   0.536400 0.983273 0.194842 0.366485
C87   C     C_R   0.963600 0.483268 0.805159 0.366530
C88   C     C_R   0.036399 0.483262 0.194839 0.366575
C89   C     C_R   0.499986 0.995176 0.865556 -0.311981
C90   C     C_R   0.500014 0.995178 0.134444 -0.312010
C91   C     C_R   0.999986 0.495177 0.865556 -0.312006
C92   C     C_R   0.000014 0.495177 0.134444 -0.311985
C93   C     C_R   0.537182 0.005252 0.880515 -0.198296
C94   C     C_R   0.462813 0.005238 0.119479 -0.198303
C95   C     C_R   0.037185 0.505242 0.880519 -0.198290
C96   C     C_R   0.962816 0.505247 0.119483 -0.198295
H37   H     H_    0.565498 0.013427 0.926873 0.217410
H38   H     H_    0.434495 0.013402 0.073117 0.217439
H39   H     H_    0.065503 0.513409 0.926880 0.217432
H40   H     H_    0.934500 0.513418 0.073124 0.217420
C97   C     C_R   0.538981 0.004478 0.836810 0.451607
C98   C     C_R   0.461012 0.004463 0.163182 0.451580
C99   C     C_R   0.038986 0.504468 0.836815 0.451593
C100  C     C_R   0.961017 0.504472 0.163188 0.451603
C101  C     C_R   0.501771 0.996355 0.775483 -0.228218
C102  C     C_R   0.498224 0.996356 0.224513 -0.228205
C103  C     C_R   0.001774 0.496356 0.775485 -0.228208
C104  C     C_R   0.998228 0.496355 0.224516 -0.228212
O17   O     O_R   0.000000 0.934650 0.036980 -0.629356
O18   O     O_R   0.000000 0.934650 0.963020 -0.629041
O19   O     O_R   0.500000 0.434650 0.036980 -0.629126
O20   O     O_R   0.500000 0.434650 0.963020 -0.629252
C105  C     C_R   0.000000 0.913832 0.000000 0.888353
C106  C     C_R   0.500000 0.413832 1.000000 0.888337
O21   O     O_R   0.061420 0.000140 0.098400 -0.626523
O22   O     O_R   0.938580 0.000140 0.901600 -0.626209
O23   O     O_R   0.561420 0.500140 0.098400 -0.626316
O24   O     O_R   0.438580 0.500140 0.901600 -0.626455
O25   O     O_R   0.061430 0.000120 0.024480 -0.575968
O26   O     O_R   0.938570 0.000120 0.975520 -0.577264
O27   O     O_R   0.561430 0.500120 0.024480 -0.576825
O28   O     O_R   0.438570 0.500120 0.975520 -0.576268
C107  C     C_R   0.080998 0.000123 0.081034 0.915554
C108  C     C_R   0.919002 0.000122 0.918966 0.915611
C109  C     C_R   0.580998 0.500122 0.081034 0.915567
C110  C     C_R   0.419002 0.500122 0.918966 0.915547
Zn5   Zn    Zn3+2 0.000000 0.000140 0.049370 1.077671
Zn6   Zn    Zn3+2 0.000000 0.000140 0.950630 1.079007
Zn7   Zn    Zn3+2 0.500000 0.500140 0.049370 1.078701
Zn8   Zn    Zn3+2 0.500000 0.500140 0.950630 1.078128
O29   O     O_R   0.999990 0.065630 0.036960 -0.585086
O30   O     O_R   0.000010 0.065630 0.963040 -0.584846
O31   O     O_R   0.499990 0.565630 0.036960 -0.584908
O32   O     O_R   0.500010 0.565630 0.963040 -0.585021
C111  C     C_R   0.000005 0.086280 0.000005 1.017811
C112  C     C_R   0.499998 0.586280 0.999998 1.017792
O33   O     O_R   0.465320 0.065470 0.965350 -0.617907
O34   O     O_R   0.534680 0.065470 0.034650 -0.617930
O35   O     O_R   0.965320 0.565470 0.965350 -0.617919
O36   O     O_R   0.034680 0.565470 0.034650 -0.617914
C113  C     C_R   0.500000 0.086469 1.000000 0.889941
C114  C     C_R   1.000000 0.586469 0.000000 0.889938
O37   O     O_R   0.465320 0.999980 0.899860 -0.593493
O38   O     O_R   0.534680 0.999980 0.100140 -0.593535
O39   O     O_R   0.965320 0.499980 0.899860 -0.593508
O40   O     O_R   0.034680 0.499980 0.100140 -0.593514
O41   O     O_R   0.534680 0.999980 0.969230 -0.618962
O42   O     O_R   0.465320 0.999980 0.030770 -0.618946
O43   O     O_R   0.034680 0.499980 0.969230 -0.618957
O44   O     O_R   0.965320 0.499980 0.030770 -0.618947
C115  C     C_R   0.499921 0.998234 0.913507 0.928042
C116  C     C_R   0.500079 0.998234 0.086493 0.928071
C117  C     C_R   0.999921 0.498234 0.913507 0.928062
C118  C     C_R   0.000079 0.498234 0.086493 0.928042
Zn9   Zn    Zn3+2 0.453690 0.999980 0.953700 1.039061
Zn10  Zn    Zn3+2 0.546310 0.999980 0.046300 1.038937
Zn11  Zn    Zn3+2 0.953690 0.499980 0.953700 1.039047
Zn12  Zn    Zn3+2 0.046310 0.499980 0.046300 1.038998
O45   O     O_R   0.465320 0.934500 0.965310 -0.623006
O46   O     O_R   0.534680 0.934500 0.034690 -0.623022
O47   O     O_R   0.965320 0.434500 0.965310 -0.622996
O48   O     O_R   0.034680 0.434500 0.034690 -0.623028
C119  C     C_R   0.500000 0.913571 0.000000 0.858923
C120  C     C_R   1.000000 0.413571 0.999999 0.858923
C121  C     C_R   0.991873 0.796647 0.952439 0.405034
C122  C     C_R   0.008132 0.796648 0.047565 0.404906
C123  C     C_R   0.491870 0.296647 0.952436 0.404947
C124  C     C_R   0.508127 0.296647 0.047561 0.404986
C125  C     C_R   0.992048 0.842775 0.952895 -0.291606
C126  C     C_R   0.007956 0.842775 0.047109 -0.292159
C127  C     C_R   0.492045 0.342775 0.952893 -0.291986
C128  C     C_R   0.507952 0.342775 0.047105 -0.291761
H41   H     H_    0.985784 0.860601 0.916373 0.178272
H42   H     H_    0.014220 0.860601 0.083630 0.178176
H43   H     H_    0.485782 0.360601 0.916372 0.178219
H44   H     H_    0.514216 0.360601 0.083626 0.178247
C129  C     C_R   0.000002 0.865778 0.000001 -0.115421
C130  C     C_R   0.499999 0.365778 0.999999 -0.115427
C131  C     C_R   0.000002 0.773973 0.000002 -0.025131
C132  C     C_R   0.499998 0.273972 0.999998 -0.025136
C133  C     C_R   0.537608 0.203350 0.044179 -0.078145
C134  C     C_R   0.462390 0.203349 0.955819 -0.078089
C135  C     C_R   0.037610 0.703349 0.044181 -0.078059
C136  C     C_R   0.962392 0.703350 0.955822 -0.078173
H45   H     H_    0.566748 0.221094 0.078328 0.154917
H46   H     H_    0.433250 0.221093 0.921669 0.154919
H47   H     H_    0.066751 0.721092 0.078330 0.154910
H48   H     H_    0.933253 0.721094 0.921672 0.154946
C137  C     C_R   0.537666 0.157558 0.044111 -0.179508
C138  C     C_R   0.462333 0.157558 0.955887 -0.179474
C139  C     C_R   0.037667 0.657558 0.044112 -0.179496
C140  C     C_R   0.962334 0.657559 0.955889 -0.179477
H49   H     H_    0.567034 0.140309 0.078617 0.176399
H50   H     H_    0.432965 0.140308 0.921382 0.176421
H51   H     H_    0.067035 0.640308 0.078618 0.176407
H52   H     H_    0.932965 0.640309 0.921384 0.176425
C141  C     C_R   0.500000 0.134467 0.999999 -0.054353
C142  C     C_R   0.000000 0.634467 0.000000 -0.054358
C143  C     C_R   0.499999 0.226099 0.999998 0.214454
C144  C     C_R   0.000002 0.726100 0.000001 0.214443
C145  C     C_R   0.028020 0.203307 0.000284 0.215357
C146  C     C_R   0.971985 0.203309 0.999705 0.215332
C147  C     C_R   0.528017 0.703308 0.000294 0.215349
C148  C     C_R   0.471981 0.703307 0.999712 0.215336
C149  C     C_R   0.028338 0.157108 0.000969 0.182220
C150  C     C_R   0.971671 0.157110 0.999030 0.181889
C151  C     C_R   0.528333 0.657109 0.000972 0.181970
C152  C     C_R   0.471664 0.657108 0.999029 0.182115
C153  C     C_R   0.000006 0.134219 0.000004 -0.364622
C154  C     C_R   0.499998 0.634218 0.999999 -0.364607
C155  C     C_R   0.000002 0.226128 0.999993 -0.261109
C156  C     C_R   0.499999 0.726127 0.000003 -0.261112
C157  C     C_R   0.464444 0.796948 0.949918 -0.048675
C158  C     C_R   0.535555 0.796948 0.050088 -0.048626
C159  C     C_R   0.964447 0.296948 0.949909 -0.048592
C160  C     C_R   0.035558 0.296948 0.050078 -0.048693
H53   H     H_    0.436978 0.779243 0.910995 0.160630
H54   H     H_    0.563020 0.779243 0.089011 0.160688
H55   H     H_    0.936981 0.279244 0.910986 0.160746
H56   H     H_    0.063024 0.279243 0.089000 0.160598
C161  C     C_R   0.464314 0.842720 0.950081 -0.168489
C162  C     C_R   0.535685 0.842721 0.049922 -0.168489
C163  C     C_R   0.964316 0.342721 0.950076 -0.168452
C164  C     C_R   0.035687 0.342720 0.049916 -0.168504
H57   H     H_    0.436624 0.860087 0.911041 0.171578
H58   H     H_    0.563375 0.860088 0.088962 0.171576
H59   H     H_    0.936625 0.360088 0.911037 0.171607
H60   H     H_    0.063377 0.360088 0.088957 0.171561
C165  C     C_R   0.500000 0.865712 0.000001 -0.047080
C166  C     C_R   0.000001 0.365712 0.999997 -0.047087
C167  C     C_R   0.499999 0.774145 0.000003 0.215938
C168  C     C_R   0.000002 0.274145 0.999993 0.215920
O49   O     O_3   0.290233 0.950152 0.224586 -0.684786
H61   H     H_    0.273257 0.967857 0.186909 0.429512
O50   O     O_3   0.709784 0.955579 0.779236 -0.684362
H62   H     H_    0.726762 0.974885 0.815435 0.429679
O51   O     O_3   0.790222 0.453727 0.221997 -0.684508
H63   H     H_    0.773245 0.472510 0.185289 0.429623
O52   O     O_3   0.209771 0.451388 0.776342 -0.684711
H64   H     H_    0.226748 0.469475 0.813687 0.429548
O53   O     O_3   0.207237 0.944304 0.146203 -0.691796
H65   H     H_    0.179358 0.930853 0.124027 0.351513
O54   O     O_3   0.792783 0.949383 0.858092 -0.691176
H66   H     H_    0.820669 0.935533 0.881359 0.352245
O55   O     O_3   0.707224 0.447644 0.143303 -0.691371
H67   H     H_    0.679340 0.433920 0.120404 0.352001
O56   O     O_3   0.292768 0.445455 0.854832 -0.691665
H68   H     H_    0.320648 0.431904 0.877259 0.351677
N1    N     N_R   0.531988 0.076837 0.669676 0.224256
O57   O     O_R   0.563566 0.073574 0.674302 -0.357618
O58   O     O_R   0.521283 0.115705 0.673424 -0.331236
N2    N     N_R   0.467970 0.076819 0.330286 0.224226
O59   O     O_R   0.436402 0.073536 0.325679 -0.359412
O60   O     O_R   0.478648 0.115694 0.326506 -0.331736
N3    N     N_R   0.032018 0.576824 0.669704 0.224239
O61   O     O_R   0.063589 0.573547 0.674316 -0.359016
O62   O     O_R   0.021333 0.615698 0.673474 -0.331547
N4    N     N_R   0.967997 0.576830 0.330310 0.224243
O63   O     O_R   0.936423 0.573561 0.325691 -0.358279
O64   O     O_R   0.978693 0.615701 0.326552 -0.331431
N5    N     N_R   0.425692 0.978957 0.697062 0.244023
O65   O     O_R   0.413675 0.007060 0.655132 -0.326035
O66   O     O_R   0.401744 0.945378 0.682252 -0.288973
N6    N     N_R   0.574309 0.978990 0.302943 0.243918
O67   O     O_R   0.586315 0.007099 0.344861 -0.328062
O68   O     O_R   0.598270 0.945419 0.317767 -0.289380
N7    N     N_R   0.925691 0.478981 0.697058 0.243963
O69   O     O_R   0.913682 0.507088 0.655137 -0.327348
O70   O     O_R   0.901733 0.445408 0.682238 -0.289218
N8    N     N_R   0.074309 0.478969 0.302940 0.243998
O71   O     O_R   0.086322 0.507074 0.344866 -0.326518
O72   O     O_R   0.098262 0.445392 0.317755 -0.289049
O73   O     O_3   0.427203 0.969605 0.789110 -0.664257
H69   H     H_    0.435194 0.948301 0.820445 0.344313
O74   O     O_3   0.572806 0.969636 0.210902 -0.664374
H70   H     H_    0.564823 0.948323 0.179581 0.344341
O75   O     O_3   0.927197 0.469628 0.789101 -0.664309
H71   H     H_    0.935182 0.448317 0.820426 0.344335
O76   O     O_3   0.072800 0.469616 0.210894 -0.664297
H72   H     H_    0.064812 0.448309 0.179564 0.344324
O77   O     O_3   0.290253 0.919141 0.292569 -0.700701
H73   H     H_    0.281737 0.891663 0.268530 0.364670
O78   O     O_3   0.709768 0.919203 0.713957 -0.700648
H74   H     H_    0.718297 0.893065 0.740153 0.364712
O79   O     O_3   0.790239 0.419125 0.288230 -0.700674
H75   H     H_    0.781714 0.392518 0.262745 0.364695
O80   O     O_3   0.209752 0.419109 0.708949 -0.700689
H76   H     H_    0.218271 0.391927 0.733500 0.364675
O81   O     O_3   0.577613 0.011927 0.856186 -0.713970
H77   H     H_    0.577514 0.000582 0.825531 0.353716
O82   O     O_3   0.422377 0.011896 0.143801 -0.714008
H78   H     H_    0.422478 0.000550 0.174459 0.353658
O83   O     O_3   0.077620 0.511905 0.856194 -0.713990
H79   H     H_    0.077519 0.500559 0.825538 0.353664
O84   O     O_3   0.922384 0.511915 0.143811 -0.713986
H80   H     H_    0.922484 0.500570 0.174466 0.353700
O85   O     O_3   0.984388 0.773030 0.906761 -0.741266
H81   H     H_    0.979331 0.793975 0.877136 0.351704
O86   O     O_3   0.015618 0.773030 0.093243 -0.741462
H82   H     H_    0.020675 0.793975 0.122868 0.351587
O87   O     O_3   0.484385 0.273030 0.906759 -0.741364
H83   H     H_    0.479329 0.293975 0.877134 0.351643
O88   O     O_3   0.515611 0.273030 0.093238 -0.741356
H84   H     H_    0.520668 0.293975 0.122862 0.351658
N9    N     N_R   0.056517 0.227026 0.000704 0.239424
O89   O     O_R   0.042572 0.257086 0.959813 -0.338973
O90   O     O_R   0.096512 0.218515 0.041883 -0.290018
N10   N     N_R   0.943481 0.227031 0.999269 0.239372
O91   O     O_R   0.957420 0.257090 0.040157 -0.339018
O92   O     O_R   0.903486 0.218523 0.958074 -0.287911
N11   N     N_R   0.556520 0.727029 0.000727 0.239384
O93   O     O_R   0.542580 0.757088 0.959838 -0.339050
O94   O     O_R   0.596515 0.718520 0.041917 -0.288676
N12   N     N_R   0.443482 0.727028 0.999286 0.239419
O95   O     O_R   0.457424 0.757087 0.040176 -0.338944
O96   O     O_R   0.403487 0.718518 0.958102 -0.289514
N13   N     N_R   0.057544 0.133512 0.002866 0.258760
O97   O     O_R   0.083766 0.105602 0.046575 -0.353619
O98   O     O_R   0.059005 0.141032 0.962144 -0.266445
N14   N     N_R   0.942457 0.133516 0.997117 0.259109
O99   O     O_R   0.916270 0.105572 0.953440 -0.350584
O100  O     O_R   0.940964 0.141056 0.037802 -0.266417
N15   N     N_R   0.557546 0.633514 0.002883 0.258997
O101  O     O_R   0.583746 0.605584 0.046574 -0.351592
O102  O     O_R   0.559029 0.641046 0.962187 -0.266420
N16   N     N_R   0.442454 0.633513 0.997125 0.258845
O103  O     O_R   0.416240 0.605597 0.953421 -0.352905
O104  O     O_R   0.440985 0.641037 0.037837 -0.266377
N17   N     N_R   0.292432 0.971667 0.370416 0.287077
O105  O     O_R   0.327587 0.980946 0.425340 -0.338802
O106  O     O_R   0.273066 0.935234 0.361359 -0.308034
N18   N     N_R   0.707585 0.965495 0.632142 0.286983
O107  O     O_R   0.672463 0.973173 0.576516 -0.339667
O108  O     O_R   0.726945 0.928336 0.644177 -0.309089
N19   N     N_R   0.792420 0.467542 0.368770 0.287021
O109  O     O_R   0.827555 0.475762 0.424173 -0.339368
O110  O     O_R   0.773057 0.430600 0.357740 -0.308763
N20   N     N_R   0.207572 0.470214 0.630135 0.287057
O111  O     O_R   0.172424 0.479126 0.575036 -0.338999
O112  O     O_R   0.226936 0.433589 0.639879 -0.308273
O113  O     O_3   0.290503 0.042137 0.220046 -0.660650
H85   H     H_    0.319114 0.054993 0.250281 0.368796
O114  O     O_3   0.709473 0.047642 0.776376 -0.659955
H86   H     H_    0.680854 0.060308 0.745112 0.368988
O115  O     O_3   0.790519 0.545830 0.222376 -0.660196
H87   H     H_    0.819136 0.558567 0.253298 0.368938
O116  O     O_3   0.209492 0.543443 0.779162 -0.660474
H88   H     H_    0.180878 0.556261 0.748686 0.368863
N21   N     N_R   0.206563 0.046550 0.136162 0.290005
O117  O     O_R   0.182122 0.080261 0.104688 -0.282486
O118  O     O_R   0.214363 0.019749 0.111515 -0.244719
N22   N     N_R   0.793403 0.052067 0.859906 0.290528
O119  O     O_R   0.817742 0.086308 0.888599 -0.280417
O120  O     O_R   0.785641 0.027925 0.886611 -0.243042
N23   N     N_R   0.706585 0.550253 0.138727 0.290337
O121  O     O_R   0.682207 0.584337 0.109093 -0.281033
O122  O     O_R   0.714362 0.525203 0.112690 -0.243631
N24   N     N_R   0.293430 0.547861 0.862964 0.290123
O123  O     O_R   0.317851 0.581711 0.893798 -0.281903
O124  O     O_R   0.285637 0.521665 0.888107 -0.244345

loop_
_geom_bond_atom_site_label_1
_geom_bond_atom_site_label_2
_geom_bond_distance
_ccdc_geom_bond_type
O87   H83   0.991732 S    
C17   C33   1.553823 S    
N23   O122  1.300010 A    
C13   H5    1.115207 S    
C86   C90   1.415792 A    
O50   H62   0.986884 S    
O46   C119  1.274178 A    
C128  H44   1.083398 S    
C148  C152  1.398398 A    
C15   H7    1.115208 S    
O77   H73   0.993490 S    
O75   H71   0.991044 S    
C11   C31   1.575686 S    
C126  C129  1.400087 A    
O30   C111  1.284316 A    
C145  C149  1.398402 A    
O21   Zn5   1.994194 S    
C131  C144  1.448982 S    
C51   C55   1.194755 T    
C22   C46   1.194658 T    
O33   Zn9   2.016571 S    
O34   C113  1.275244 A    
C92   C96   1.398687 A    
O19   Zn7   2.017546 S    
C121  C125  1.396200 A    
C136  H48   1.083593 S    
C13   N17   1.473252 S    
O82   H78   0.988873 S    
C93   H37   1.083865 S    
C81   C85   1.397033 A    
C90   C94   1.398690 A    
C96   H40   1.083865 S    
C147  N11   1.438241 S    
C34   C38   1.565814 S    
N8    O71   1.301391 A    
C163  H59   1.083278 S    
O4    C4    1.286913 A    
C3    C67   1.458063 S    
C85   C89   1.415792 A    
O35   C114  1.275245 A    
C159  C163  1.385447 A    
O38   C116  1.274939 A    
N24   O124  1.300021 A    
C124  C128  1.396200 A    
C150  N14   1.437200 S    
O17   C105  1.287080 A    
N7    O69   1.301391 A    
O17   Zn5   2.017546 S    
C163  C166  1.401401 A    
O18   Zn6   2.017547 S    
C50   C54   1.194753 T    
O16   Zn4   1.993958 S    
N4    O63   1.301537 A    
O55   H67   0.992932 S    
C137  C141  1.402875 A    
O13   C5    1.281690 A    
O7    Zn4   2.022953 S    
C149  N13   1.437211 S    
Zn8   O32   2.017605 S    
O15   C7    1.281681 A    
O4    Zn2   2.022064 S    
O56   H68   0.992934 S    
C32   C36   1.565053 S    
O9    C5    1.281745 A    
C82   C102  1.412232 A    
C84   N8    1.439772 S    
O40   Zn12  2.021630 S    
C40   N24   1.472762 S    
O28   C110  1.283554 A    
C25   C49   1.460667 S    
C32   O56   1.407503 S    
N22   O120  1.300009 A    
O43   Zn12  2.019908 S    
C87   C91   1.415791 A    
C57   C77   1.395787 A    
O8    Zn4   2.022954 S    
C59   H27   1.084058 S    
C80   C104  1.454084 S    
C12   O52   1.415612 S    
C10   O78   1.407543 S    
C79   C103  1.454087 S    
O3    Zn2   2.022059 S    
C75   C79   1.394407 A    
O25   C107  1.283562 A    
C138  C141  1.402874 A    
C71   H31   1.083242 S    
C40   H24   1.116535 S    
C147  C151  1.398394 A    
N13   O98   1.301144 A    
C14   N18   1.473231 S    
N21   O117  1.301286 A    
C81   C101  1.412237 A    
C30   C34   1.565079 S    
C42   H18   1.118707 S    
C132  C143  1.448982 S    
C34   C46   1.458506 S    
C75   H35   1.083633 S    
O3    C3    1.286908 A    
N20   O111  1.301260 A    
O34   Zn10  2.016571 S    
O76   H72   0.991046 S    
C73   H33   1.083632 S    
C74   C78   1.394408 A    
C13   C25   1.573688 S    
O88   H84   0.991733 S    
C19   C35   1.553819 S    
C15   C27   1.573675 S    
C16   C28   1.573685 S    
N4    O64   1.301247 A    
O16   C8    1.281688 A    
C82   N6    1.439770 S    
C140  H52   1.083093 S    
N6    O68   1.301243 A    
N17   O106  1.302130 A    
C19   H11   1.110938 S    
C9    O77   1.407554 S    
O83   H79   0.988873 S    
C162  C165  1.401405 A    
O84   H80   0.988871 S    
C145  C155  1.408762 A    
O24   C110  1.283817 A    
O115  H87   0.992793 S    
C159  C168  1.397992 A    
C38   H22   1.116532 S    
C26   C50   1.460648 S    
O23   Zn7   1.994194 S    
C105  C129  1.454445 S    
C31   O55   1.407501 S    
C59   C63   1.391799 A    
C123  C127  1.396200 A    
O114  H86   0.992792 S    
C61   N1    1.435795 S    
N10   O91   1.301269 A    
N5    O66   1.301242 A    
C70   H30   1.083240 S    
C146  N10   1.438239 S    
C147  C156  1.408762 A    
C37   N21   1.472760 S    
O5    Zn3   2.022953 S    
C83   C87   1.397031 A    
C123  O87   1.382304 S    
C25   C41   1.569345 S    
N18   O107  1.301258 A    
N1    O58   1.301247 A    
C14   H6    1.115210 S    
C148  C156  1.408765 A    
C62   C66   1.417639 A    
C17   H13   1.113956 S    
C114  C142  1.452753 S    
C160  C164  1.385446 A    
C42   O114  1.407631 S    
C111  C153  1.450976 S    
O21   C107  1.283814 A    
C146  C150  1.398390 A    
C81   N5    1.439772 S    
C8    C56   1.415207 S    
O39   C117  1.274939 A    
N2    O60   1.301246 A    
O7    C3    1.283818 A    
C35   C47   1.458503 S    
C9    C25   1.575220 S    
C136  C144  1.396708 A    
C57   H25   1.084056 S    
O20   Zn8   2.017547 S    
O13   Zn3   1.993965 S    
C11   C27   1.575211 S    
C12   C28   1.575219 S    
Zn12  O48   2.016277 S    
C29   O53   1.407506 S    
C60   C64   1.391797 A    
C112  C154  1.450973 S    
C126  H42   1.083398 S    
C161  C165  1.401404 A    
C68   C72   1.403938 A    
N7    O70   1.301244 A    
C95   C99   1.382441 A    
C91   C95   1.398689 A    
O5    C1    1.283815 A    
O51   H63   0.986886 S    
O36   Zn12  2.016571 S    
O44   C118  1.278210 A    
O48   C120  1.274177 A    
O8    C4    1.283812 A    
C39   H23   1.116532 S    
O49   H61   0.986887 S    
C157  C161  1.385446 A    
C43   O115  1.407625 S    
C66   C70   1.403935 A    
O15   Zn4   1.993965 S    
C10   O50   1.415612 S    
C65   C69   1.403943 A    
N18   O108  1.302124 A    
C67   C71   1.403940 A    
N3    O62   1.301247 A    
C9    C29   1.575678 S    
C89   C115  1.460152 S    
N19   O110  1.302122 A    
O86   H82   0.991729 S    
C137  H49   1.083093 S    
C37   C41   1.561524 S    
C60   C80   1.395787 A    
O14   C6    1.281680 A    
C26   C42   1.569329 S    
C44   O116  1.407624 S    
C40   C44   1.561521 S    
C151  N15   1.437204 S    
C135  H47   1.083593 S    
Zn7   O31   2.017606 S    
C139  H51   1.083092 S    
C84   C104  1.412234 A    
C95   H39   1.083867 S    
C133  H45   1.083596 S    
C134  C143  1.396706 A    
C1    C65   1.458072 S    
O10   C6    1.281752 A    
C83   C103  1.412235 A    
O113  H85   0.992795 S    
C38   N22   1.472763 S    
C39   C43   1.561515 S    
O27   C109  1.283540 A    
C63   N3    1.435796 S    
C16   H8    1.115206 S    
C21   C45   1.194645 T    
C164  C166  1.401404 A    
C123  C132  1.403469 A    
C139  C142  1.402875 A    
C121  O85   1.382303 S    
O26   C108  1.283532 A    
H3    C31   1.118985 S    
O25   Zn6   1.993847 S    
N8    O72   1.301245 A    
C12   O80   1.407550 S    
C69   C73   1.382064 A    
C4    C68   1.458070 S    
C71   C75   1.382061 A    
C18   C34   1.553826 S    
N16   O103  1.301159 A    
C151  C154  1.409681 A    
C127  H43   1.083400 S    
C64   C68   1.417646 A    
C158  C167  1.397993 A    
O80   H76   0.993489 S    
C150  C153  1.409684 A    
O85   H81   0.991731 S    
N15   O101  1.301155 A    
C5    C53   1.415209 S    
N14   O99   1.301150 A    
O47   C120  1.274176 A    
N9    O90   1.301209 A    
C87   O75   1.378462 S    
C100  C104  1.414667 A    
C23   C47   1.194651 T    
C76   C80   1.394407 A    
C74   H34   1.083633 S    
C57   C61   1.391795 A    
C14   C26   1.573668 S    
C100  O84   1.382273 S    
C135  C139  1.385984 A    
O73   H69   0.991046 S    
C124  O88   1.382304 S    
C23   C109  1.415200 S    
C19   H15   1.113950 S    
N11   O93   1.301267 A    
C20   H16   1.113952 S    
C33   C37   1.565773 S    
C20   C36   1.553822 S    
C2    C66   1.458064 S    
C88   C92   1.415791 A    
O22   C108  1.283848 A    
O20   C106  1.287080 A    
O23   C109  1.283845 A    
C99   O83   1.382272 S    
C121  C131  1.403469 A    
C64   N4    1.435796 S    
C28   C44   1.569341 S    
N12   O95   1.301267 A    
O12   Zn2   1.993958 S    
C41   O113  1.407621 S    
C122  C131  1.403466 A    
C119  C165  1.448570 S    
C39   N23   1.472762 S    
O1    C1    1.286915 A    
C90   C116  1.460162 S    
C82   C86   1.397034 A    
O52   H64   0.986887 S    
C21   C107  1.415188 S    
C49   C53   1.194763 T    
C125  H41   1.083398 S    
C15   C19   1.560650 S    
O74   H70   0.991046 S    
C149  C153  1.409682 A    
Zn5   O29   2.017606 S    
C17   H9    1.110934 S    
O78   H74   0.993491 S    
C18   H14   1.113951 S    
C160  H56   1.083513 S    
C134  C138  1.385984 A    
C6    C54   1.415196 S    
N11   O94   1.301209 A    
O39   Zn11  2.021630 S    
N20   O112  1.302125 A    
O44   Zn11  2.019910 S    
C152  N16   1.437207 S    
C83   N7    1.439772 S    
C158  H54   1.083514 S    
C10   C26   1.575206 S    
C156  C167  1.453374 S    
N24   O123  1.301284 A    
C58   C62   1.391801 A    
C97   C101  1.414668 A    
C60   H28   1.084057 S    
N17   O105  1.301261 A    
C9    O49   1.415614 S    
C148  N12   1.438244 S    
C127  C130  1.400087 A    
C161  H57   1.083277 S    
O32   C112  1.284332 A    
C94   C98   1.382442 A    
C133  C143  1.396708 A    
C84   C88   1.397033 A    
O6    C2    1.283815 A    
N12   O96   1.301206 A    
C72   C76   1.382064 A    
C62   N2    1.435795 S    
C157  H53   1.083514 S    
C125  C129  1.400087 A    
C158  C162  1.385447 A    
C124  C132  1.403466 A    
C16   N20   1.473247 S    
C29   C33   1.565047 S    
O42   Zn9   2.019910 S    
C41   H17   1.118709 S    
N10   O92   1.301210 A    
O2    Zn1   2.022064 S    
C31   C35   1.565066 S    
O10   Zn1   1.993958 S    
C13   C17   1.560685 S    
O35   Zn11  2.016571 S    
C33   C45   1.458495 S    
O27   Zn8   1.993847 S    
N22   O119  1.301271 A    
C152  C154  1.409680 A    
N1    O57   1.301538 A    
C38   C42   1.561510 S    
C15   N19   1.473240 S    
C135  C144  1.396708 A    
C136  C140  1.385984 A    
C91   C117  1.460159 S    
C93   C97   1.382443 A    
C28   C52   1.460663 S    
C89   C93   1.398684 A    
C11   O51   1.415614 S    
C145  N9    1.438244 S    
C98   O82   1.382274 S    
O26   Zn5   1.993847 S    
Zn9   O45   2.016277 S    
N3    O61   1.301540 A    
C96   C100  1.382441 A    
C7    C55   1.415205 S    
O53   H65   0.992937 S    
O116  H88   0.992794 S    
C36   C40   1.565781 S    
C88   O76   1.378463 S    
C86   O74   1.378460 S    
N19   O109  1.301257 A    
C27   C43   1.569332 S    
O79   H75   0.993490 S    
C43   H19   1.118712 S    
C106  C130  1.454448 S    
O38   Zn10  2.021630 S    
C122  O86   1.382307 S    
C120  C166  1.448573 S    
C159  H55   1.083515 S    
O45   C119  1.274177 A    
N21   O118  1.300026 A    
C140  C142  1.402874 A    
N15   O102  1.301146 A    
C122  C126  1.396200 A    
C30   O54   1.407497 S    
C59   C79   1.395787 A    
C69   H29   1.083238 S    
N23   O121  1.301278 A    
O28   Zn7   1.993847 S    
C52   C56   1.194761 T    
C44   H20   1.118708 S    
C128  C130  1.400084 A    
C61   C65   1.417648 A    
C12   C32   1.575683 S    
O11   C7    1.281751 A    
C113  C141  1.452753 S    
O12   C8    1.281750 A    
O1    Zn1   2.022059 S    
O9    Zn1   1.993964 S    
O40   C118  1.274938 A    
C146  C155  1.408764 A    
C76   H36   1.083630 S    
O19   C106  1.287080 A    
Zn6   O30   2.017605 S    
C24   C110  1.415191 S    
C133  C137  1.385984 A    
Zn10  O46   2.016277 S    
C16   C20   1.560673 S    
O54   H66   0.992934 S    
Zn11  O47   2.016277 S    
O11   Zn2   1.993964 S    
H1    C29   1.118986 S    
C20   H12   1.110937 S    
O41   C115  1.278209 A    
C78   C102  1.454090 S    
N14   O100  1.301148 A    
O31   C112  1.284323 A    
C58   C78   1.395788 A    
C11   O79   1.407545 S    
C92   C118  1.460158 S    
O22   Zn6   1.994202 S    
O6    Zn3   2.022954 S    
O43   C117  1.278210 A    
O37   C115  1.274938 A    
C36   C48   1.458497 S    
C10   C30   1.575694 S    
O42   C116  1.278211 A    
C155  C168  1.453371 S    
C37   H21   1.116537 S    
C162  H58   1.083275 S    
C99   C103  1.414668 A    
O41   Zn10  2.019908 S    
H4    C32   1.118986 S    
O2    C2    1.286905 A    
N2    O59   1.301539 A    
C138  H50   1.083092 S    
C73   C77   1.394403 A    
N16   O104  1.301150 A    
C27   C51   1.460656 S    
C14   C18   1.560630 S    
O29   C111  1.284340 A    
C157  C167  1.397991 A    
O14   Zn3   1.993958 S    
C164  H60   1.083279 S    
C77   C101  1.454084 S    
C18   H10   1.110943 S    
C160  C168  1.397991 A    
N9    O89   1.301269 A    
C134  H46   1.083595 S    
N6    O67   1.301392 A    
N13   O97   1.301163 A    
O24   Zn8   1.994202 S    
C35   C39   1.565800 S    
C24   C48   1.194646 T    
O33   C113  1.275242 A    
C97   O81   1.382274 S    
C85   O73   1.378465 S    
C58   H26   1.084058 S    
O37   Zn9   2.021630 S    
N5    O65   1.301394 A    
O36   C114  1.275241 A    
C98   C102  1.414664 A    
O18   C105  1.287080 A    
C22   C108  1.415210 S    
C94   H38   1.083865 S    
H2    C30   1.118986 S    
C63   C67   1.417643 A    
C70   C74   1.382064 A    
O81   H77   0.988868 S    
C72   H32   1.083238 S    
