data_mof_unit_7860.cif
_audit_creation_date              2012-12-10T17:19:53-0500
_audit_creation_method            fapswitch 2.2
_symmetry_space_group_name_H-M    P1
_symmetry_Int_Tables_number       1
_space_group_crystal_system       triclinic
_cell_length_a                    9.636121
_cell_length_b                    10.835597
_cell_length_c                    15.382245
_cell_angle_alpha                 86.142206
_cell_angle_beta                  74.575393
_cell_angle_gamma                 92.252198
_cell_volume                      1542.01653246

loop_
_atom_site_label
_atom_site_type_symbol
_atom_type_description
_atom_site_fract_x
_atom_site_fract_y
_atom_site_fract_z
_atom_type_partial_charge
C1    C     C_R   0.998216 0.262975 0.497256 0.849147
C2    C     C_R   0.652170 0.477076 0.902359 -0.110915
C3    C     C_R   0.723708 0.394496 0.949040 -0.202579
C4    C     C_R   0.507392 0.506002 0.946411 0.018372
C5    C     C_R   0.443802 0.459092 0.037926 -0.146036
C6    C     C_R   0.512551 0.365121 0.076309 0.484074
C7    C     C_R   0.651117 0.335992 0.033389 0.562522
C8    C     C_R   0.421267 0.575954 0.902400 -0.083368
C9    C     C_R   0.285843 0.610528 0.948530 -0.270446
C10   C     C_R   0.229691 0.578078 0.041104 0.073414
C11   C     C_R   0.310582 0.503712 0.086877 0.109606
C12   C     C_R   0.918420 0.500937 0.672757 0.863289
C13   C     C_R   0.093434 0.616691 0.089315 0.251804
C14   C     C_R   0.039515 0.579631 0.181293 -0.205768
C15   C     C_R   0.260800 0.483730 0.181636 -0.182179
C16   C     C_R   0.238360 0.141236 0.387338 -0.143063
C17   C     C_R   0.375493 0.097871 0.369885 -0.219568
C18   C     C_R   0.399869 0.991131 0.419494 0.188060
C19   C     C_R   0.279417 0.914614 0.470601 0.547395
C20   C     C_R   0.137193 0.949765 0.475913 -0.054119
C21   C     C_R   0.122268 0.073932 0.449829 -0.074037
C22   C     C_R   0.994963 0.129462 0.491680 -0.196516
C23   C     C_R   0.002026 0.737726 0.504125 0.821909
C24   C     C_R   0.872836 0.055568 0.540399 0.569296
C25   C     C_R   0.877232 0.927574 0.544152 -0.263866
C26   C     C_R   0.008241 0.872434 0.511236 -0.148103
C27   C     C_R   0.703659 0.663623 0.375736 -0.190454
C28   C     C_R   0.663423 0.739459 0.310323 0.287830
C29   C     C_R   0.518654 0.739344 0.311991 -0.265107
C30   C     C_R   0.415633 0.667300 0.378352 -0.122268
C31   C     C_R   0.453537 0.585490 0.442514 0.211092
C32   C     C_R   0.603151 0.583889 0.441295 0.141775
C33   C     C_R   0.550443 0.413055 0.549281 -0.094079
C34   C     C_R   0.081418 0.503359 0.327731 0.764943
C35   C     C_R   0.405478 0.406196 0.543738 0.322589
C36   C     C_R   0.869407 0.490191 0.773345 -0.218646
C37   C     C_R   0.125281 0.518393 0.228474 -0.130526
C38   C     C_R   0.868974 0.372438 0.912286 -0.135719
C39   C     C_R   0.946438 0.427067 0.826989 0.146280
C40   C     C_R   0.730168 0.526644 0.814257 0.562322
Cu1   Cu    Cu3+1 0.140660 0.499990 0.500010 0.985232
Cu2   Cu    Cu3+1 0.859340 0.500010 0.499990 0.981737
H1    H     H_    0.224716 0.230192 0.355050 0.187956
H2    H     H_    0.462596 0.154951 0.324298 0.216075
H3    H     H_    0.778606 0.871450 0.575074 0.213018
H4    H     H_    0.588187 0.338939 0.586224 0.187199
H5    H     H_    0.815425 0.665261 0.370326 0.201579
H6    H     H_    0.329170 0.446951 0.221106 0.215823
H7    H     H_    0.484507 0.797353 0.262262 0.157486
H8    H     H_    0.307640 0.677417 0.375339 0.196422
H9    H     H_    0.935312 0.608657 0.217367 0.188365
H10   H     H_    0.224616 0.661122 0.909881 0.165707
H11   H     H_    0.922386 0.315524 0.952371 0.216642
H12   H     H_    0.450063 0.599949 0.830849 0.229040
N1    N     N_R   0.648320 0.501210 0.499140 -0.202408
N2    N     N_R   0.352470 0.501290 0.499110 -0.193074
O1    O     O_R   0.118810 0.319640 0.500010 -0.554203
O2    O     O_R   0.881240 0.319660 0.500000 -0.545550
O3    O     O_R   0.055570 0.499980 0.629840 -0.573569
O4    O     O_R   0.818000 0.500010 0.629830 -0.519478
O5    O     O_R   0.118760 0.680340 0.500000 -0.534622
O6    O     O_R   0.881190 0.680360 0.499990 -0.602645
O7    O     O_R   0.182000 0.499990 0.370170 -0.617795
O8    O     O_R   0.944430 0.500020 0.370160 -0.601422
F1    F     F_    0.714541 0.248695 0.074964 -0.644963
N3    N     N_2   0.014719 0.702294 0.049913 -0.432909
H13   H     H_    0.075819 0.772236 0.005978 0.257433
C41   C     C_3   0.900390 0.647229 0.018166 -0.648505
H14   H     H_    0.833657 0.720981 0.000292 0.239382
H15   H     H_    0.829608 0.581191 0.071570 0.238437
H16   H     H_    0.947469 0.598834 0.956900 0.229552
F2    F     F_    0.748790 0.106578 0.582693 -0.672335
N4    N     N_2   0.542725 0.960561 0.420185 -0.405270
H17   H     H_    0.550480 0.898301 0.472178 0.306382
C42   C     C_3   0.657375 0.057411 0.394639 -0.611114
H18   H     H_    0.758277 0.020458 0.403596 0.220949
H19   H     H_    0.629989 0.136229 0.437450 0.246006
H20   H     H_    0.678501 0.089211 0.322002 0.240546
F3    F     F_    0.302181 0.820755 0.527161 -0.666065
N5    N     N_2   0.768275 0.809276 0.238576 -0.416471
H21   H     H_    0.732060 0.850746 0.187011 0.278142
C43   C     C_3   0.890695 0.874299 0.256991 -0.656975
H22   H     H_    0.890685 0.974793 0.237377 0.240880
H23   H     H_    0.992042 0.839264 0.216025 0.237762
H24   H     H_    0.889527 0.863423 0.329378 0.206858
N6    N     N_2   0.335232 0.285946 0.558889 -0.395822
H25   H     H_    0.400097 0.220597 0.525921 0.246843
C44   C     C_3   0.264873 0.242384 0.651118 -0.597591
H26   H     H_    0.339286 0.252978 0.694507 0.215033
H27   H     H_    0.230765 0.142628 0.654437 0.224919
H28   H     H_    0.166030 0.292187 0.674720 0.278573
N7    N     N_2   0.100339 0.426851 0.797167 -0.429424
H29   H     H_    0.150732 0.510317 0.766350 0.282187
C45   C     C_3   0.178388 0.361148 0.852646 -0.702435
H30   H     H_    0.296074 0.374332 0.820261 0.232789
H31   H     H_    0.147456 0.260424 0.859534 0.245880
H32   H     H_    0.156224 0.397138 0.920464 0.244592
F4    F     F_    0.678740 0.615635 0.767112 -0.681519
F5    F     F_    0.443079 0.292287 0.151867 -0.667619

loop_
_geom_bond_atom_site_label_1
_geom_bond_atom_site_label_2
_ccdc_geom_bond_type
C33   N1    A    
N3    C41   S    
C16   C21   A    
C25   H3    S    
C34   C37   S    
Cu1   Cu2   S    
C19   C20   A    
Cu1   O5    S    
C4    C8    A    
Cu2   O2    S    
C29   H7    S    
C5    C6    A    
N7    H29   S    
C28   C29   A    
C5    C11   A    
C3    C7    A    
C40   F4    S    
C38   C39   A    
C35   N6    S    
N6    C44   S    
C18   C19   A    
N4    H17   S    
C23   C26   S    
C15   C37   A    
C41   H14   S    
C12   O3    A    
C11   C15   A    
C23   O6    A    
C14   H9    S    
C3    C38   A    
C16   C17   A    
C31   N2    A    
C12   C36   S    
C9    C10   A    
Cu2   O6    S    
C32   N1    A    
C45   H31   S    
N3    H13   S    
C30   H8    S    
C1    C22   S    
C21   C22   A    
C33   H4    S    
N4    C42   S    
C9    H10   S    
C15   H6    S    
C34   O8    A    
C13   N3    S    
C36   C40   A    
C24   C25   A    
Cu1   O3    S    
N5    C43   S    
Cu2   O4    S    
N6    H25   S    
C8    C9    A    
C45   H32   S    
C25   C26   A    
C2    C4    A    
C42   H18   S    
Cu1   N2    S    
C29   C30   A    
C1    O1    A    
Cu2   N1    S    
C7    F1    S    
C31   C32   A    
C44   H28   S    
C23   O5    A    
N7    C45   S    
C17   C18   A    
C44   H26   S    
C19   F3    S    
C42   H19   S    
C16   H1    S    
C44   H27   S    
C18   N4    S    
C43   H23   S    
C22   C24   A    
Cu1   O7    S    
C8    H12   S    
Cu2   O8    S    
C39   N7    S    
C24   F2    S    
C27   H5    S    
C35   N2    A    
C36   C39   A    
N5    H21   S    
C10   C13   A    
C6    C7    A    
C43   H24   S    
C6    F5    S    
C2    C3    A    
C17   H2    S    
Cu1   O1    S    
C1    O2    A    
C14   C37   A    
C30   C31   A    
C38   H11   S    
C20   C26   A    
C41   H16   S    
C34   O7    A    
C33   C35   A    
C45   H30   S    
C28   N5    S    
C42   H20   S    
C10   C11   A    
C27   C32   A    
C12   O4    A    
C2    C40   A    
C4    C5    A    
C20   C21   A    
C41   H15   S    
C43   H22   S    
C27   C28   A    
C13   C14   A    
