data_mof_unit_44716.cif
_audit_creation_date              2012-12-11T15:31:32-0500
_audit_creation_method            fapswitch 2.2
_symmetry_space_group_name_H-M    P1
_symmetry_Int_Tables_number       1
_space_group_crystal_system       triclinic
_cell_length_a                    6.945472
_cell_length_b                    14.773335
_cell_length_c                    21.309334
_cell_angle_alpha                 75.295755
_cell_angle_beta                  90.258506
_cell_angle_gamma                 90.620861
_cell_volume                      2114.7655932

loop_
_atom_site_label
_atom_site_type_symbol
_atom_type_description
_atom_site_fract_x
_atom_site_fract_y
_atom_site_fract_z
_atom_type_partial_charge
O1    O     O_R   0.648150 0.130050 0.214300 -0.537348
O2    O     O_R   0.351850 0.869950 0.785700 -0.537348
O3    O     O_R   0.320490 0.006660 0.340150 -0.523150
O4    O     O_R   0.679510 0.993340 0.659850 -0.523150
O5    O     O_R   0.146100 0.869940 0.285700 -0.545944
O6    O     O_R   0.853900 0.130060 0.714300 -0.545944
C1    C     C_R   0.489022 0.002414 0.366914 0.763599
C2    C     C_R   0.510978 0.997586 0.633086 0.763600
O7    O     O_R   0.318690 0.137980 0.218120 -0.535544
O8    O     O_R   0.681310 0.862020 0.781880 -0.535544
O9    O     O_R   0.144280 0.002190 0.162800 -0.543793
O10   O     O_R   0.855720 0.997810 0.837200 -0.543793
C3    C     C_R   0.488380 0.175389 0.206652 0.730575
C4    C     C_R   0.511620 0.824610 0.793348 0.730575
O11   O     O_R   0.649960 0.997790 0.337200 -0.541207
O12   O     O_R   0.350040 0.002210 0.662800 -0.541207
O13   O     O_3   0.479300 0.955290 0.231990 -0.383755
O14   O     O_3   0.520700 0.044710 0.768010 -0.383755
V1    V     V_3+5 0.206040 0.008290 0.253340 1.509700
V2    V     V_3+5 0.793960 0.991710 0.746660 1.509700
O15   O     O_R   0.814320 0.993320 0.159850 -0.542255
O16   O     O_R   0.185680 0.006680 0.840150 -0.542254
C5    C     C_R   0.982576 0.998363 0.132843 0.679881
C6    C     C_R   0.017424 0.001637 0.867157 0.679880
O17   O     O_R   0.816120 0.862000 0.281880 -0.546166
O18   O     O_R   0.183880 0.138000 0.718120 -0.546165
C7    C     C_R   0.983982 0.824682 0.295141 0.684251
C8    C     C_R   0.016018 0.175318 0.704859 0.684251
V3    V     V_3+5 0.705540 0.991700 0.246660 1.474154
V4    V     V_3+5 0.294460 0.008300 0.753340 1.474154
O19   O     O_3   0.982150 0.044700 0.268010 -0.353767
O20   O     O_3   0.017850 0.955300 0.731990 -0.353766
C9    C     C_R   0.989891 0.723465 0.322641 -0.032409
C10   C     C_R   0.010109 0.276535 0.677359 -0.032409
C11   C     C_R   0.983898 0.567306 0.307937 -0.161250
C12   C     C_R   0.016102 0.432694 0.692063 -0.161250
C13   C     C_R   0.982061 0.663500 0.281869 -0.171704
C14   C     C_R   0.017940 0.336500 0.718130 -0.171705
C15   C     C_R   0.997567 0.687268 0.389942 -0.201372
C16   C     C_R   0.002433 0.312732 0.610058 -0.201372
C17   C     C_R   0.996380 0.589233 0.418386 0.091537
C18   C     C_R   0.003620 0.410766 0.581614 0.091537
C19   C     C_R   0.991368 0.528857 0.375785 0.077148
C20   C     C_R   0.008632 0.471142 0.624215 0.077148
C21   C     C_R   0.999717 0.549688 0.487330 0.037170
C22   C     C_R   0.000283 0.450312 0.512670 0.037170
C23   C     C_R   0.998597 0.393501 0.468315 -0.189756
C24   C     C_R   0.001403 0.606499 0.531685 -0.189756
C25   C     C_R   0.993844 0.431365 0.401462 -0.076348
C26   C     C_R   0.006156 0.568635 0.598538 -0.076348
H1    H     H_    0.996705 0.261818 0.581836 0.107305
H2    H     H_    0.003295 0.738182 0.418164 0.107305
H3    H     H_    0.025199 0.308732 0.770287 0.100016
H4    H     H_    0.974801 0.691268 0.229713 0.100016
H5    H     H_    0.978436 0.523334 0.274321 0.120470
H6    H     H_    0.021564 0.476666 0.725678 0.120470
H7    H     H_    0.001411 0.318317 0.483965 0.160842
H8    H     H_    0.998589 0.681683 0.516035 0.160842
C27   C     C_3   0.925044 0.920017 0.991166 -0.133665
C28   C     C_3   0.074956 0.079983 0.008834 -0.133665
C29   C     C_3   0.100267 0.927195 0.035021 -0.134165
C30   C     C_3   0.899733 0.072805 0.964979 -0.134165
H9    H     H_    0.182845 0.867146 0.064322 0.124417
H10   H     H_    0.817155 0.132854 0.935678 0.124417
H11   H     H_    0.863490 0.854010 0.983441 0.123802
H12   H     H_    0.136510 0.145990 0.016558 0.123802
C31   C     C_3   0.990784 0.998881 0.062212 -0.027788
C32   C     C_3   0.009216 0.001119 0.937787 -0.027788
C33   C     C_3   0.815324 0.991700 0.019162 -0.081369
C34   C     C_3   0.184676 0.008300 0.980838 -0.081369
H13   H     H_    0.662828 0.984695 0.035230 0.132549
H14   H     H_    0.337172 0.015304 0.964770 0.132549
C35   C     C_3   0.675544 0.023959 0.473957 -0.192078
C36   C     C_3   0.324456 0.976041 0.526043 -0.192078
C37   C     C_3   0.550457 0.085187 0.507092 -0.217506
C38   C     C_3   0.449543 0.914813 0.492908 -0.217506
H15   H     H_    0.590417 0.155595 0.512881 0.156939
H16   H     H_    0.409583 0.844405 0.487119 0.156939
H17   H     H_    0.820463 0.042638 0.452626 0.202396
H18   H     H_    0.179537 0.957362 0.547374 0.202396
C39   C     C_3   0.503885 0.998105 0.562637 -0.143792
C40   C     C_3   0.496115 0.001895 0.437363 -0.143792
C41   C     C_3   0.627640 0.937662 0.529905 0.456064
C42   C     C_3   0.372360 0.062338 0.470095 0.456063
C43   C     C_R   0.500412 0.276591 0.177653 -0.121130
C44   C     C_R   0.499588 0.723408 0.822347 -0.121130
C45   C     C_R   0.556003 0.433129 0.189531 -0.195664
C46   C     C_R   0.443997 0.566871 0.810469 -0.195664
C47   C     C_R   0.522060 0.338532 0.217547 -0.061875
C48   C     C_R   0.477940 0.661468 0.782453 -0.061876
C49   C     C_R   0.502503 0.310648 0.109440 -0.106675
C50   C     C_R   0.497497 0.689352 0.890560 -0.106675
C51   C     C_R   0.507090 0.409123 0.080798 0.041089
C52   C     C_R   0.492910 0.590877 0.919202 0.041089
C53   C     C_R   0.553377 0.468179 0.122019 0.124541
C54   C     C_R   0.446623 0.531821 0.877981 0.124541
C55   C     C_R   0.476669 0.451617 0.013058 0.056899
C56   C     C_R   0.523331 0.548383 0.986942 0.056899
C57   C     C_R   0.606628 0.597953 0.028872 -0.171189
C58   C     C_R   0.393372 0.402047 0.971128 -0.171189
C59   C     C_R   0.608106 0.560897 0.095449 -0.187446
C60   C     C_R   0.391894 0.439103 0.904551 -0.187446
H19   H     H_    0.660826 0.604028 0.126256 0.122163
H20   H     H_    0.339174 0.395972 0.873744 0.122163
H21   H     H_    0.586312 0.479633 0.220535 0.119109
H22   H     H_    0.413688 0.520367 0.779465 0.119109
H23   H     H_    0.674966 0.665396 0.011360 0.136564
H24   H     H_    0.325034 0.334604 0.988640 0.136564
C61   C     C_1   0.993080 0.367587 0.359843 0.379522
N1    N     N_1   0.992681 0.317124 0.326239 -0.295975
C62   C     C_1   0.006920 0.632413 0.640157 0.379522
N2    N     N_1   0.007320 0.682876 0.673761 -0.295975
Cl1   Cl    Cl    0.802584 0.854753 0.568125 -0.669158
Cl2   Cl    Cl    0.197415 0.145247 0.431875 -0.669158
C63   C     C_1   0.466576 0.756805 0.928560 0.264553
N3    N     N_1   0.441051 0.811043 0.958395 -0.396790
C64   C     C_1   0.533424 0.243195 0.071440 0.264553
N4    N     N_1   0.558949 0.188957 0.041605 -0.396790
C65   C     C_1   0.476050 0.694523 0.712573 0.338851
N5    N     N_1   0.473954 0.720812 0.656596 -0.294073
C66   C     C_1   0.523950 0.305477 0.287427 0.338851
N6    N     N_1   0.526046 0.279188 0.343404 -0.294073

loop_
_geom_bond_atom_site_label_1
_geom_bond_atom_site_label_2
_ccdc_geom_bond_type
C29   C34   S    
C46   C54   A    
C54   C60   A    
O13   V3    S    
C41   Cl1   S    
C62   N2    T    
O4    C2    A    
V1    O19   S    
C55   C56   A    
C43   C49   A    
C15   C17   A    
C21   C22   A    
C7    C9    S    
O9    V1    S    
C9    C15   A    
C36   C38   S    
C10   C16   A    
C11   C13   A    
C38   H16   S    
O3    C1    A    
C37   C42   S    
C23   H7    S    
C52   C56   A    
O12   V4    S    
C63   N3    T    
C28   C30   S    
C18   C22   A    
C5    C31   S    
C33   H13   S    
O7    C3    A    
C30   H10   S    
O5    C7    A    
O7    V1    S    
O6    C8    A    
C28   C31   S    
O8    V2    S    
C45   C53   A    
C49   C64   S    
O3    V1    S    
O14   V4    S    
C11   C19   A    
C2    O12   A    
C24   C26   A    
C15   H2    S    
C28   H12   S    
C59   H19   S    
C36   H18   S    
C17   C19   A    
C18   C20   A    
C38   C41   S    
C58   C60   A    
C39   C41   S    
O11   V3    S    
O17   V3    S    
C58   H24   S    
C27   C29   S    
C11   H5    S    
C2    C39   S    
C4    C44   S    
C23   C25   A    
C44   C48   A    
C38   C40   S    
C43   C47   A    
C19   C25   A    
C1    O11   A    
O15   V3    S    
C9    C13   A    
C30   C33   S    
C31   C33   S    
C60   H20   S    
C12   H6    S    
C27   C32   S    
C49   C51   A    
C46   H22   S    
C29   C31   S    
C45   H21   S    
C28   C34   S    
O10   V2    S    
O1    V3    S    
C35   H17   S    
C52   C54   A    
C37   H15   S    
C66   N6    T    
C27   C33   S    
C13   H4    S    
C57   C59   A    
C46   C48   A    
O18   V4    S    
C40   C42   S    
C45   C47   A    
O8    C4    A    
O16   C6    A    
C12   C20   A    
O1    C3    A    
C35   C37   S    
C36   C39   S    
C12   C14   A    
C51   C55   A    
C35   C40   S    
C55   C58   A    
C57   H23   S    
C25   C61   S    
V2    O20   S    
C21   C24   A    
C20   C26   A    
C22   C23   A    
C42   Cl2   S    
O16   V4    S    
C10   C14   A    
C29   H9    S    
C37   C39   S    
C36   C42   S    
C16   C18   A    
C65   N5    T    
C24   H8    S    
O5    V1    S    
O17   C7    A    
C16   H1    S    
O6    V2    S    
O10   C6    A    
O18   C8    A    
C30   C32   S    
O2    V4    S    
C48   C65   S    
O15   C5    A    
V3    O19   S    
C44   C50   A    
C64   N4    T    
C27   H11   S    
V4    O20   S    
C50   C52   A    
C51   C53   A    
C14   H3    S    
C47   C66   S    
O9    C5    A    
C26   C62   S    
O13   V1    S    
O14   V2    S    
O2    C4    A    
C50   C63   S    
C6    C32   S    
C8    C10   S    
O4    V2    S    
C1    C40   S    
C32   C34   S    
C56   C57   A    
C3    C43   S    
C17   C21   A    
C34   H14   S    
C61   N1    T    
C35   C41   S    
C53   C59   A    
