data_mof_unit_37557.cif
_audit_creation_date              2012-12-11T14:13:57-0500
_audit_creation_method            fapswitch 2.2
_symmetry_space_group_name_H-M    P1
_symmetry_Int_Tables_number       1
_space_group_crystal_system       triclinic
_cell_length_a                    17.039564
_cell_length_b                    7.246323
_cell_length_c                    16.925975
_cell_angle_alpha                 90.526505
_cell_angle_beta                  99.351626
_cell_angle_gamma                 89.288479
_cell_volume                      2061.93181747

loop_
_atom_site_label
_atom_site_type_symbol
_atom_type_description
_atom_site_fract_x
_atom_site_fract_y
_atom_site_fract_z
_atom_type_partial_charge
O1    O     O_R   0.414560 0.494370 0.416770 -0.542469
O2    O     O_R   0.585440 0.994370 0.583230 -0.534176
O3    O     O_R   0.578370 0.819590 0.429320 -0.540271
O4    O     O_R   0.421630 0.319590 0.570680 -0.542103
C1    C     C_R   0.604235 0.654157 0.413228 0.765066
C2    C     C_R   0.395120 0.157438 0.586082 0.759744
O5    O     O_R   0.414740 0.823790 0.407360 -0.535990
O6    O     O_R   0.585260 0.323790 0.592640 -0.537692
O7    O     O_R   0.420650 0.998510 0.561120 -0.517481
O8    O     O_R   0.579350 0.498510 0.438880 -0.541147
C3    C     C_R   0.388203 0.656123 0.384842 0.721639
C4    C     C_R   0.611610 0.155584 0.615465 0.709103
O9    O     O_3   0.502130 0.662240 0.550470 -0.367973
O10   O     O_3   0.497870 0.162240 0.449530 -0.395105
V1    V     V_3+5 0.499600 0.935390 0.490640 1.413979
V2    V     V_3+5 0.500400 0.435390 0.509360 1.392975
C5    C     C_2   0.772209 0.251462 0.803277 -0.232702
C6    C     C_2   0.219792 0.760460 0.205334 -0.229258
C7    C     C_2   0.828583 0.117181 0.810898 0.253194
C8    C     C_2   0.170696 0.614850 0.190213 0.251137
H1    H     H_    0.774071 0.353440 0.851053 0.109917
H2    H     H_    0.212700 0.875131 0.163745 0.118116
C9    C     C_2   0.711834 0.284318 0.730293 0.180688
C10   C     C_2   0.278284 0.786512 0.280227 0.179873
C11   C     C_2   0.674430 0.141488 0.687423 -0.279934
C12   C     C_2   0.325408 0.644556 0.312955 -0.269418
H3    H     H_    0.688203 0.001957 0.708378 0.165631
H4    H     H_    0.319240 0.510107 0.283959 0.159209
C13   C     C_R   0.331124 0.158999 0.636633 -0.152920
C14   C     C_R   0.668488 0.640561 0.363127 -0.138405
C15   C     C_R   0.166627 0.107634 0.862380 -0.046533
C16   C     C_R   0.832922 0.626683 0.136002 -0.034200
C17   C     C_R   0.286152 0.960679 0.827891 -0.164425
C18   C     C_R   0.699638 0.726983 0.151379 -0.159652
C19   C     C_R   0.228798 0.977309 0.877950 -0.171465
C20   C     C_R   0.759543 0.706760 0.104400 -0.176905
C21   C     C_R   0.161086 0.217143 0.793631 -0.200564
C22   C     C_R   0.845127 0.562602 0.215040 -0.197059
C23   C     C_R   0.217580 0.197180 0.741475 0.064183
C24   C     C_R   0.786064 0.588655 0.263781 0.068261
C25   C     C_R   0.282968 0.074108 0.760430 0.049032
C26   C     C_R   0.713187 0.677627 0.232992 0.041986
C27   C     C_R   0.343026 0.066234 0.710967 0.326515
C28   C     C_R   0.655568 0.711882 0.284191 0.296333
C29   C     C_R   0.262058 0.271266 0.615618 0.102166
C30   C     C_R   0.741609 0.549738 0.392472 0.100650
C31   C     C_R   0.208107 0.294470 0.669511 -0.194329
C32   C     C_R   0.799270 0.526195 0.342751 -0.200790
H5    H     H_    0.332251 0.856279 0.841611 0.141057
H6    H     H_    0.643046 0.781845 0.122864 0.130059
H7    H     H_    0.156792 0.384772 0.653733 0.136231
H8    H     H_    0.855029 0.457376 0.366071 0.137037
H9    H     H_    0.232863 0.887092 0.929192 0.118801
H10   H     H_    0.748255 0.752050 0.042717 0.108572
H11   H     H_    0.111160 0.311858 0.779109 0.108722
H12   H     H_    0.901265 0.496599 0.239040 0.095796
O11   O     O_R   0.920750 0.773600 0.061260 -0.532419
O12   O     O_R   0.079250 0.273600 0.938740 -0.531798
O13   O     O_R   0.085340 0.439850 0.092570 -0.525180
O14   O     O_R   0.914660 0.939850 0.907430 -0.526234
C33   C     C_R   0.110736 0.608125 0.115842 0.629030
C34   C     C_R   0.889007 0.108450 0.884560 0.629752
O15   O     O_R   0.921720 0.444130 0.070790 -0.539768
O16   O     O_R   0.078280 0.944130 0.929210 -0.540848
O17   O     O_R   0.914480 0.269530 0.916840 -0.549391
O18   O     O_R   0.085520 0.769530 0.083160 -0.550821
C35   C     C_R   0.896480 0.613604 0.086329 0.673044
C36   C     C_R   0.103588 0.110478 0.913355 0.674554
O19   O     O_3   0.997840 0.601520 0.949550 -0.373445
O20   O     O_3   0.002160 0.101520 0.050450 -0.373623
V3    V     V_3+5 0.000400 0.328340 0.009360 1.415775
V4    V     V_3+5 0.999600 0.828340 0.990640 1.415050
O21   O     O_3   0.829476 0.985182 0.751015 -0.577150
C37   C     C_3   0.897933 0.004932 0.714354 0.105347
H13   H     H_    0.908960 0.870451 0.685826 0.140384
H14   H     H_    0.952844 0.035039 0.757838 0.086412
C38   C     C_3   0.884028 0.152727 0.649040 -0.320084
H15   H     H_    0.829745 0.119015 0.605665 0.202399
H16   H     H_    0.874779 0.289565 0.676447 0.197211
C39   C     C_3   0.954727 0.164615 0.604383 -0.849391
H17   H     H_    0.009485 0.200869 0.646497 0.230272
H18   H     H_    0.942922 0.273026 0.557863 0.232811
H19   H     H_    0.964257 0.030726 0.574679 0.234257
O22   O     O_3   0.176656 0.469219 0.243750 -0.575482
C40   C     C_3   0.108854 0.465533 0.282302 0.101804
H20   H     H_    0.104840 0.323927 0.305849 0.137444
H21   H     H_    0.052072 0.491458 0.240820 0.087328
C41   C     C_3   0.117289 0.602207 0.352889 -0.320404
H22   H     H_    0.174593 0.575964 0.393028 0.208110
H23   H     H_    0.117565 0.745685 0.330357 0.194433
C42   C     C_3   0.049046 0.584655 0.400539 -0.862783
H24   H     H_    0.991621 0.619974 0.362318 0.231660
H25   H     H_    0.058296 0.681320 0.452418 0.237726
H26   H     H_    0.046417 0.441920 0.423271 0.229096
C43   C     C_3   0.692548 0.484240 0.710172 -0.702743
H27   H     H_    0.729618 0.578706 0.752444 0.199141
H28   H     H_    0.705108 0.514821 0.649520 0.203817
H29   H     H_    0.629387 0.515922 0.713910 0.215111
C44   C     C_3   0.283123 0.979268 0.315437 -0.717055
H30   H     H_    0.235323 0.069952 0.283703 0.207912
H31   H     H_    0.275330 0.975738 0.379300 0.196474
H32   H     H_    0.340867 0.042476 0.309539 0.213966
O23   O     O_3   0.414063 0.970237 0.733853 -0.571055
C45   C     C_3   0.462178 0.059292 0.799420 0.042822
H33   H     H_    0.516068 0.971440 0.816492 0.148622
H34   H     H_    0.432779 0.068205 0.853215 0.118030
C46   C     C_3   0.489019 0.252740 0.779195 -0.322032
H35   H     H_    0.516916 0.245197 0.724648 0.196846
H36   H     H_    0.436915 0.348115 0.767711 0.189991
C47   C     C_3   0.548484 0.331864 0.847999 -0.825834
H37   H     H_    0.521759 0.339314 0.903608 0.228292
H38   H     H_    0.565069 0.473381 0.832932 0.232264
H39   H     H_    0.603128 0.244428 0.858701 0.231960
O24   O     O_3   0.582534 0.795170 0.256086 -0.576144
C48   C     C_3   0.591367 0.980874 0.233221 0.031949
H40   H     H_    0.562307 0.994927 0.169831 0.139732
H41   H     H_    0.654299 0.026517 0.237337 0.109111
C49   C     C_3   0.549297 0.111164 0.284430 -0.245567
H42   H     H_    0.490822 0.053282 0.291750 0.210365
H43   H     H_    0.586954 0.125518 0.344115 0.206017
C50   C     C_3   0.535881 0.301609 0.246526 -0.811703
H44   H     H_    0.593410 0.360097 0.236824 0.233928
H45   H     H_    0.508159 0.395402 0.286550 0.243230
H46   H     H_    0.495441 0.292218 0.188175 0.221513
C51   C     C_3   0.242780 0.367985 0.536139 -0.754286
H47   H     H_    0.280847 0.321608 0.492376 0.200815
H48   H     H_    0.180451 0.338232 0.508751 0.204049
H49   H     H_    0.249145 0.519309 0.545409 0.210814
C52   C     C_3   0.761981 0.478839 0.476946 -0.764612
H50   H     H_    0.718913 0.524429 0.515552 0.197141
H51   H     H_    0.764322 0.325660 0.475971 0.206207
H52   H     H_    0.821063 0.531184 0.505036 0.203130

loop_
_geom_bond_atom_site_label_1
_geom_bond_atom_site_label_2
_ccdc_geom_bond_type
C19   H9    S    
C10   C44   S    
C25   C27   A    
O21   C37   S    
C43   H27   S    
C18   C26   A    
O2    C4    A    
C30   C52   S    
C45   H34   S    
O24   C48   S    
C43   H29   S    
C23   C25   A    
C40   H20   S    
O5    C3    A    
C5    C9    S    
C37   H14   S    
C6    C10   S    
O16   C36   A    
C10   C12   D    
C1    C14   S    
O12   V3    S    
C38   C39   S    
O14   V4    S    
C7    C34   S    
C17   H5    S    
C48   H40   S    
O14   C34   A    
C29   C31   A    
C8    C33   S    
C49   H42   S    
C50   H46   S    
C17   C19   A    
C47   H37   S    
C33   O18   A    
O18   V4    S    
C29   C51   S    
C48   H41   S    
C37   C38   S    
O1    C3    A    
C51   H49   S    
C46   H35   S    
O20   V3    S    
C16   C22   A    
C18   C20   A    
C38   H15   S    
C52   H52   S    
C24   C26   A    
C28   O24   S    
O6    V2    S    
C13   C27   A    
C46   H36   S    
C14   C28   A    
C26   C28   A    
C2    O7    A    
C39   H19   S    
C45   H33   S    
C30   C32   A    
C38   H16   S    
C15   C36   S    
O15   C35   A    
C18   H6    S    
O13   C33   A    
C37   H13   S    
C40   H21   S    
C7    O21   S    
O22   C40   S    
O4    C2    A    
C42   H24   S    
C31   H7    S    
C3    C12   S    
O17   V3    S    
C5    H1    S    
C15   C21   A    
C13   C29   A    
C49   C50   S    
O4    V2    S    
O19   V4    S    
C42   H25   S    
C44   H30   S    
C41   C42   S    
O6    C4    A    
C48   C49   S    
C44   H32   S    
O1    V2    S    
O2    V1    S    
C47   H39   S    
C50   H44   S    
C16   C35   S    
C49   H43   S    
O12   C36   A    
C44   H31   S    
C41   H23   S    
C8    O22   S    
C51   H47   S    
C46   C47   S    
C15   C19   A    
C16   C20   A    
O3    V1    S    
C23   C31   A    
C52   H50   S    
C40   C41   S    
C24   C32   A    
C34   O17   A    
C6    H2    S    
C14   C30   A    
O15   V3    S    
C39   H17   S    
O3    C1    A    
C27   O23   S    
C43   H28   S    
C11   H3    S    
C12   H4    S    
C4    C11   S    
C17   C25   A    
O7    V1    S    
C1    O8    A    
C21   C23   A    
O8    V2    S    
C42   H26   S    
C22   C24   A    
O11   C35   A    
C9    C11   D    
O5    V1    S    
C5    C7    D    
C39   H18   S    
C9    C43   S    
C6    C8    D    
O16   V4    S    
O11   V4    S    
C47   H38   S    
C50   H45   S    
C20   H10   S    
C21   H11   S    
C32   H8    S    
C2    C13   S    
C22   H12   S    
C41   H22   S    
O9    V2    S    
O23   C45   S    
C51   H48   S    
O10   V1    S    
C45   C46   S    
O13   V3    S    
C52   H51   S    
