data_mof_unit_9046.cif
_audit_creation_date              2013-03-05T16:13:43-0500
_audit_creation_method            fapswitch 2.2
_symmetry_space_group_name_H-M    P1
_symmetry_Int_Tables_number       1
_space_group_crystal_system       triclinic
_cell_length_a                    10.831838
_cell_length_b                    9.877018
_cell_length_c                    8.901227
_cell_angle_alpha                 89.849727
_cell_angle_beta                  91.536196
_cell_angle_gamma                 89.190716
_cell_volume                      951.867454046

loop_
_atom_site_label
_atom_site_type_symbol
_atom_site_description
_atom_site_fract_x
_atom_site_fract_y
_atom_site_fract_z
_atom_type_partial_charge
O1    O     O_R   0.316770 0.614620 0.499990 -0.592619
O2    O     O_R   0.683230 0.385380 0.500010 -0.592619
O3    O     O_R   0.683230 0.614620 0.500010 -0.591808
O4    O     O_R   0.316770 0.385380 0.499990 -0.591808
C1    C     C_R   0.260179 0.501046 0.510239 0.952000
C2    C     C_R   0.739821 0.498954 0.489761 0.952000
O5    O     O_R   0.500010 0.614640 0.285340 -0.621137
O6    O     O_R   0.499990 0.385360 0.714660 -0.621138
O7    O     O_R   0.499990 0.614640 0.714660 -0.627152
O8    O     O_R   0.500010 0.385360 0.285340 -0.627152
C3    C     C_R   0.499765 0.500113 0.218731 0.932467
C4    C     C_R   0.500235 0.499886 0.781269 0.932467
Zn1   Zn    Zn3+2 0.500000 0.653120 0.500000 1.037736
Zn2   Zn    Zn3+2 0.500000 0.346880 0.500000 1.037736
C5    C     C_1   0.499922 0.500159 0.065414 -0.131919
C6    C     C_1   0.500078 0.499841 0.934586 -0.131919
C7    C     C_R   0.065317 0.378657 0.533546 0.204072
C8    C     C_R   0.934683 0.621343 0.466454 0.204072
C9    C     C_R   0.939530 0.374385 0.502893 0.196054
C10   C     C_R   0.060470 0.625615 0.497107 0.196054
C11   C     C_R   0.872957 0.497029 0.478809 -0.357752
C12   C     C_R   0.127042 0.502971 0.521191 -0.357752
C13   C     C_R   0.567375 0.070700 0.606098 0.023131
C14   C     C_R   0.432625 0.929300 0.393901 0.023131
C15   C     C_R   0.431795 0.073464 0.394693 0.020333
C16   C     C_R   0.568205 0.926536 0.605307 0.020333
N1    N     N_R   0.500000 0.857200 0.500000 -0.123692
N2    N     N_R   0.500000 0.142800 0.500000 -0.123692
N3    N     N_R   0.129327 0.256361 0.580134 0.263593
O9    O     O_R   0.184423 0.249693 0.711742 -0.338252
O10   O     O_R   0.130774 0.150952 0.492785 -0.277421
N4    N     N_R   0.870672 0.743639 0.419865 0.263593
O11   O     O_R   0.815577 0.750307 0.288258 -0.338252
O12   O     O_R   0.869226 0.849048 0.507215 -0.277421
N5    N     N_R   0.881201 0.244680 0.493229 0.257706
O13   O     O_R   0.833066 0.205006 0.365503 -0.310988
O14   O     O_R   0.892157 0.158772 0.603979 -0.293949
N6    N     N_R   0.118798 0.755320 0.506771 0.257706
O15   O     O_R   0.166934 0.794994 0.634497 -0.310988
O16   O     O_R   0.107843 0.841228 0.396020 -0.293949
C17   C     C_1   0.635961 0.141788 0.721669 0.324371
N7    N     N_1   0.690955 0.197568 0.815459 -0.132015
C18   C     C_1   0.364039 0.858212 0.278331 0.324371
N8    N     N_1   0.309045 0.802432 0.184540 -0.132015
C19   C     C_1   0.357042 0.147720 0.285067 0.320296
N9    N     N_1   0.296472 0.206257 0.196892 -0.133055
C20   C     C_1   0.642958 0.852280 0.714933 0.320296
N10   N     N_1   0.703528 0.793743 0.803108 -0.133055

loop_
_geom_bond_atom_site_label_1
_geom_bond_atom_site_label_2
_geom_bond_distance
_ccdc_geom_bond_type
O5    C3    1.278527 A    
C18   N8    1.157743 T    
N3    O9    1.301474 A    
C8    C11   1.411794 A    
C10   N6    1.438165 S    
C17   N7    1.157743 T    
C7    C12   1.411794 A    
O3    Zn1   2.015534 S    
C14   N1    1.369848 A    
O6    C4    1.278526 A    
O3    C2    1.293441 A    
N4    O11   1.301474 A    
N3    O10   1.301215 A    
C9    N5    1.438166 S    
C19   N9    1.157594 T    
C15   N2    1.368935 A    
N6    O16   1.300917 A    
C16   N1    1.368933 A    
O2    C2    1.290092 A    
C8    N4    1.438775 S    
C16   C20   1.443209 S    
O1    C1    1.290093 A    
N5    O14   1.300917 A    
C10   C12   1.413862 A    
C8    C10   1.383620 A    
O4    Zn2   2.015535 S    
N6    O15   1.301664 A    
O2    Zn2   2.026084 S    
O7    C4    1.277692 A    
O1    Zn1   2.026085 S    
O8    C3    1.277692 A    
C5    C6    1.164592 T    
C15   C19   1.443209 S    
O5    Zn1   1.949151 S    
C7    N3    1.438773 S    
C14   C15   1.423845 A    
O8    Zn2   1.947196 S    
C13   C16   1.423845 A    
C14   C18   1.442475 S    
O7    Zn1   1.947196 S    
C7    C9    1.383621 A    
O6    Zn2   1.949151 S    
C4    C6    1.364750 S    
Zn2   N2    2.015702 S    
C13   N2    1.369847 A    
C2    C11   1.447869 S    
C3    C5    1.364750 S    
Zn1   N1    2.015702 S    
C1    C12   1.447869 S    
C20   N10   1.157594 T    
N4    O12   1.301214 A    
O4    C1    1.293440 A    
C9    C11   1.413862 A    
N5    O13   1.301663 A    
C13   C17   1.442475 S    
