data_mof_unit_67877.cif
_audit_creation_date              2012-12-10T16:55:49-0500
_audit_creation_method            fapswitch 2.2
_symmetry_space_group_name_H-M    P1
_symmetry_Int_Tables_number       1
_space_group_crystal_system       triclinic
_cell_length_a                    7.784538
_cell_length_b                    8.579407
_cell_length_c                    10.467306
_cell_angle_alpha                 91.865449
_cell_angle_beta                  84.958621
_cell_angle_gamma                 93.864256
_cell_volume                      694.539999557

loop_
_atom_site_label
_atom_site_type_symbol
_atom_type_description
_atom_site_fract_x
_atom_site_fract_y
_atom_site_fract_z
_atom_type_partial_charge
C1    C     C_R   0.545866 0.794738 0.496384 0.958736
C2    C     C_3   0.501804 0.506183 0.877310 -0.094291
C3    C     C_3   0.334935 0.464102 0.049682 -0.296574
C4    C     C_3   0.664328 0.534636 0.950440 -0.318078
C5    C     C_2   0.569914 0.958246 0.493561 -0.381558
C6    C     C_2   0.430105 0.041648 0.504898 -0.371775
C7    C     C_3   0.233785 0.818731 0.039342 0.063021
C8    C     C_3   0.046426 0.768615 0.084665 -0.344221
C9    C     C_3   0.980195 0.869382 0.199109 -0.930128
C10   C     C_3   0.795069 0.205799 0.955227 0.065816
C11   C     C_3   0.719474 0.039184 0.933114 -0.352473
C12   C     C_R   0.454144 0.205230 0.503146 0.960398
C13   C     C_3   0.806227 0.962755 0.812726 -0.941285
C14   C     C_R   0.501752 0.506770 0.742418 0.912486
C15   C     C_R   0.498081 0.492550 0.257648 0.908839
C16   C     C_3   0.398829 0.609335 0.973026 0.601904
C17   C     C_3   0.600376 0.389500 0.027209 0.595477
C18   C     C_3   0.559909 0.639134 0.047566 -0.348139
C19   C     C_3   0.439817 0.359130 0.952549 -0.340306
C20   C     C_3   0.497553 0.492249 0.122810 -0.092475
H1    H     H_    0.605820 0.749285 0.095051 0.141236
H2    H     H_    0.314890 0.821412 0.122033 0.133049
H3    H     H_    0.963778 0.779135 0.004749 0.230488
H4    H     H_    0.036130 0.644892 0.113320 0.230051
H5    H     H_    0.059482 0.857632 0.281091 0.269604
H6    H     H_    0.844316 0.830721 0.229803 0.267919
H7    H     H_    0.985302 0.994088 0.172720 0.260703
H8    H     H_    0.932681 0.201194 0.974709 0.157922
H9    H     H_    0.795181 0.272182 0.865288 0.146386
H10   H     H_    0.738722 0.970229 0.017569 0.228654
H11   H     H_    0.578635 0.039368 0.923474 0.223953
H12   H     H_    0.392106 0.246910 0.908382 0.144834
H13   H     H_    0.784689 0.028832 0.726673 0.268848
H14   H     H_    0.750016 0.841263 0.800842 0.267177
H15   H     H_    0.947344 0.959469 0.820436 0.264334
H16   H     H_    0.203326 0.432735 0.094668 0.157559
H17   H     H_    0.797000 0.561536 0.905327 0.161340
H18   H     H_    0.013487 0.381555 0.403130 0.193722
H19   H     H_    0.986517 0.618555 0.596786 0.195605
H20   H     H_    0.701874 0.009446 0.482340 0.181692
H21   H     H_    0.298142 0.990407 0.515844 0.179278
H22   H     H_    0.238264 0.940910 0.006454 0.154301
N1    N     N_2   0.950320 0.457950 0.465730 -0.173969
N2    N     N_2   0.049680 0.542050 0.534270 -0.175526
O1    O     O_R   0.389250 0.738570 0.508410 -0.608627
O2    O     O_3   0.706107 0.274662 0.064531 -0.649587
O3    O     O_R   0.610750 0.261430 0.491590 -0.609401
O4    O     O_R   0.678390 0.711620 0.486450 -0.634982
O5    O     O_R   0.321610 0.288380 0.513550 -0.636067
O6    O     O_R   0.355460 0.513510 0.697030 -0.588821
O7    O     O_R   0.644540 0.486490 0.302970 -0.591224
O8    O     O_R   0.644600 0.486560 0.675070 -0.648230
O9    O     O_R   0.355400 0.513440 0.324930 -0.642835
O10   O     O_3   0.293789 0.723823 0.933532 -0.646907
Zn1   Zn    Zn3+2 0.306940 0.517990 0.514670 0.948182
Zn2   Zn    Zn3+2 0.693060 0.482010 0.485330 0.943963

loop_
_geom_bond_atom_site_label_1
_geom_bond_atom_site_label_2
_ccdc_geom_bond_type
C10   O2    S    
C2    C4    S    
N1    N2    D    
C1    O4    A    
C3    C19   S    
H19   N2    S    
O1    Zn1   S    
C15   O7    A    
C7    H2    S    
C2    C16   S    
O6    Zn1   S    
N2    Zn1   S    
C4    C18   S    
C8    H3    S    
C12   O5    A    
C9    H5    S    
H18   N1    S    
C17   O2    S    
C13   H13   S    
C5    C6    D    
C11   C13   S    
C10   H9    S    
C1    O1    A    
C14   O6    A    
C3    H16   S    
C12   O3    A    
C1    C5    S    
C4    C17   S    
C15   O9    A    
C8    H4    S    
C9    H6    S    
C13   H15   S    
C18   C20   S    
O9    Zn1   S    
C6    C12   S    
C15   C20   S    
C2    C14   S    
C16   O10   S    
C7    H22   S    
C7    C8    S    
C10   C11   S    
C19   H12   S    
C11   H11   S    
C18   H1    S    
N1    Zn2   S    
C3    C20   S    
C17   C20   S    
C4    H17   S    
C9    H7    S    
C16   C18   S    
O7    Zn2   S    
C5    H20   S    
C10   H8    S    
O4    Zn2   S    
C8    C9    S    
C13   H14   S    
C7    O10   S    
C17   C19   S    
C2    C19   S    
O5    Zn1   S    
C14   O8    A    
C3    C16   S    
O8    Zn2   S    
C11   H10   S    
O3    Zn2   S    
C6    H21   S    
