data_mof_unit_15232.cif
_audit_creation_date              2012-12-10T19:06:13-0500
_audit_creation_method            fapswitch 2.2
_symmetry_space_group_name_H-M    P1
_symmetry_Int_Tables_number       1
_space_group_crystal_system       triclinic
_cell_length_a                    13.06477
_cell_length_b                    13.640084
_cell_length_c                    15.732103
_cell_angle_alpha                 90.030089
_cell_angle_beta                  92.835941
_cell_angle_gamma                 85.598316
_cell_volume                      2791.82503322

loop_
_atom_site_label
_atom_site_type_symbol
_atom_type_description
_atom_site_fract_x
_atom_site_fract_y
_atom_site_fract_z
_atom_type_partial_charge
C1    C     C_R   0.481088 0.684965 0.499770 0.897813
C2    C     C_R   0.518911 0.315035 0.500231 0.897821
C3    C     C_2   0.543426 0.021257 0.491164 -0.032681
C4    C     C_2   0.456578 0.978745 0.508817 -0.032692
C5    C     C_1   0.457434 0.874806 0.506179 -0.047694
C6    C     C_1   0.542563 0.125196 0.493810 -0.047693
C7    C     C_2   0.033319 0.473000 0.474973 -0.104270
C8    C     C_2   0.966682 0.527001 0.525034 -0.104260
C9    C     C_1   0.854460 0.519688 0.517929 0.082712
C10   C     C_1   0.145540 0.480311 0.482074 0.082710
C11   C     C_R   0.499516 0.499926 0.662330 0.899563
C12   C     C_R   0.500483 0.500073 0.337670 0.899560
C13   C     C_3   0.477573 0.593087 0.026593 0.140786
C14   C     C_3   0.522413 0.406899 0.973406 0.140780
C15   C     C_3   0.571336 0.558996 0.974710 0.135510
C16   C     C_3   0.428650 0.440990 0.025289 0.135507
C17   C     C_1   0.498563 0.499665 0.751089 -0.192425
C18   C     C_1   0.501434 0.500328 0.248911 -0.192421
C19   C     C_3   0.405537 0.533765 0.968963 0.147766
C20   C     C_3   0.594449 0.466220 0.031036 0.147768
C21   C     C_3   0.499282 0.499672 0.917409 -0.081690
C22   C     C_3   0.500704 0.500313 0.082590 -0.081690
C23   C     C_1   0.498568 0.499544 0.826284 -0.074170
C24   C     C_1   0.501423 0.500445 0.173715 -0.074168
C25   C     C_1   0.534154 0.212338 0.496878 -0.181875
C26   C     C_1   0.465842 0.787663 0.503118 -0.181898
N1    N     N_1   0.234530 0.484780 0.486590 -0.090401
N2    N     N_1   0.765470 0.515220 0.513410 -0.090401
O1    O     O_R   0.402510 0.634760 0.495090 -0.607546
O2    O     O_R   0.597490 0.365240 0.504910 -0.607552
O3    O     O_R   0.572960 0.644530 0.503700 -0.602560
O4    O     O_R   0.427040 0.355470 0.496300 -0.602548
O5    O     O_R   0.414790 0.495120 0.618920 -0.614071
O6    O     O_R   0.585210 0.504880 0.381080 -0.614065
O7    O     O_R   0.585240 0.504900 0.627530 -0.608176
O8    O     O_R   0.414760 0.495100 0.372470 -0.608175
Zn1   Zn    Zn3+2 0.386190 0.493480 0.494250 0.973318
Zn2   Zn    Zn3+2 0.613810 0.506520 0.505750 0.973311
C27   C     C_3   0.648033 0.622443 0.934040 -0.356076
C28   C     C_3   0.714010 0.675768 0.999127 -0.896784
H1    H     H_    0.665826 0.725078 0.039433 0.262658
H2    H     H_    0.762214 0.622881 0.040188 0.263895
H3    H     H_    0.765921 0.721293 0.965127 0.249934
H4    H     H_    0.698861 0.575115 0.893917 0.206809
H5    H     H_    0.605107 0.677318 0.891027 0.203742
C29   C     C_3   0.351955 0.377541 0.065960 -0.356076
C30   C     C_3   0.285972 0.324222 0.000873 -0.896783
H6    H     H_    0.237759 0.377113 0.959822 0.263898
H7    H     H_    0.334152 0.274921 0.960556 0.262654
H8    H     H_    0.234069 0.278688 0.034873 0.249935
H9    H     H_    0.394883 0.322662 0.108968 0.203743
H10   H     H_    0.301131 0.424866 0.106088 0.206806
C31   C     C_3   0.453310 0.693278 0.068637 -0.366376
C32   C     C_3   0.433112 0.777498 0.004729 -0.893304
H11   H     H_    0.501761 0.786977 0.967965 0.264488
H12   H     H_    0.367161 0.764881 0.960236 0.263857
H13   H     H_    0.414566 0.846922 0.039529 0.247386
H14   H     H_    0.385060 0.689148 0.107380 0.203407
H15   H     H_    0.518451 0.709277 0.113135 0.199455
C33   C     C_3   0.546677 0.306708 0.931361 -0.366380
C34   C     C_3   0.566876 0.222487 0.995268 -0.893297
H16   H     H_    0.632824 0.235105 0.039763 0.263860
H17   H     H_    0.498224 0.213004 0.032028 0.264487
H18   H     H_    0.585426 0.153063 0.960467 0.247384
H19   H     H_    0.481536 0.290709 0.886863 0.199452
H20   H     H_    0.614926 0.310839 0.892618 0.203405
C35   C     C_3   0.696097 0.430252 0.078184 -0.376135
C36   C     C_3   0.781208 0.398357 0.018769 -0.893809
H21   H     H_    0.759939 0.335429 0.978968 0.264828
H22   H     H_    0.798366 0.459713 0.977070 0.266751
H23   H     H_    0.852274 0.374847 0.057403 0.247118
H24   H     H_    0.721945 0.490009 0.120001 0.199637
H25   H     H_    0.682530 0.367678 0.120160 0.200002
C37   C     C_3   0.303888 0.569735 0.921817 -0.376128
C38   C     C_3   0.218780 0.601631 0.981235 -0.893791
H26   H     H_    0.201634 0.540281 0.022945 0.266748
H27   H     H_    0.240045 0.664568 0.021026 0.264821
H28   H     H_    0.147708 0.625127 0.942603 0.247123
H29   H     H_    0.317455 0.632308 0.879840 0.199991
H30   H     H_    0.278039 0.509979 0.880000 0.199643
C39   C     C_R   0.360353 0.034230 0.534453 0.154947
C40   C     C_R   0.266552 0.020411 0.490034 -0.142224
C41   C     C_R   0.175446 0.070450 0.514835 -0.155393
C42   C     C_R   0.177101 0.134280 0.584304 -0.126149
C43   C     C_R   0.269752 0.147736 0.629438 -0.129486
C44   C     C_R   0.360940 0.097429 0.605169 -0.139079
H31   H     H_    0.264106 0.971239 0.436012 0.125782
H32   H     H_    0.103519 0.059693 0.480226 0.125099
H33   H     H_    0.106534 0.173085 0.603299 0.123745
H34   H     H_    0.270842 0.196712 0.683579 0.125516
H35   H     H_    0.431772 0.107233 0.641817 0.122405
C45   C     C_R   0.639669 0.965779 0.465549 0.154908
C46   C     C_R   0.733469 0.979690 0.509935 -0.142248
C47   C     C_R   0.824595 0.929674 0.485152 -0.155382
C48   C     C_R   0.822965 0.865774 0.415731 -0.126199
C49   C     C_R   0.730317 0.852223 0.370629 -0.129500
C50   C     C_R   0.639108 0.902508 0.394880 -0.139029
H36   H     H_    0.735896 0.028921 0.563920 0.125798
H37   H     H_    0.896519 0.940506 0.519736 0.125127
H38   H     H_    0.893546 0.826989 0.396746 0.123770
H39   H     H_    0.729247 0.803191 0.316526 0.125524
H40   H     H_    0.568280 0.892633 0.358249 0.122404
C51   C     C_R   0.004572 0.595686 0.590723 0.139603
C52   C     C_R   0.962699 0.693702 0.592101 -0.154771
C53   C     C_R   0.997321 0.758737 0.653954 -0.136610
C54   C     C_R   0.073362 0.726337 0.715318 -0.109683
C55   C     C_R   0.114385 0.628698 0.715253 -0.137924
C56   C     C_R   0.079830 0.563352 0.653689 -0.131019
H41   H     H_    0.903747 0.719815 0.544974 0.137809
H42   H     H_    0.965143 0.834245 0.654353 0.126612
H43   H     H_    0.100156 0.776728 0.763149 0.125632
H44   H     H_    0.172723 0.603499 0.763063 0.130223
H45   H     H_    0.111250 0.487521 0.655521 0.123593
C57   C     C_R   0.995423 0.404333 0.409274 0.139638
C58   C     C_R   0.037249 0.306303 0.407911 -0.154794
C59   C     C_R   0.002613 0.241283 0.346050 -0.136600
C60   C     C_R   0.926609 0.273714 0.284665 -0.109660
C61   C     C_R   0.885640 0.371369 0.284715 -0.137951
C62   C     C_R   0.920207 0.436698 0.346287 -0.131023
H46   H     H_    0.096172 0.280170 0.455055 0.137785
H47   H     H_    0.034750 0.165763 0.345665 0.126585
H48   H     H_    0.899800 0.223337 0.236828 0.125630
H49   H     H_    0.827333 0.396590 0.236888 0.130228
H50   H     H_    0.888825 0.512540 0.344448 0.123581

loop_
_geom_bond_atom_site_label_1
_geom_bond_atom_site_label_2
_ccdc_geom_bond_type
C10   N1    T    
C7    C10   S    
C53   H42   S    
C46   C47   A    
C55   H44   S    
C20   C35   S    
C48   C49   A    
C38   H26   S    
C3    C6    S    
C57   C58   A    
C31   H15   S    
C7    C8    D    
C30   H7    S    
C31   C32   S    
C17   C23   T    
C18   C24   T    
C14   C21   S    
O8    Zn1   S    
C19   C21   S    
C44   H35   S    
C36   H23   S    
C43   C44   A    
C52   H41   S    
C6    C25   T    
O1    Zn1   S    
C54   C55   A    
C58   C59   A    
C29   H10   S    
C1    O3    A    
C59   C60   A    
O2    Zn2   S    
C2    O4    A    
C35   H24   S    
C34   H17   S    
C61   C62   A    
C29   C30   S    
C28   H3    S    
C4    C39   S    
C30   H6    S    
C36   H21   S    
C50   H40   S    
C55   C56   A    
C51   C56   A    
C35   H25   S    
C12   O8    A    
C57   C62   A    
C27   H5    S    
C28   H2    S    
C41   H32   S    
C33   H20   S    
C37   H30   S    
C49   H39   S    
C34   H16   S    
C52   C53   A    
C8    C51   S    
C45   C50   A    
C39   C40   A    
C30   H8    S    
C13   C31   S    
C54   H43   S    
C15   C20   S    
C32   H12   S    
C37   C38   S    
C13   C19   S    
C35   C36   S    
C14   C20   S    
C11   O5    A    
O7    Zn2   S    
C42   C43   A    
C59   H47   S    
C16   C29   S    
C27   C28   S    
C48   H38   S    
C8    C9    S    
C62   H50   S    
C29   H9    S    
O5    Zn1   S    
C3    C45   S    
C56   H45   S    
C34   H18   S    
C60   H48   S    
C41   C42   A    
N2    Zn2   S    
C31   H14   S    
C49   C50   A    
C1    O1    A    
O4    Zn1   S    
C38   H27   S    
C15   C27   S    
C28   H1    S    
C20   C22   S    
C33   H19   S    
C58   H46   S    
C37   H29   S    
C21   C23   S    
C1    C26   S    
C14   C16   S    
C42   H33   S    
C12   O6    A    
C3    C4    D    
C7    C57   S    
C32   H11   S    
C11   C17   S    
C16   C22   S    
O6    Zn2   S    
C19   C37   S    
C39   C44   A    
C4    C5    S    
C43   H34   S    
C27   H4    S    
C14   C33   S    
C53   C54   A    
O3    Zn2   S    
C2    O2    A    
C13   C15   S    
C60   C61   A    
C47   H37   S    
N1    Zn1   S    
C16   C19   S    
C11   O7    A    
C45   C46   A    
C13   C22   S    
C2    C25   S    
C22   C24   S    
C61   H49   S    
C47   C48   A    
C38   H28   S    
C5    C26   T    
C15   C21   S    
C36   H22   S    
C40   C41   A    
C12   C18   S    
C51   C52   A    
C33   C34   S    
C46   H36   S    
C40   H31   S    
C9    N2    T    
C32   H13   S    
