data_mof_unit_21699.cif
_audit_creation_date              2012-12-11T14:52:28-0500
_audit_creation_method            fapswitch 2.2
_symmetry_space_group_name_H-M    P1
_symmetry_Int_Tables_number       1
_space_group_crystal_system       triclinic
_cell_length_a                    18.869451
_cell_length_b                    10.94399
_cell_length_c                    18.840269
_cell_angle_alpha                 90.447919
_cell_angle_beta                  91.216528
_cell_angle_gamma                 90.097923
_cell_volume                      3889.64634146

loop_
_atom_site_label
_atom_site_type_symbol
_atom_type_description
_atom_site_fract_x
_atom_site_fract_y
_atom_site_fract_z
_atom_type_partial_charge
C1    C     C_R   0.272063 0.043698 0.853307 0.583136
C2    C     C_R   0.727900 0.042929 0.146554 0.585364
C3    C     C_R   0.772063 0.543698 0.853307 0.583133
C4    C     C_R   0.227900 0.542929 0.146554 0.585377
C5    C     C_3   0.528955 0.729109 0.972051 0.340620
C6    C     C_3   0.469675 0.729550 0.026868 0.341199
C7    C     C_3   0.028955 0.229109 0.972051 0.340623
C8    C     C_3   0.969675 0.229550 0.026868 0.341196
C9    C     C_R   0.302295 0.534048 0.963750 -0.058737
C10   C     C_R   0.695949 0.537229 0.034891 -0.058045
C11   C     C_R   0.802296 0.034048 0.963750 -0.058737
C12   C     C_R   0.195949 0.037229 0.034891 -0.058046
C13   C     C_R   0.297329 0.518330 0.036845 -0.062732
C14   C     C_R   0.700994 0.522449 0.961689 -0.067776
C15   C     C_R   0.797329 0.018330 0.036845 -0.062732
C16   C     C_R   0.200994 0.022449 0.961689 -0.067775
C17   C     C_R   0.246595 0.583507 0.075487 0.110095
C18   C     C_R   0.753564 0.584917 0.924427 0.109506
C19   C     C_R   0.746595 0.083508 0.075487 0.110095
C20   C     C_R   0.253564 0.084917 0.924427 0.109509
C21   C     C_R   0.203185 0.670033 0.040794 0.251547
C22   C     C_R   0.798740 0.668140 0.960518 0.252787
C23   C     C_R   0.703185 0.170033 0.040794 0.251545
C24   C     C_R   0.298740 0.168139 0.960518 0.252787
C25   C     C_R   0.206499 0.680342 0.967608 -0.053680
C26   C     C_R   0.795651 0.676490 0.033738 -0.056519
C27   C     C_R   0.706499 0.180342 0.967608 -0.053679
C28   C     C_R   0.295651 0.176490 0.033738 -0.056520
C29   C     C_R   0.254911 0.611692 0.928453 0.056563
C30   C     C_R   0.745209 0.610618 0.071550 0.057885
C31   C     C_R   0.754911 0.111692 0.928453 0.056565
C32   C     C_R   0.245209 0.110618 0.071550 0.057884
C33   C     C_R   0.463860 0.722798 0.525508 0.238362
C34   C     C_R   0.469199 0.730234 0.451892 0.212864
C35   C     C_R   0.963944 0.222768 0.525532 0.238582
C36   C     C_R   0.969261 0.230214 0.451918 0.213056
C37   C     C_R   0.496294 0.836728 0.421636 0.066901
C38   C     C_R   0.481583 0.826139 0.568600 0.074608
C39   C     C_R   0.996336 0.336719 0.421656 0.066884
C40   C     C_R   0.981647 0.326123 0.568622 0.074652
C41   C     C_R   0.509559 0.942487 0.463576 0.223113
C42   C     C_R   0.500321 0.937612 0.537451 0.204985
C43   C     C_R   0.009625 0.442468 0.463599 0.222938
C44   C     C_R   0.000391 0.437593 0.537475 0.204880
C45   C     C_R   0.470951 0.822156 0.855119 0.614161
C46   C     C_R   0.529023 0.821528 0.144953 0.613951
C47   C     C_R   0.970951 0.322156 0.855119 0.614152
C48   C     C_R   0.029023 0.321528 0.144953 0.613953
C49   C     C_R   0.280767 0.693711 0.524332 0.412111
C50   C     C_R   0.788448 0.691483 0.475799 0.440126
C51   C     C_R   0.780851 0.193617 0.524335 0.412274
C52   C     C_R   0.288605 0.191294 0.475781 0.440132
C53   C     C_R   0.275412 0.675933 0.451801 0.208762
C54   C     C_R   0.784529 0.687624 0.548332 0.242314
C55   C     C_R   0.775492 0.175842 0.451804 0.208963
C56   C     C_R   0.284657 0.187554 0.548317 0.242441
C57   C     C_R   0.241604 0.569260 0.426999 -0.030119
C58   C     C_R   0.745743 0.593185 0.579060 -0.068005
C59   C     C_R   0.741591 0.069261 0.427001 -0.029896
C60   C     C_R   0.245732 0.093313 0.579088 -0.067858
C61   C     C_R   0.212298 0.484042 0.473556 0.419106
C62   C     C_R   0.700456 0.518437 0.536777 0.438652
C63   C     C_R   0.712195 0.984140 0.473556 0.419403
C64   C     C_R   0.200312 0.018746 0.536839 0.438678
C65   C     C_R   0.217464 0.502037 0.546054 0.213860
C66   C     C_R   0.703093 0.523284 0.463554 0.235548
C67   C     C_R   0.717364 0.002133 0.546054 0.214089
C68   C     C_R   0.202952 0.023500 0.463610 0.235637
C69   C     C_R   0.253829 0.606186 0.570932 -0.034057
C70   C     C_R   0.747497 0.610570 0.432431 -0.054911
C71   C     C_R   0.753827 0.106174 0.570934 -0.033916
C72   C     C_R   0.247505 0.110540 0.432441 -0.054771
C73   C     C_R   0.262024 0.641629 0.853601 0.569339
C74   C     C_R   0.738066 0.640729 0.146491 0.574557
C75   C     C_R   0.762024 0.141629 0.853601 0.569331
C76   C     C_R   0.238066 0.140729 0.146491 0.574565
C77   C     C_R   0.269680 0.048167 0.647367 0.571526
C78   C     C_R   0.728756 0.046093 0.353630 0.568321
C79   C     C_R   0.769688 0.548131 0.647354 0.571477
C80   C     C_R   0.228757 0.546093 0.353629 0.568323
C81   C     C_R   0.465221 0.822060 0.644172 0.641122
C82   C     C_R   0.528475 0.824710 0.352009 0.634671
C83   C     C_R   0.965251 0.322060 0.644186 0.641135
C84   C     C_R   0.028484 0.324709 0.352015 0.634614
C85   C     C_R   0.259600 0.636089 0.644259 0.569505
C86   C     C_R   0.739647 0.640467 0.357991 0.581420
C87   C     C_R   0.759600 0.136087 0.644260 0.569520
C88   C     C_R   0.239649 0.140454 0.357993 0.581526
C89   C     C_3   0.471071 0.929339 0.028280 0.152580
C90   C     C_3   0.529961 0.928877 0.973205 0.151711
C91   C     C_3   0.971072 0.429339 0.028280 0.152579
C92   C     C_3   0.029961 0.428877 0.973205 0.151713
C93   C     C_3   0.430461 0.830635 0.985495 0.324650
C94   C     C_3   0.569358 0.828533 0.014698 0.322861
C95   C     C_3   0.930461 0.330635 0.985495 0.324648
C96   C     C_3   0.069358 0.328533 0.014698 0.322862
C97   C     C_3   0.490277 0.829972 0.930191 -0.031275
C98   C     C_3   0.509534 0.828677 0.069987 -0.030970
C99   C     C_3   0.990277 0.329972 0.930191 -0.031272
C100  C     C_3   0.009534 0.328677 0.069987 -0.030971
Cr1   Cr    Cr6+3 0.229630 0.835900 0.747350 1.141971
Cr2   Cr    Cr6+3 0.770370 0.835900 0.252650 1.136754
Cr3   Cr    Cr6+3 0.729630 0.335900 0.747350 1.141893
Cr4   Cr    Cr6+3 0.270370 0.335900 0.252650 1.136814
Cr5   Cr    Cr6+3 0.387410 0.989850 0.750850 1.154698
Cr6   Cr    Cr6+3 0.612590 0.989850 0.249150 1.157169
Cr7   Cr    Cr6+3 0.887410 0.489850 0.750850 1.154712
Cr8   Cr    Cr6+3 0.112590 0.489850 0.249150 1.157088
Cr9   Cr    Cr6+3 0.385800 0.677120 0.749340 1.140170
Cr10  Cr    Cr6+3 0.614200 0.677120 0.250660 1.127969
Cr11  Cr    Cr6+3 0.885800 0.177120 0.749340 1.140275
Cr12  Cr    Cr6+3 0.114200 0.177120 0.250660 1.127965
H1    H     H_    0.342660 0.485901 0.934842 0.171074
H2    H     H_    0.653983 0.491948 0.062764 0.168752
H3    H     H_    0.842660 0.985901 0.934842 0.171076
H4    H     H_    0.153983 0.991948 0.062764 0.168751
H5    H     H_    0.331934 0.453091 0.062828 0.157620
H6    H     H_    0.664963 0.459977 0.934515 0.162921
H7    H     H_    0.831935 0.953092 0.062828 0.157620
H8    H     H_    0.164963 0.959977 0.934515 0.162924
H9    H     H_    0.171481 0.744868 0.941559 0.126225
H10   H     H_    0.832444 0.737688 0.060857 0.127378
H11   H     H_    0.671481 0.244868 0.941559 0.126225
H12   H     H_    0.332444 0.237688 0.060857 0.127379
O1    O     O_R   0.214270 0.709000 0.827470 -0.518990
O2    O     O_R   0.785730 0.709000 0.172530 -0.519008
O3    O     O_R   0.714270 0.209000 0.827470 -0.519008
O4    O     O_R   0.285730 0.209000 0.172530 -0.518994
O5    O     O_R   0.445950 0.919440 0.676520 -0.451419
O6    O     O_R   0.554050 0.919440 0.323480 -0.439859
O7    O     O_R   0.945950 0.419440 0.676520 -0.451433
O8    O     O_R   0.054050 0.419440 0.323480 -0.439927
O9    O     O_R   0.456730 0.717630 0.669840 -0.449908
O10   O     O_R   0.543270 0.717630 0.330160 -0.462249
O11   O     O_R   0.956730 0.217630 0.669840 -0.449821
O12   O     O_R   0.043270 0.217630 0.330160 -0.462202
O13   O     O_R   0.320620 0.625640 0.672920 -0.468772
O14   O     O_R   0.679380 0.625640 0.327080 -0.498397
O15   O     O_R   0.820620 0.125640 0.672920 -0.468729
O16   O     O_R   0.179380 0.125640 0.327080 -0.498371
O17   O     O_3   0.334280 0.834290 0.749180 -0.298348
O18   O     O_3   0.665720 0.834290 0.250820 -0.292760
O19   O     O_3   0.834280 0.334290 0.749180 -0.298334
O20   O     O_3   0.165720 0.334290 0.250820 -0.292764
O21   O     O_R   0.236160 0.958490 0.823130 -0.528012
O22   O     O_R   0.763840 0.958490 0.176870 -0.526818
O23   O     O_R   0.736160 0.458490 0.823130 -0.528027
O24   O     O_R   0.263840 0.458490 0.176870 -0.526806
O25   O     O_R   0.332080 0.075470 0.831280 -0.442354
O26   O     O_R   0.667920 0.075470 0.168720 -0.443304
O27   O     O_R   0.832080 0.575470 0.831280 -0.442340
O28   O     O_R   0.167920 0.575470 0.168720 -0.443305
O29   O     O_R   0.446300 0.918110 0.826620 -0.473606
O30   O     O_R   0.553700 0.918110 0.173380 -0.477105
O31   O     O_R   0.946300 0.418110 0.826620 -0.473613
O32   O     O_R   0.053700 0.418110 0.173380 -0.477102
O33   O     O_R   0.457110 0.716200 0.831760 -0.472720
O34   O     O_R   0.542890 0.716200 0.168240 -0.473315
O35   O     O_R   0.957110 0.216200 0.831760 -0.472718
O36   O     O_R   0.042890 0.216200 0.168240 -0.473318
O37   O     O_R   0.320980 0.624310 0.823030 -0.500219
O38   O     O_R   0.679020 0.624310 0.176970 -0.497482
O39   O     O_R   0.820980 0.124310 0.823030 -0.500215
O40   O     O_R   0.179020 0.124310 0.176970 -0.497486
O41   O     O_R   0.213890 0.710430 0.665540 -0.443743
O42   O     O_R   0.786110 0.710430 0.334460 -0.421976
O43   O     O_R   0.713890 0.210430 0.665540 -0.443668
O44   O     O_R   0.286110 0.210430 0.334460 -0.421868
O45   O     O_R   0.235810 0.959820 0.673020 -0.416229
O46   O     O_R   0.764190 0.959820 0.326980 -0.444735
O47   O     O_R   0.735810 0.459820 0.673020 -0.416317
O48   O     O_R   0.264190 0.459820 0.326980 -0.444802
O49   O     O_R   0.331700 0.076900 0.669350 -0.493683
O50   O     O_R   0.668300 0.076900 0.330650 -0.479163
O51   O     O_R   0.831700 0.576900 0.669350 -0.493671
O52   O     O_R   0.168300 0.576900 0.330650 -0.479216
F1    F     F_    0.358573 0.833076 0.969811 -0.627470
F2    F     F_    0.641263 0.828620 0.030388 -0.629004
F3    F     F_    0.858573 0.333076 0.969811 -0.627471
F4    F     F_    0.141263 0.328619 0.030388 -0.629004
F5    F     F_    0.311532 0.798030 0.549888 -0.606512
F6    F     F_    0.830005 0.780614 0.448580 -0.550926
F7    F     F_    0.811684 0.297874 0.549893 -0.606468
F8    F     F_    0.330351 0.280167 0.448537 -0.550769
O53   O     O_3   0.302660 0.764577 0.408104 -0.647754
H13   H     H_    0.297657 0.738511 0.357857 0.321712
O54   O     O_3   0.822107 0.774165 0.587535 -0.600551
H14   H     H_    0.800129 0.782573 0.634649 0.332296
O55   O     O_3   0.802824 0.264406 0.408108 -0.647607
H15   H     H_    0.797779 0.238375 0.357860 0.321693
O56   O     O_3   0.322359 0.273993 0.587483 -0.600415
H16   H     H_    0.300356 0.282605 0.634579 0.332335
F9    F     F_    0.176167 0.384937 0.447921 -0.610284
F10   F     F_    0.658628 0.431625 0.565805 -0.537208
F11   F     F_    0.676000 0.885108 0.447920 -0.610184
F12   F     F_    0.158329 0.932188 0.565914 -0.537188
O57   O     O_3   0.185009 0.418554 0.589552 -0.652872
H17   H     H_    0.192975 0.441702 0.639943 0.315247
O58   O     O_3   0.663247 0.439337 0.424770 -0.599348
H18   H     H_    0.686370 0.424546 0.378804 0.337340
O59   O     O_3   0.684831 0.918744 0.589549 -0.652717
H19   H     H_    0.692806 0.941884 0.639940 0.315277
O60   O     O_3   0.162953 0.939711 0.424861 -0.599298
H20   H     H_    0.186112 0.924640 0.378936 0.337394
O61   O     O_3   0.440760 0.032273 0.059604 -0.659336
H21   H     H_    0.437468 0.093739 0.021401 0.342040
O62   O     O_3   0.561464 0.031357 0.943302 -0.659407
H22   H     H_    0.566059 0.091775 0.982522 0.342528
O63   O     O_3   0.940761 0.532273 0.059604 -0.659344
H23   H     H_    0.937468 0.593739 0.021401 0.342040
O64   O     O_3   0.061464 0.531357 0.943302 -0.659401
H24   H     H_    0.066059 0.591775 0.982522 0.342527
F13   F     F_    0.558271 0.625946 0.942075 -0.606514
F14   F     F_    0.439191 0.626902 0.055537 -0.605846
F15   F     F_    0.058270 0.125946 0.942075 -0.606506
F16   F     F_    0.939192 0.126902 0.055537 -0.605850
O65   O     O_3   0.156278 0.740768 0.078743 -0.678645
H25   H     H_    0.124561 0.785550 0.045404 0.312164
O66   O     O_3   0.847166 0.737212 0.923870 -0.679317
H26   H     H_    0.878693 0.781901 0.957943 0.312945
O67   O     O_3   0.656278 0.240768 0.078743 -0.678642
H27   H     H_    0.624561 0.285550 0.045404 0.312165
O68   O     O_3   0.347166 0.237212 0.923870 -0.679322
H28   H     H_    0.378693 0.281900 0.957944 0.312944
O69   O     O_3   0.439367 0.616539 0.556286 -0.620996
H29   H     H_    0.408930 0.569912 0.522309 0.352945
O70   O     O_3   0.450829 0.632225 0.408513 -0.655728
H30   H     H_    0.471504 0.557376 0.429784 0.366220
O71   O     O_3   0.939487 0.116482 0.556309 -0.620814
H31   H     H_    0.909031 0.069864 0.522345 0.353013
O72   O     O_3   0.950884 0.132203 0.408543 -0.655630
H32   H     H_    0.971581 0.057360 0.429799 0.366275
O73   O     O_3   0.534822 0.047042 0.431944 -0.629035
H33   H     H_    0.566008 0.091826 0.466203 0.357144
O74   O     O_3   0.510120 0.039712 0.580196 -0.646652
H34   H     H_    0.495181 0.112881 0.553125 0.367220
O75   O     O_3   0.034900 0.547016 0.431969 -0.629181
H35   H     H_    0.066105 0.591771 0.466225 0.357058
O76   O     O_3   0.010198 0.539688 0.580223 -0.646753
H36   H     H_    0.995283 0.612868 0.553148 0.367145

loop_
_geom_bond_atom_site_label_1
_geom_bond_atom_site_label_2
_ccdc_geom_bond_type
Cr2   O46   S    
Cr5   O29   S    
C22   O66   S    
C58   C62   A    
Cr6   O26   S    
C90   C94   S    
C55   C59   A    
C34   C37   A    
C41   C42   A    
C14   C18   A    
C1    O21   A    
C35   C36   A    
C86   O42   A    
C78   O46   A    
C91   O63   S    
Cr9   O33   S    
C5    C94   S    
Cr10  O38   S    
Cr3   O23   S    
C7    C8    S    
C47   O35   A    
O61   H21   S    
C65   C69   A    
Cr3   O43   S    
C7    C96   S    
C48   O36   A    
Cr1   O21   S    
C50   C54   A    
C7    C99   S    
C2    O26   A    
C37   C41   A    
C67   O59   S    
C64   C68   A    
Cr9   O37   S    
Cr9   O13   S    
C52   F8    S    
C39   C84   S    
C38   C42   A    
C33   O69   S    
C16   H8    S    
Cr5   O17   S    
C5    C6    S    
C30   C74   S    
C95   C99   S    
C13   H5    S    
C29   C73   S    
C94   C98   S    
C61   F9    S    
C46   O34   A    
Cr8   O52   S    
C92   C96   S    
C47   C99   S    
C77   O49   A    
C3    C18   S    
C75   O39   A    
O59   H19   S    
C79   O47   A    
C57   C61   A    
Cr10  O18   S    
Cr4   O24   S    
C88   O16   A    
C9    C13   A    
C43   O75   S    
Cr8   O28   S    
Cr1   O17   S    
C89   O61   S    
O76   H36   S    
C63   F11   S    
C14   H6    S    
Cr8   O32   S    
Cr1   O1    S    
O74   H34   S    
Cr4   O20   S    
Cr2   O2    S    
Cr1   O45   S    
C23   C27   A    
C91   C100  S    
C82   O6    A    
Cr3   O3    S    
O73   H33   S    
C90   C97   S    
C83   O11   A    
C66   O58   S    
Cr10  O34   S    
C47   O31   A    
C9    C29   A    
Cr4   O48   S    
Cr7   O27   S    
C46   C98   S    
C56   O56   S    
C11   C31   A    
O58   H18   S    
Cr2   O42   S    
C49   C69   A    
O75   H35   S    
C12   C32   A    
C68   O60   S    
Cr3   O47   S    
C40   C83   S    
C50   F6    S    
C8    C95   S    
C11   C15   A    
Cr12  O12   S    
Cr12  O40   S    
C59   C78   S    
C87   O43   A    
C72   C88   S    
C60   C64   A    
O69   H29   S    
C55   O55   S    
C25   C29   A    
C4    O28   A    
O63   H23   S    
C63   C67   A    
C60   C77   S    
C59   C63   A    
C62   C66   A    
C27   C31   A    
O62   H22   S    
C6    C98   S    
C12   C16   A    
Cr10  O14   S    
C48   C100  S    
Cr11  O39   S    
C80   O52   A    
O68   H28   S    
Cr7   O7    S    
C10   C14   A    
C87   O15   A    
O66   H26   S    
C74   O38   A    
C53   C57   A    
C19   C23   A    
Cr5   O5    S    
C51   C55   A    
C88   O44   A    
O65   H25   S    
C34   O70   S    
Cr9   O9    S    
C84   O8    A    
C17   C21   A    
O56   H16   S    
Cr3   O19   S    
C68   C72   A    
C35   O71   S    
C82   O10   A    
C53   O53   S    
C15   C19   A    
C43   C44   A    
O64   H24   S    
C83   O7    A    
O71   H31   S    
C52   C72   A    
C69   C85   S    
C79   O51   A    
Cr4   O44   S    
O67   H27   S    
C42   O74   S    
C10   C30   A    
C93   C97   S    
C73   O37   A    
O70   H30   S    
C6    F14   S    
C28   C32   A    
C16   C20   A    
C6    C93   S    
C5    F13   S    
C28   H12   S    
C33   C34   A    
Cr6   O50   S    
C45   O33   A    
C96   F4    S    
Cr11  O15   S    
Cr1   O41   S    
C58   C79   S    
C49   F5    S    
C4    C17   S    
C46   O30   A    
C95   F3    S    
C57   C80   S    
C26   C30   A    
Cr6   O30   S    
C38   C81   S    
C81   O5    A    
C76   O4    A    
Cr2   O18   S    
C71   C87   S    
C37   C82   S    
Cr10  O10   S    
C45   O29   A    
C62   F10   S    
Cr7   O19   S    
Cr12  O16   S    
C70   C86   S    
C44   O76   S    
C85   O13   A    
C31   C75   S    
Cr8   O20   S    
C11   H3    S    
Cr5   O49   S    
C54   C58   A    
C24   O68   S    
O55   H15   S    
Cr6   O6    S    
C21   C25   A    
C84   O12   A    
Cr6   O18   S    
C27   H11   S    
Cr12  O36   S    
C2    C19   S    
C18   C22   A    
C3    O27   A    
C36   C39   A    
C24   C28   A    
Cr11  O35   S    
C1    O25   A    
C8    F16   S    
C94   F2    S    
C10   H2    S    
C32   C76   S    
Cr9   O17   S    
C51   C71   A    
C81   O9    A    
Cr11  O19   S    
C2    O22   A    
Cr5   O25   S    
C66   C70   A    
C51   F7    S    
C33   C38   A    
C1    C20   S    
C13   C17   A    
C89   C98   S    
C54   O54   S    
C85   O41   A    
Cr12  O20   S    
C41   O73   S    
C35   C40   A    
C8    C100  S    
C9    H1    S    
O54   H14   S    
C45   C97   S    
C3    O23   A    
Cr2   O22   S    
Cr11  O11   S    
O53   H13   S    
C74   O2    A    
Cr7   O51   S    
C36   O72   S    
C49   C53   A    
C64   F12   S    
C15   H7    S    
C23   O67   S    
C67   C71   A    
Cr4   O4    S    
C61   C65   A    
C89   C93   S    
O57   H17   S    
C48   O32   A    
C7    F15   S    
C50   C70   A    
Cr8   O8    S    
C76   O40   A    
C86   O14   A    
C91   C95   S    
C90   O62   S    
C56   C60   A    
C5    C97   S    
C40   C44   A    
C96   C100  S    
C39   C43   A    
C73   O1    A    
C77   O45   A    
C22   C26   A    
O72   H32   S    
C78   O50   A    
C80   O48   A    
C92   O64   S    
C21   O65   S    
C26   H10   S    
O60   H20   S    
C93   F1    S    
C89   C90   S    
C65   O57   S    
C25   H9    S    
C20   C24   A    
Cr7   O31   S    
C91   C92   S    
C52   C56   A    
C92   C99   S    
C12   H4    S    
C75   O3    A    
C4    O24   A    
