data_mof_unit_17883.cif
_audit_creation_date              2012-12-11T14:34:07-0500
_audit_creation_method            fapswitch 2.2
_symmetry_space_group_name_H-M    P1
_symmetry_Int_Tables_number       1
_space_group_crystal_system       triclinic
_cell_length_a                    14.376234
_cell_length_b                    14.37613
_cell_length_c                    27.021977
_cell_angle_alpha                 90.00074
_cell_angle_beta                  89.999445
_cell_angle_gamma                 119.99978
_cell_volume                      4836.55174871

loop_
_atom_site_label
_atom_site_type_symbol
_atom_type_description
_atom_site_fract_x
_atom_site_fract_y
_atom_site_fract_z
_atom_type_partial_charge
Br1   Br    Br    0.703945 0.057422 0.115660 -0.313918
Br2   Br    Br    0.557365 0.520469 0.189379 -0.343816
Br3   Br    Br    0.479528 0.036892 0.189380 -0.343826
Br4   Br    Br    0.963100 0.442632 0.189386 -0.343822
Br5   Br    Br    0.803106 0.021940 0.695511 -0.579809
Br6   Br    Br    0.978077 0.781231 0.695502 -0.579749
Br7   Br    Br    0.218728 0.196785 0.695489 -0.579791
Br8   Br    Br    0.876376 0.861035 0.809899 -0.497814
Br9   Br    Br    0.138900 0.015297 0.809928 -0.497807
Br10  Br    Br    0.984650 0.123600 0.809910 -0.497810
Br11  Br    Br    0.942579 0.646522 0.115661 -0.313918
Br12  Br    Br    0.353477 0.296065 0.115657 -0.313921
Br13  Br    Br    0.668076 0.023930 0.406293 -0.507875
Br14  Br    Br    0.976074 0.644149 0.406292 -0.507865
Br15  Br    Br    0.355858 0.331927 0.406290 -0.507872
Br16  Br    Br    0.771071 0.176305 0.219021 -0.325856
Br17  Br    Br    0.823695 0.594789 0.219021 -0.325875
Br18  Br    Br    0.405222 0.228921 0.219016 -0.325855
C1    C     C_R   0.235894 0.788011 0.568524 0.536292
C2    C     C_1   0.684652 0.839196 0.864831 -0.014905
C3    C     C_3   0.658850 0.648396 0.381752 -0.333791
C4    C     C_3   0.351610 0.010452 0.381752 -0.333792
C5    C     C_3   0.989545 0.341138 0.381756 -0.333791
C6    C     C_3   0.516164 0.593501 0.719999 -0.397835
C7    C     C_3   0.406502 0.922680 0.720012 -0.397805
C8    C     C_3   0.077396 0.483848 0.720004 -0.397821
C9    C     C_3   0.707591 0.655079 0.721524 -0.371432
C10   C     C_3   0.344923 0.052525 0.721547 -0.371488
C11   C     C_3   0.947497 0.292431 0.721530 -0.371426
C12   C     C_1   0.160795 0.845439 0.864836 -0.014959
C13   C     C_1   0.154553 0.315326 0.864826 -0.014926
C14   C     C_1   0.628826 0.793573 0.658897 -0.004808
C15   C     C_1   0.206437 0.835273 0.658901 -0.004770
C16   C     C_1   0.164732 0.371135 0.658890 -0.004788
C17   C     C_1   0.601439 0.788431 0.616354 0.037513
C18   C     C_1   0.211576 0.813019 0.616357 0.037520
C19   C     C_1   0.186981 0.398537 0.616348 0.037502
C20   C     C_R   0.106629 0.221628 0.087509 0.566373
C21   C     C_R   0.211988 0.447877 0.568520 0.536287
C22   C     C_R   0.778373 0.885003 0.087509 0.566373
C23   C     C_R   0.114997 0.893370 0.087509 0.566366
C24   C     C_R   0.106866 0.221243 0.952066 0.576391
C25   C     C_R   0.778752 0.885620 0.952068 0.576388
C26   C     C_R   0.114381 0.893129 0.952071 0.576395
C27   C     C_R   0.647215 0.904795 0.364915 0.132156
C28   C     C_R   0.095207 0.742423 0.364914 0.132157
C29   C     C_R   0.257580 0.352783 0.364914 0.132157
C30   C     C_R   0.663251 0.918037 0.313246 -0.007548
C31   C     C_R   0.081964 0.745219 0.313245 -0.007547
C32   C     C_R   0.552118 0.764109 0.568522 0.536299
C33   C     C_R   0.254784 0.336746 0.313245 -0.007549
C34   C     C_R   0.690021 0.941121 0.208684 0.037636
C35   C     C_R   0.058879 0.748906 0.208684 0.037636
C36   C     C_R   0.251097 0.309979 0.208683 0.037635
C37   C     C_R   0.233054 0.789184 0.432298 0.564073
C38   C     C_R   0.210816 0.443868 0.432299 0.564067
C39   C     C_R   0.556131 0.766947 0.432299 0.564072
C40   C     C_R   0.707847 0.029217 0.239244 0.201153
C41   C     C_R   0.970783 0.678641 0.239244 0.201157
C42   C     C_R   0.321365 0.292151 0.239241 0.201154
C43   C     C_3   0.624813 0.700230 0.795378 -0.170353
C44   C     C_R   0.691238 0.015627 0.290161 -0.086524
C45   C     C_R   0.984373 0.675621 0.290160 -0.086514
C46   C     C_R   0.324386 0.308760 0.290158 -0.086520
C47   C     C_R   0.707030 0.948547 0.156647 0.177037
C48   C     C_R   0.051453 0.758486 0.156646 0.177039
C49   C     C_R   0.241515 0.292973 0.156645 0.177038
C50   C     C_R   0.712673 0.864915 0.132049 -0.022114
C51   C     C_R   0.135085 0.847758 0.132048 -0.022113
C52   C     C_R   0.152240 0.287329 0.132048 -0.022114
C53   C     C_R   0.634637 0.729743 0.358094 -0.038806
C54   C     C_3   0.299758 0.924589 0.795389 -0.170372
C55   C     C_R   0.270260 0.904893 0.358094 -0.038806
C56   C     C_R   0.095103 0.365355 0.358097 -0.038804
C57   C     C_R   0.630664 0.734709 0.306557 -0.008276
C58   C     C_R   0.265292 0.895955 0.306557 -0.008276
C59   C     C_R   0.104040 0.369327 0.306560 -0.008276
C60   C     C_R   0.649185 0.830819 0.283886 0.006002
C61   C     C_R   0.169181 0.818368 0.283885 0.006003
C62   C     C_R   0.181631 0.350810 0.283886 0.006002
C63   C     C_R   0.605263 0.644294 0.277425 -0.077815
C64   C     C_R   0.355705 0.960967 0.277424 -0.077819
C65   C     C_3   0.075448 0.375182 0.795376 -0.170380
C66   C     C_R   0.039024 0.394726 0.277429 -0.077818
C67   C     C_R   0.606365 0.650850 0.226300 0.191024
C68   C     C_R   0.349148 0.955513 0.226300 0.191021
C69   C     C_R   0.044479 0.393628 0.226304 0.191020
C70   C     C_R   0.642127 0.750826 0.203581 0.016250
C71   C     C_R   0.249173 0.891303 0.203581 0.016250
C72   C     C_R   0.108693 0.357869 0.203583 0.016248
C73   C     C_3   0.567622 0.831233 0.735815 -0.213338
C74   C     C_3   0.168755 0.736396 0.735813 -0.213352
C75   C     C_3   0.263613 0.432316 0.735802 -0.213364
C76   C     C_3   0.623850 0.687526 0.737109 0.003567
C77   C     C_R   0.659500 0.840978 0.231980 -0.026167
C78   C     C_R   0.159021 0.818525 0.231980 -0.026166
C79   C     C_R   0.181474 0.340497 0.231981 -0.026168
C80   C     C_R   0.670439 0.764524 0.154010 -0.115517
C81   C     C_R   0.235475 0.905914 0.154010 -0.115519
C82   C     C_R   0.094081 0.329560 0.154012 -0.115519
C83   C     C_R   0.621826 0.805339 0.386577 0.036726
C84   C     C_R   0.194663 0.816487 0.386577 0.036726
C85   C     C_R   0.183513 0.378169 0.386578 0.036726
C86   C     C_3   0.761688 0.884466 0.726940 0.055472
C87   C     C_3   0.312472 0.936332 0.737122 0.003578
C88   C     C_3   0.115538 0.877241 0.726949 0.055485
C89   C     C_3   0.122735 0.238261 0.726935 0.055476
C90   C     C_3   0.770625 0.893461 0.784330 0.087086
C91   C     C_3   0.106519 0.877142 0.784339 0.087093
C92   C     C_3   0.122821 0.229336 0.784325 0.087103
C93   C     C_1   0.720605 0.861879 0.906257 0.042684
C94   C     C_1   0.138117 0.858714 0.906262 0.042693
C95   C     C_1   0.141276 0.279382 0.906253 0.042687
C96   C     C_3   0.646164 0.797673 0.713034 0.058497
C97   C     C_3   0.202328 0.848506 0.713039 0.058485
C98   C     C_3   0.063697 0.376145 0.737109 0.003553
C99   C     C_3   0.151500 0.353795 0.713027 0.058493
C100  C     C_3   0.583874 0.853419 0.792394 -0.125326
C101  C     C_3   0.146616 0.730455 0.792397 -0.125287
C102  C     C_3   0.269555 0.416088 0.792382 -0.125322
C103  C     C_3   0.663672 0.819392 0.810898 0.035899
C104  C     C_3   0.180603 0.844272 0.810904 0.035857
C105  C     C_3   0.155729 0.336298 0.810891 0.035880
C106  C     C_3   0.479310 0.803766 0.822733 -0.437835
C107  C     C_3   0.196349 0.675598 0.822723 -0.437605
C108  C     C_3   0.324457 0.520660 0.822716 -0.437619
Cr1   Cr    Cr6+3 0.164410 0.584450 0.499910 1.086306
Cr2   Cr    Cr6+3 0.415550 0.579960 0.499910 1.086302
Cr3   Cr    Cr6+3 0.420040 0.835590 0.499910 1.086309
Cr4   Cr    Cr6+3 0.155170 0.075460 0.019960 1.122724
Cr5   Cr    Cr6+3 0.924540 0.079710 0.019960 1.122728
Cr6   Cr    Cr6+3 0.920290 0.844830 0.019960 1.122727
H1    H     H_    0.620893 0.942037 0.797292 0.146165
H2    H     H_    0.704864 0.084682 0.311672 0.192185
H3    H     H_    0.915318 0.620195 0.311671 0.192186
H4    H     H_    0.379816 0.295135 0.311668 0.192187
H5    H     H_    0.669385 0.699616 0.133238 0.207869
H6    H     H_    0.300383 0.969765 0.133237 0.207867
H7    H     H_    0.030227 0.330614 0.133240 0.207868
H8    H     H_    0.581434 0.567114 0.294141 0.160086
H9    H     H_    0.432885 0.014315 0.294141 0.160083
H10   H     H_    0.985671 0.418551 0.294147 0.160088
H11   H     H_    0.580990 0.905568 0.717075 0.158526
H12   H     H_    0.058011 0.678833 0.797312 0.146115
H13   H     H_    0.094400 0.675443 0.717083 0.158522
H14   H     H_    0.324566 0.418925 0.717067 0.158520
H15   H     H_    0.820552 0.863693 0.711733 0.225184
H16   H     H_    0.136329 0.956892 0.711756 0.225205
H17   H     H_    0.043082 0.179413 0.711738 0.225184
H18   H     H_    0.792393 0.975829 0.794695 0.211604
H19   H     H_    0.024152 0.816522 0.794695 0.211585
H20   H     H_    0.183418 0.207559 0.794682 0.211583
H21   H     H_    0.544354 0.647460 0.811024 0.113509
H22   H     H_    0.352515 0.896908 0.811039 0.113547
H23   H     H_    0.321148 0.379070 0.797284 0.146142
H24   H     H_    0.103198 0.455654 0.811010 0.113546
H25   H     H_    0.480036 0.865299 0.847810 0.132391
H26   H     H_    0.408748 0.773417 0.798403 0.128304
H27   H     H_    0.469552 0.737371 0.846937 0.144736
H28   H     H_    0.134740 0.614510 0.847697 0.132268
H29   H     H_    0.227054 0.635692 0.798377 0.128177
H30   H     H_    0.262540 0.732237 0.847042 0.144745
H31   H     H_    0.364523 0.591267 0.798363 0.128194
H32   H     H_    0.267811 0.530326 0.846985 0.144720
H33   H     H_    0.385417 0.520018 0.847744 0.132334
H34   H     H_    0.484620 0.769092 0.727186 0.105069
H35   H     H_    0.720512 0.641507 0.359804 0.157431
H36   H     H_    0.693745 0.674475 0.419295 0.182217
H37   H     H_    0.584935 0.568348 0.383694 0.184940
H38   H     H_    0.358505 0.079005 0.359804 0.157430
H39   H     H_    0.325532 0.019273 0.419294 0.182219
H40   H     H_    0.431654 0.016578 0.383696 0.184941
H41   H     H_    0.980733 0.306246 0.419299 0.182216
H42   H     H_    0.920994 0.279472 0.359810 0.157432
H43   H     H_    0.983408 0.415051 0.383699 0.184939
H44   H     H_    0.452159 0.611390 0.726576 0.114201
H45   H     H_    0.230873 0.715525 0.727158 0.105047
H46   H     H_    0.516760 0.577221 0.679812 0.156240
H47   H     H_    0.498031 0.519707 0.740890 0.136820
H48   H     H_    0.388563 0.840736 0.726485 0.114173
H49   H     H_    0.422909 0.939775 0.679847 0.156269
H50   H     H_    0.480244 0.978210 0.740966 0.136801
H51   H     H_    0.159293 0.547846 0.726609 0.114235
H52   H     H_    0.060570 0.483274 0.679810 0.156238
H53   H     H_    0.021708 0.501975 0.740885 0.136825
H54   H     H_    0.680002 0.569855 0.730922 0.141718
H55   H     H_    0.722969 0.665565 0.681051 0.182339
H56   H     H_    0.284482 0.515309 0.727162 0.105070
H57   H     H_    0.783634 0.701747 0.741555 0.209783
H58   H     H_    0.430160 0.110151 0.730936 0.141733
H59   H     H_    0.334408 0.057424 0.681076 0.182361
H60   H     H_    0.298269 0.081906 0.741592 0.209732
H61   H     H_    0.942593 0.277037 0.681062 0.182354
H62   H     H_    0.918109 0.216393 0.741567 0.209758
H63   H     H_    0.889881 0.320041 0.730935 0.141715
H64   H     H_    0.675673 0.671713 0.813251 0.157656
H65   H     H_    0.328267 0.003958 0.813263 0.157632
H66   H     H_    0.996078 0.324371 0.813259 0.157631
O1    O     O_R   0.137150 0.468200 0.553200 -0.507739
O2    O     O_R   0.140110 0.470540 0.446010 -0.515705
O3    O     O_R   0.529460 0.669570 0.446010 -0.515705
O4    O     O_R   0.330430 0.859890 0.446010 -0.515709
O5    O     O_R   0.176710 0.690910 0.450560 -0.448477
O6    O     O_R   0.309090 0.485800 0.450560 -0.448481
O7    O     O_R   0.514200 0.823290 0.450560 -0.448482
O8    O     O_3   0.333333 0.666667 0.499990 -0.322061
O9    O     O_R   0.176750 0.985260 0.074180 -0.498734
O10   O     O_R   0.014740 0.191490 0.074180 -0.498734
O11   O     O_R   0.808510 0.823250 0.074180 -0.498733
O12   O     O_R   0.531800 0.668950 0.553200 -0.507742
O13   O     O_R   0.146100 0.172630 0.068980 -0.465768
O14   O     O_R   0.827370 0.973470 0.068980 -0.465772
O15   O     O_R   0.026530 0.853900 0.068980 -0.465775
O16   O     O_3   0.000000 0.000000 0.020040 -0.267984
O17   O     O_R   0.148270 0.170520 0.969620 -0.483365
O18   O     O_R   0.829480 0.977750 0.969620 -0.483363
O19   O     O_R   0.022250 0.851730 0.969620 -0.483363
O20   O     O_R   0.331050 0.862850 0.553200 -0.507729
O21   O     O_R   0.179100 0.982980 0.967000 -0.496457
O22   O     O_R   0.017020 0.196120 0.967000 -0.496454
O23   O     O_R   0.803880 0.820900 0.967000 -0.496455
O24   O     O_R   0.173970 0.688730 0.549930 -0.485384
O25   O     O_R   0.311270 0.485240 0.549930 -0.485392
O26   O     O_R   0.514760 0.826030 0.549930 -0.485384

loop_
_geom_bond_atom_site_label_1
_geom_bond_atom_site_label_2
_ccdc_geom_bond_type
C40   C44   A    
C63   H8    S    
Br13  C27   S    
C46   H4    S    
C31   C45   A    
C62   C79   A    
C16   C19   T    
C73   H34   S    
C107  H30   S    
C66   C69   A    
Br15  C29   S    
C90   C103  S    
C108  H33   S    
Cr1   O2    S    
C20   C52   S    
C74   C97   S    
C35   C41   A    
C7    H48   S    
C7    C87   S    
Br14  C28   S    
Br4   C69   S    
C36   C42   A    
C8    C98   S    
C28   C84   A    
C28   C31   A    
C32   O26   A    
C3    H36   S    
C25   C93   S    
Br2   C67   S    
C25   O23   A    
Cr1   O8    S    
C24   O22   A    
C1    C18   S    
C64   H9    S    
C8    H53   S    
C74   C101  S    
C91   C104  S    
C67   C70   A    
C48   C51   A    
C5    H43   S    
C25   O18   A    
C11   H62   S    
C3    H37   S    
C106  H27   S    
C39   O7    A    
C15   C18   T    
C23   O15   A    
C98   C99   S    
C34   C77   A    
C43   C103  S    
Cr6   O19   S    
Cr2   O6    S    
C30   C60   A    
C33   C62   A    
C24   O17   A    
Cr1   O24   S    
Cr2   O12   S    
C54   H65   S    
C12   C104  S    
C7    H49   S    
C56   C59   A    
C106  H26   S    
Br1   C47   S    
C58   C61   A    
C81   H6    S    
Cr4   O16   S    
Cr4   O9    S    
C75   C102  S    
C20   O13   A    
C60   C77   A    
C72   C79   A    
C4    H39   S    
C102  C105  S    
C63   C67   A    
C8    H51   S    
C16   C99   S    
C53   C83   A    
Br5   C86   S    
Cr5   O16   S    
C89   C99   S    
C101  H12   S    
C86   H15   S    
C21   O25   A    
Cr4   O13   S    
C26   O21   A    
C75   C99   S    
C6    H47   S    
Cr3   O26   S    
C108  H32   S    
Cr5   O10   S    
Br8   C90   S    
Cr2   O25   S    
C72   C82   A    
C26   C94   S    
C52   C82   A    
C73   H11   S    
Br9   C91   S    
Br12  C49   S    
C107  H29   S    
C15   C97   S    
C54   H22   S    
Cr6   O11   S    
C80   H5    S    
Cr6   O23   S    
C76   C96   S    
C14   C17   T    
C107  H28   S    
C75   H14   S    
C29   C85   A    
C74   H45   S    
C58   C64   A    
C5    H42   S    
C43   C76   S    
C57   C63   A    
C100  C106  S    
C65   H24   S    
C59   C66   A    
C64   C68   A    
C37   O4    A    
C22   O11   A    
C102  H23   S    
C31   C61   A    
C43   H21   S    
Cr5   O22   S    
C100  C103  S    
C45   H3    S    
C23   O9    A    
Cr3   O20   S    
C82   H7    S    
C6    C76   S    
C92   C105  S    
C2    C93   T    
Cr3   O7    S    
C24   C95   S    
C30   C44   A    
C37   C84   S    
C66   H10   S    
C10   C87   S    
C47   C50   A    
C37   O5    A    
C106  H25   S    
C17   C32   S    
Br6   C88   S    
C73   C100  S    
Cr4   O17   S    
C36   C79   A    
C1    O20   A    
Br16  C40   S    
C65   H66   S    
C35   C48   A    
C43   H64   S    
C2    C103  S    
C4    H38   S    
C100  H1    S    
C34   C40   A    
Br17  C41   S    
C5    H41   S    
Cr3   O4    S    
C101  C107  S    
Br18  C42   S    
C55   C84   A    
C11   C98   S    
C3    C53   S    
C26   O19   A    
C27   C83   A    
C6    H46   S    
C55   C58   A    
C86   C96   S    
C22   O14   A    
Cr6   O16   S    
C5    C56   S    
C39   O3    A    
C108  H31   S    
C6    H44   S    
C10   H59   S    
C51   C81   A    
C86   C90   S    
C7    H50   S    
C23   C51   S    
C27   C30   A    
C21   O1    A    
C54   C104  S    
C74   H13   S    
C101  C104  S    
C65   C98   S    
C87   C97   S    
C1    O24   A    
C33   C46   A    
C38   C85   S    
C71   C81   A    
C68   C71   A    
C10   H58   S    
C29   C33   A    
Br11  C48   S    
C36   C49   A    
C39   C83   S    
Cr5   O18   S    
C41   C45   A    
C3    H35   S    
C73   C96   S    
C35   C78   A    
C88   C97   S    
C42   C46   A    
C49   C52   A    
C14   C96   S    
Cr1   O1    S    
C44   H2    S    
C71   C78   A    
C92   H20   S    
C13   C105  S    
C61   C78   A    
C19   C21   S    
C11   H63   S    
C53   C57   A    
Cr3   O8    S    
C59   C62   A    
C11   H61   S    
C89   C92   S    
C13   C95   T    
Br10  C92   S    
Br7   C89   S    
Cr2   O3    S    
Cr2   O8    S    
Cr4   O21   S    
C57   C60   A    
C70   C80   A    
C70   C77   A    
C38   O6    A    
C90   H18   S    
C89   H17   S    
C75   H56   S    
C102  C108  S    
C91   H19   S    
C54   C87   S    
C32   O12   A    
C88   H16   S    
C22   C50   S    
C69   C72   A    
C12   C94   T    
Cr5   O14   S    
C10   H60   S    
C9    C76   S    
C50   C80   A    
Cr6   O15   S    
C9    H57   S    
C4    C55   S    
C65   C105  S    
C20   O10   A    
Cr1   O5    S    
C9    H55   S    
C9    H54   S    
C4    H40   S    
C34   C47   A    
C38   O2    A    
C56   C85   A    
Br3   C68   S    
C88   C91   S    
C8    H52   S    
