data_mof_unit_33287.cif
_audit_creation_date              2013-03-05T16:45:22-0500
_audit_creation_method            fapswitch 2.2
_symmetry_space_group_name_H-M    P1
_symmetry_Int_Tables_number       1
_space_group_crystal_system       triclinic
_cell_length_a                    8.957836
_cell_length_b                    10.794863
_cell_length_c                    9.930949
_cell_angle_alpha                 89.787107
_cell_angle_beta                  89.733159
_cell_angle_gamma                 93.034342
_cell_volume                      958.944673018

loop_
_atom_site_label
_atom_site_type_symbol
_atom_site_description
_atom_site_fract_x
_atom_site_fract_y
_atom_site_fract_z
_atom_type_partial_charge
O1    O     O_R   0.500020 0.316790 0.614690 -0.572358
O2    O     O_R   0.500000 0.316760 0.385350 -0.616947
C1    C     C_R   0.498015 0.260292 0.500230 0.864743
O3    O     O_R   0.285350 0.500020 0.614650 -0.636210
O4    O     O_R   0.285340 0.499980 0.385310 -0.611892
C2    C     C_R   0.218750 0.498683 0.500034 0.910327
Zn1   Zn    Zn3+2 0.500010 0.500020 0.653130 0.971395
Zn2   Zn    Zn3+2 0.499990 0.499980 0.346870 0.956606
O5    O     O_R   0.500000 0.683240 0.614650 -0.636479
O6    O     O_R   0.499980 0.683210 0.385310 -0.614309
O7    O     O_R   0.714660 0.500020 0.614690 -0.586567
O8    O     O_R   0.714650 0.499980 0.385350 -0.630515
C3    C     C_R   0.493561 0.739421 0.500165 0.873033
C4    C     C_R   0.781172 0.499640 0.499683 0.935478
C5    C     C_1   0.065227 0.497711 0.499424 -0.203591
C6    C     C_1   0.934560 0.498070 0.498923 -0.190817
C7    C     C_R   0.504453 0.063374 0.620834 0.069356
C8    C     C_R   0.488350 0.127920 0.500592 -0.178023
C9    C     C_R   0.451653 0.063319 0.382173 -0.225031
H1    H     H_    0.420180 0.112336 0.292021 0.196167
C10   C     C_R   0.437330 0.934852 0.384870 -0.021194
C11   C     C_R   0.482922 0.871555 0.500892 -0.131778
C12   C     C_R   0.514821 0.936750 0.619524 0.013905
C13   C     C_3   0.431235 0.922409 0.750148 -0.569461
C14   C     C_3   0.413587 0.061310 0.750639 0.296661
H2    H     H_    0.326230 0.864039 0.738938 0.180599
H3    H     H_    0.498906 0.893983 0.836227 0.204126
C15   C     C_R   0.370765 0.476913 0.071812 0.237621
N1    N     N_R   0.499010 0.499140 0.142800 -0.103224
C16   C     C_R   0.624465 0.536147 0.072517 -0.157101
H4    H     H_    0.724040 0.566335 0.127212 0.143897
C17   C     C_R   0.625007 0.538351 0.929320 0.055381
N2    N     N_R   0.499010 0.499180 0.857150 -0.100917
C18   C     C_R   0.370291 0.477429 0.930114 0.127170
C19   C     C_3   0.268334 0.363696 0.927841 -0.444552
C20   C     C_3   0.269310 0.363767 0.080599 -0.469627
H5    H     H_    0.156462 0.377707 0.885490 0.187753
H6    H     H_    0.323118 0.285566 0.883432 0.268107
H7    H     H_    0.159232 0.383506 0.125540 0.192698
H8    H     H_    0.324210 0.283301 0.125079 0.239645
C21   C     C_R   0.338070 0.871847 0.285675 0.145300
C22   C     C_R   0.389040 0.842127 0.156654 -0.047567
C23   C     C_R   0.294109 0.774543 0.069126 -0.179831
C24   C     C_R   0.148918 0.737349 0.110190 -0.124674
C25   C     C_R   0.097541 0.767616 0.237985 -0.124149
C26   C     C_R   0.191783 0.834566 0.325727 -0.163834
H9    H     H_    0.502547 0.868060 0.125687 0.147409
H10   H     H_    0.333441 0.749314 0.970338 0.120942
H11   H     H_    0.076066 0.683929 0.044286 0.144894
H12   H     H_    0.985318 0.738026 0.269519 0.131867
H13   H     H_    0.151710 0.856066 0.425692 0.119518
C27   C     C_R   0.246179 0.086916 0.751221 0.053011
C28   C     C_R   0.158654 0.044467 0.862515 -0.141784
C29   C     C_R   0.004758 0.058749 0.866452 -0.140329
C30   C     C_R   0.934992 0.115682 0.759474 -0.106728
C31   C     C_R   0.018958 0.160460 0.649766 -0.153494
C32   C     C_R   0.172983 0.146412 0.645201 -0.152945
H14   H     H_    0.208878 0.997409 0.945671 0.188360
H15   H     H_    0.939197 0.023568 0.951498 0.156909
H16   H     H_    0.815622 0.123235 0.760261 0.195595
H17   H     H_    0.964203 0.204905 0.566981 0.139362
H18   H     H_    0.230045 0.181660 0.557212 0.120254
N3    N     N_R   0.496519 0.120880 0.862986 0.184192
O9    O     O_R   0.589307 0.215825 0.842267 -0.415875
O10   O     O_R   0.471446 0.084141 0.986336 -0.474923
C33   C     C_R   0.758003 0.597384 0.862847 0.151082
C34   C     C_R   0.897173 0.543892 0.865809 -0.162708
C35   C     C_R   0.020930 0.605109 0.802975 -0.168286
C36   C     C_R   0.006786 0.718451 0.737447 -0.115567
C37   C     C_R   0.869588 0.772933 0.737340 -0.154450
C38   C     C_R   0.747502 0.713411 0.802344 -0.107990
H19   H     H_    0.909332 0.455841 0.916000 0.141405
H20   H     H_    0.128748 0.566626 0.805926 0.165032
H21   H     H_    0.101715 0.763678 0.686606 0.124047
H22   H     H_    0.857623 0.860986 0.687279 0.144934
H23   H     H_    0.643722 0.756240 0.805404 0.136947

loop_
_geom_bond_atom_site_label_1
_geom_bond_atom_site_label_2
_geom_bond_distance
_ccdc_geom_bond_type
C24   H11   1.074117 S    
C30   C31   1.391534 A    
N3    O10   1.301042 A    
C21   C22   1.402231 A    
C19   C20   1.517098 S    
C13   H3    1.102248 S    
C32   H18   1.068822 S    
C28   C29   1.395637 A    
C24   C25   1.393837 A    
Zn1   O7    1.958584 S    
C7    C12   1.375041 A    
Zn2   N1    2.026721 S    
C15   N1    1.361586 A    
C19   H5    1.106139 S    
C13   H2    1.110376 S    
C8    C9    1.400999 A    
O4    C2    1.283248 A    
O7    C4    1.285846 A    
C5    C6    1.170741 T    
C31   C32   1.396537 A    
C1    C8    1.426966 S    
C18   C19   1.491196 S    
C14   N3    1.474006 S    
O5    C3    1.289555 A    
C2    C5    1.374764 S    
C9    H1    1.084263 S    
C35   C36   1.395621 A    
C21   C26   1.405509 A    
C37   C38   1.393393 A    
C23   H10   1.081538 S    
C33   C34   1.401749 A    
C15   C18   1.407211 A    
C30   H16   1.076688 S    
Zn1   N2    2.026075 S    
O3    Zn1   1.962239 S    
N2    C18   1.368206 A    
C29   H15   1.082520 S    
C11   C12   1.397473 A    
C34   C35   1.402848 A    
C20   H8    1.111697 S    
C19   H6    1.091436 S    
C13   C14   1.516055 S    
O3    C2    1.287347 A    
C35   H20   1.071861 S    
C25   C26   1.393277 A    
C26   H13   1.084201 S    
O1    C1    1.291722 A    
C23   C24   1.399153 A    
N1    C16   1.361172 A    
C33   C38   1.395005 A    
Zn2   O8    1.962238 S    
C7    C8    1.392220 A    
C36   H21   1.080092 S    
C10   C21   1.474014 S    
O8    C4    1.284844 A    
C4    C6    1.375011 S    
C22   C23   1.398886 A    
C38   H23   1.060311 S    
C34   H19   1.082459 S    
C27   C28   1.412944 A    
C17   C33   1.473223 S    
Zn1   O5    2.013023 S    
C29   C30   1.392457 A    
C9    C10   1.386073 A    
O1    Zn1   2.015841 S    
C20   H7    1.111650 S    
O2    Zn2   2.013025 S    
O6    C3    1.296434 A    
O4    Zn2   1.958583 S    
C28   H14   1.080268 S    
C7    C14   1.520808 S    
C17   N2    1.387664 A    
O2    C1    1.291108 A    
C14   C27   1.539179 S    
C16   C17   1.422176 A    
C16   H4    1.082550 S    
C25   H12   1.083052 S    
C3    C11   1.434616 S    
C22   H9    1.083092 S    
C36   C37   1.390278 A    
C27   C32   1.413135 A    
C12   C13   1.498185 S    
N3    O9    1.300118 A    
C15   C20   1.485376 S    
Zn2   O6    2.015841 S    
C37   H22   1.081621 S    
C31   H17   1.082784 S    
C10   C11   1.410442 A    
