data_mof_unit_19002.cif
_audit_creation_date              2012-10-26T18:52:10-0400
_audit_creation_method            fapswitch 2.2
_symmetry_space_group_name_H-M    P1
_symmetry_Int_Tables_number       1
_space_group_crystal_system       triclinic
_cell_length_a                    13.877349
_cell_length_b                    14.726146
_cell_length_c                    14.708095
_cell_angle_alpha                 114.775317
_cell_angle_beta                  105.968421
_cell_angle_gamma                 72.41664
_cell_volume                      2562.99988308

loop_
_atom_site_label
_atom_site_type_symbol
_atom_type_description
_atom_site_fract_x
_atom_site_fract_y
_atom_site_fract_z
_atom_type_partial_charge
C1    C     C_R   0.517840 0.118262 0.687983 0.579533
C2    C     C_R   0.493045 0.509995 0.875579 -0.094165
C3    C     C_R   0.518462 0.386740 0.096972 -0.137271
C4    C     C_R   0.491418 0.612810 0.904110 -0.143637
C5    C     C_R   0.333466 0.294152 0.324058 0.244386
C6    C     C_R   0.658945 0.710709 0.681836 0.251730
C7    C     C_R   0.359502 0.211648 0.356130 0.532567
C8    C     C_R   0.637645 0.790151 0.646213 0.534180
C9    C     C_R   0.484674 0.287165 0.491437 -0.035329
C10   C     C_R   0.515910 0.712416 0.507993 -0.036907
C11   C     C_R   0.462115 0.373825 0.463424 -0.056898
C12   C     C_R   0.482794 0.881682 0.312012 0.577528
C13   C     C_R   0.537387 0.626382 0.536794 -0.057444
C14   C     C_R   0.386814 0.374307 0.376015 -0.017550
C15   C     C_R   0.610230 0.627452 0.626108 -0.016722
C16   C     C_R   0.686959 0.986869 0.503917 0.547841
C17   C     C_R   0.313037 0.013110 0.496046 0.548595
C18   C     C_R   0.512065 0.458710 0.517882 0.042797
C19   C     C_R   0.488090 0.541035 0.481783 0.042840
C20   C     C_R   0.415757 0.535165 0.391897 -0.148867
C21   C     C_R   0.584260 0.464568 0.607819 -0.148572
C22   C     C_R   0.365816 0.454285 0.341038 -0.120691
C23   C     C_R   0.518093 0.358827 0.921713 0.046830
C24   C     C_R   0.632446 0.546571 0.660040 -0.117026
C25   C     C_1   0.207640 0.020588 0.493683 0.007878
C26   C     C_1   0.792341 0.979321 0.506144 0.010467
C27   C     C_2   0.013081 0.034069 0.489485 -0.116425
C28   C     C_2   0.986872 0.965721 0.510110 -0.115093
C29   C     C_1   0.881176 0.972681 0.508085 -0.033144
C30   C     C_1   0.118789 0.027169 0.491619 -0.035406
C31   C     C_R   0.524442 0.185237 0.795508 0.032639
C32   C     C_R   0.478589 0.814567 0.204625 0.030728
C33   C     C_R   0.516161 0.218187 0.968712 -0.144051
C34   C     C_R   0.489809 0.640501 0.078755 0.047328
C35   C     C_R   0.490241 0.781953 0.032384 -0.152290
C36   C     C_R   0.516630 0.151193 0.868322 -0.177268
C37   C     C_R   0.487277 0.849049 0.132472 -0.176608
C38   C     C_R   0.533244 0.286301 0.824133 0.345890
C39   C     C_R   0.472044 0.712782 0.175693 0.346853
C40   C     C_3   0.162804 0.334292 0.266732 -0.002714
C41   C     C_3   0.082263 0.338257 0.173661 -0.351681
C42   C     C_3   0.677310 0.770907 0.853649 -0.005852
C43   C     C_3   0.748896 0.761827 0.949848 -0.354372
C44   C     C_R   0.516331 0.321509 0.995820 0.003027
C45   C     C_R   0.491893 0.678165 0.005082 0.002102
C46   C     C_R   0.506154 0.466300 0.948663 0.036146
C47   C     C_R   0.503152 0.532937 0.051899 0.035748
C48   C     C_R   0.517190 0.489383 0.125243 -0.095457
Cu1   Cu    Cu3+1 0.526370 0.916390 0.524860 1.047412
Cu2   Cu    Cu3+1 0.473630 0.083610 0.475140 1.048287
F1    F     F_    0.437855 0.688878 0.239244 -0.678412
F2    F     F_    0.566902 0.308938 0.759349 -0.680819
F3    F     F_    0.687224 0.868460 0.697669 -0.594810
F4    F     F_    0.310827 0.132712 0.304123 -0.597300
H1    H     H_    0.044542 0.904332 0.528619 0.142145
H2    H     H_    0.493108 0.810828 0.976671 0.114280
H3    H     H_    0.529737 0.532111 0.205813 0.193670
H4    H     H_    0.481227 0.467532 0.794991 0.194963
H5    H     H_    0.310136 0.454710 0.273056 0.165748
H6    H     H_    0.687303 0.546559 0.728601 0.166537
H7    H     H_    0.458367 0.720241 0.444177 0.186380
H8    H     H_    0.543873 0.278244 0.553812 0.186048
H9    H     H_    0.158278 0.413763 0.324159 0.115792
H10   H     H_    0.144490 0.285882 0.298335 0.174823
H11   H     H_    0.083693 0.259906 0.115324 0.183078
H12   H     H_    0.955414 0.095465 0.470986 0.140600
H13   H     H_    0.004904 0.370878 0.195341 0.103364
H14   H     H_    0.097765 0.387141 0.141070 0.159925
H15   H     H_    0.608392 0.741902 0.844509 0.097076
H16   H     H_    0.653356 0.853256 0.863216 0.169122
H17   H     H_    0.818162 0.791301 0.962442 0.181799
H18   H     H_    0.708906 0.807136 0.016179 0.097955
H19   H     H_    0.772572 0.680429 0.942979 0.160955
H20   H     H_    0.395390 0.592335 0.358411 0.150059
H21   H     H_    0.604898 0.407156 0.641035 0.150218
H22   H     H_    0.524001 0.357668 0.155284 0.125267
H23   H     H_    0.486115 0.642009 0.845977 0.111049
H24   H     H_    0.491158 0.927810 0.153239 0.156187
H25   H     H_    0.511378 0.072875 0.847791 0.145217
H26   H     H_    0.513391 0.189775 0.024851 0.133167
N1    N     N_R   0.433980 0.209250 0.437830 -0.266064
N2    N     N_R   0.566020 0.790750 0.562170 -0.266905
O1    O     O_R   0.534760 0.019630 0.662610 -0.468094
O2    O     O_3   0.729176 0.713626 0.769904 -0.536351
O3    O     O_R   0.465240 0.980370 0.337390 -0.462283
O4    O     O_R   0.490220 0.160840 0.620610 -0.463020
O5    O     O_R   0.509780 0.839160 0.379390 -0.463430
O6    O     O_R   0.663260 0.919400 0.523940 -0.447003
O7    O     O_R   0.336740 0.080600 0.476060 -0.452901
O8    O     O_R   0.618720 0.060610 0.481950 -0.516542
O9    O     O_R   0.381280 0.939390 0.518050 -0.517053
O10   O     O_3   0.260610 0.292693 0.237952 -0.546327

loop_
_geom_bond_atom_site_label_1
_geom_bond_atom_site_label_2
_ccdc_geom_bond_type
C43   H19   S    
C39   F1    S    
C11   C18   A    
C16   O8    A    
C43   H18   S    
C18   C21   A    
Cu1   O5    S    
C19   C20   A    
C17   O9    A    
C42   H16   S    
C48   H3    S    
C41   H13   S    
C2    C46   A    
C40   H9    S    
C12   O3    A    
C8    N2    A    
C28   C29   S    
C35   C37   A    
C11   C14   A    
C38   F2    S    
C3    C48   A    
C1    C31   S    
C33   C36   A    
C18   C19   A    
C32   C39   A    
Cu2   O3    S    
C6    C15   A    
Cu2   O8    S    
C10   C13   A    
C23   C46   A    
C12   C32   S    
C27   C30   S    
Cu1   O6    S    
Cu1   O9    S    
C28   H1    S    
C41   H14   S    
C4    C45   A    
C16   C26   S    
C3    C44   A    
C6    O2    S    
C13   C19   A    
C20   H20   S    
C34   C39   A    
C42   O2    S    
C22   H5    S    
C5    C7    A    
C41   H11   S    
C10   N2    A    
C42   H15   S    
C23   C44   A    
C9    H8    S    
Cu1   N2    S    
C2    C4    A    
Cu2   O7    S    
C47   C48   A    
C24   H6    S    
C17   O7    A    
C34   C45   A    
C32   C37   A    
C40   O10   S    
C3    H22   S    
C9    C11   A    
C5    C14   A    
C15   C24   A    
C7    N1    A    
C20   C22   A    
C13   C15   A    
C10   H7    S    
C42   C43   S    
C35   C45   A    
C25   C30   T    
C46   C47   A    
C40   C41   S    
C43   H17   S    
C12   O5    A    
C35   H2    S    
C33   C44   A    
C36   H25   S    
C8    F3    S    
C6    C8    A    
C2    H4    S    
C33   H26   S    
C1    O1    A    
C23   C38   A    
C37   H24   S    
C21   H21   S    
C40   H10   S    
C31   C38   A    
C17   C25   S    
Cu1   O1    S    
C4    H23   S    
C27   H12   S    
C14   C22   A    
C5    O10   S    
Cu2   O4    S    
C1    O4    A    
C26   C29   T    
Cu1   Cu2   S    
C21   C24   A    
C27   C28   D    
C16   O6    A    
C31   C36   A    
C34   C47   A    
C7    F4    S    
Cu2   N1    S    
C9    N1    A    
