data_mof_unit_65395.cif
_audit_creation_date              2013-03-05T16:52:07-0500
_audit_creation_method            fapswitch 2.2
_symmetry_space_group_name_H-M    P1
_symmetry_Int_Tables_number       1
_space_group_crystal_system       triclinic
_cell_length_a                    15.864655
_cell_length_b                    15.060604
_cell_length_c                    23.475201
_cell_angle_alpha                 89.999625
_cell_angle_beta                  89.997399
_cell_angle_gamma                 90.006846
_cell_volume                      5608.95993105

loop_
_atom_site_label
_atom_site_type_symbol
_atom_site_description
_atom_site_fract_x
_atom_site_fract_y
_atom_site_fract_z
_atom_type_partial_charge
O1    O     O_R   0.378020 0.573650 0.500020 -0.595232
O2    O     O_R   0.621980 0.426350 0.499980 -0.595283
O3    O     O_R   0.621980 0.573650 0.499980 -0.594899
O4    O     O_R   0.378020 0.426350 0.500020 -0.594946
C1    C     C_R   0.338918 0.499994 0.500181 0.897994
C2    C     C_R   0.661082 0.500006 0.499819 0.897992
O5    O     O_R   0.499980 0.573680 0.416160 -0.614769
O6    O     O_R   0.500020 0.426320 0.583840 -0.616300
O7    O     O_R   0.500020 0.573680 0.583840 -0.614462
O8    O     O_R   0.499980 0.426320 0.416160 -0.616041
C3    C     C_R   0.500156 0.499964 0.389039 0.930331
C4    C     C_R   0.499841 0.499964 0.610960 0.930303
Zn1   Zn    Zn3+2 0.500000 0.598370 0.500000 1.047240
Zn2   Zn    Zn3+2 0.500000 0.401630 0.500000 1.046138
C5    C     C_R   0.573537 0.493899 0.880269 0.662817
C6    C     C_R   0.426353 0.494216 0.119725 0.662900
N1    N     N_R   0.498109 0.496509 0.852519 -0.334118
N2    N     N_R   0.501791 0.496513 0.147475 -0.334107
C7    C     C_R   0.422833 0.496586 0.880731 0.662557
C8    C     C_R   0.577066 0.496274 0.119262 0.662501
C9    C     C_R   0.421004 0.490717 0.940536 -0.130449
C10   C     C_R   0.578871 0.490390 0.059458 -0.130430
C11   C     C_R   0.499067 0.490817 0.970009 -0.025463
C12   C     C_R   0.500809 0.490816 0.029985 -0.025460
C13   C     C_R   0.575601 0.491735 0.939600 -0.058620
C14   C     C_R   0.424279 0.492058 0.060395 -0.058635
C15   C     C_R   0.344692 0.487128 0.971956 0.312419
C16   C     C_R   0.655167 0.486475 0.028039 0.312399
C17   C     C_R   0.347344 0.489779 0.031279 -0.147877
C18   C     C_R   0.652526 0.489133 0.968715 -0.147875
O9    O     O_2   0.646117 0.493366 0.850225 -0.498113
O10   O     O_2   0.353771 0.493987 0.149771 -0.498087
O11   O     O_2   0.350878 0.504587 0.850591 -0.447529
O12   O     O_2   0.649054 0.503980 0.149401 -0.447598
H1    H     H_    0.288427 0.487842 0.054614 0.231423
H2    H     H_    0.711435 0.486946 0.945381 0.231426
C19   C     C_R   0.517120 0.418302 0.238411 0.320536
C20   C     C_R   0.482496 0.418362 0.761580 0.320574
C21   C     C_R   0.516907 0.420429 0.297729 -0.231346
C22   C     C_R   0.482751 0.420490 0.702261 -0.231835
H3    H     H_    0.528426 0.359699 0.321194 0.213586
H4    H     H_    0.471006 0.359809 0.678791 0.213481
C23   C     C_R   0.500963 0.499570 0.326926 -0.155756
C24   C     C_R   0.499009 0.499569 0.673070 -0.155672
C25   C     C_R   0.485911 0.578022 0.296762 -0.235591
C26   C     C_R   0.514344 0.577960 0.703236 -0.235167
H5    H     H_    0.474077 0.639299 0.319557 0.212322
H6    H     H_    0.526428 0.639189 0.680443 0.212343
C27   C     C_R   0.486721 0.578481 0.237339 0.328641
C28   C     C_R   0.513516 0.578417 0.762658 0.328655
C29   C     C_R   0.501995 0.497891 0.208161 0.058578
C30   C     C_R   0.497915 0.497889 0.791834 0.058576
C31   C     C_R   0.956039 0.581661 0.498727 0.203112
C32   C     C_R   0.043962 0.418336 0.501302 0.203166
C33   C     C_R   0.043952 0.581521 0.503510 0.203079
C34   C     C_R   0.956049 0.418476 0.496513 0.203095
C35   C     C_R   0.913113 0.500135 0.495343 -0.191435
C36   C     C_R   0.086887 0.499863 0.504681 -0.191411
C37   C     C_1   0.823995 0.500077 0.496640 0.174912
C38   C     C_1   0.176005 0.499920 0.503375 0.174930
C39   C     C_1   0.250719 0.499969 0.501797 -0.071635
C40   C     C_1   0.749281 0.500030 0.498211 -0.071643
H7    H     H_    0.426565 0.081919 0.422870 0.167649
H8    H     H_    0.573436 0.918079 0.577129 0.168971
H9    H     H_    0.573435 0.081937 0.577130 0.167475
H10   H     H_    0.426565 0.918062 0.422870 0.168827
C41   C     C_R   0.458828 0.953102 0.456755 -0.102269
C42   C     C_R   0.541172 0.046897 0.543244 -0.102077
C43   C     C_R   0.541172 0.953112 0.543244 -0.101876
C44   C     C_R   0.458828 0.046887 0.456755 -0.101644
C45   C     C_R   0.500000 0.905044 0.500000 0.043786
C46   C     C_R   0.500000 0.094956 0.500000 0.044922
C47   C     C_1   0.500000 0.807192 0.500000 0.132799
C48   C     C_1   0.500000 0.192808 0.500000 0.132417
N3    N     N_1   0.500000 0.270550 0.500000 -0.073758
N4    N     N_1   0.500000 0.729450 0.500000 -0.073498
N5    N     N_R   0.264126 0.476765 0.945051 0.255670
O13   O     O_R   0.248674 0.405480 0.915509 -0.245419
O14   O     O_R   0.201514 0.527274 0.960258 -0.277500
N6    N     N_R   0.735690 0.475769 0.054944 0.255649
O15   O     O_R   0.750849 0.404423 0.084490 -0.245326
O16   O     O_R   0.798510 0.526006 0.039733 -0.277537
N7    N     N_R   0.532730 0.335276 0.209675 0.239078
O17   O     O_R   0.498214 0.317940 0.160650 -0.334954
O18   O     O_R   0.575852 0.273091 0.234835 -0.299256
N8    N     N_R   0.466549 0.335398 0.790312 0.239046
O19   O     O_R   0.500959 0.317926 0.839350 -0.335010
O20   O     O_R   0.423208 0.273385 0.765138 -0.299533
N9    N     N_R   0.471853 0.660679 0.207454 0.239650
O21   O     O_R   0.505157 0.675305 0.157685 -0.330344
O22   O     O_R   0.430410 0.724664 0.232042 -0.311814
N10   N     N_R   0.528705 0.660546 0.792549 0.239644
O23   O     O_R   0.495391 0.675333 0.842293 -0.330279
O24   O     O_R   0.570477 0.724331 0.767985 -0.311488
N11   N     N_R   0.089725 0.664014 0.504708 0.250245
O25   O     O_R   0.147360 0.677912 0.543129 -0.323081
O26   O     O_R   0.074126 0.725433 0.467172 -0.267988
N12   N     N_R   0.910275 0.335983 0.495306 0.250159
O27   O     O_R   0.852650 0.322090 0.456878 -0.321748
O28   O     O_R   0.925863 0.274560 0.532842 -0.268416
N13   N     N_R   0.910255 0.664141 0.499765 0.250179
O29   O     O_R   0.852626 0.680541 0.461750 -0.323418
O30   O     O_R   0.925839 0.723035 0.538936 -0.267796
N14   N     N_R   0.089746 0.335856 0.500274 0.250076
O31   O     O_R   0.147371 0.319466 0.538293 -0.322140
O32   O     O_R   0.074167 0.276954 0.461107 -0.268319

loop_
_geom_bond_atom_site_label_1
_geom_bond_atom_site_label_2
_geom_bond_distance
_ccdc_geom_bond_type
N13   O29   1.301310 A    
C15   C17   1.393836 A    
N11   O25   1.301308 A    
C34   N12   1.439259 S    
O3    C2    1.270881 A    
N14   O32   1.301298 A    
C21   H3    1.083255 S    
N5    O13   1.301387 A    
O5    C3    1.279820 A    
C20   N8    1.442231 S    
O1    C1    1.270917 A    
C32   N14   1.439259 S    
C7    C9    1.407018 A    
C12   C14   1.408538 A    
C19   C29   1.413755 A    
N8    O20   1.301607 A    
C35   C37   1.414155 S    
C20   C30   1.413769 A    
C36   C38   1.414156 S    
C34   C35   1.406203 A    
C25   H5    1.083205 S    
C43   C45   1.407573 A    
O7    Zn1   2.002977 S    
C31   N13   1.439259 S    
C42   C43   1.412465 A    
C27   C29   1.414609 A    
C28   C30   1.414603 A    
C11   C12   1.408205 A    
H7    C44   1.083141 S    
C3    C23   1.458176 S    
N9    O22   1.301612 A    
C22   C24   1.398016 A    
C41   C45   1.407569 A    
O3    Zn1   1.970700 S    
O6    C4    1.278861 A    
C8    O12   1.348475 S    
C31   C33   1.399226 A    
H10   C41   1.083149 S    
C9    C15   1.418641 A    
N13   O30   1.301301 A    
C10   C16   1.418636 A    
O2    C2    1.270914 A    
O2    Zn2   1.970612 S    
N1    C30   1.424759 S    
N14   O31   1.301311 A    
C24   C26   1.398033 A    
N2    C29   1.424759 S    
C26   H6    1.083215 S    
N5    O14   1.301134 A    
C6    C14   1.393569 A    
C32   C34   1.399232 A    
C48   N3    1.170837 T    
C33   N11   1.439259 S    
C46   C48   1.473721 S    
O8    Zn2   2.002977 S    
C45   C47   1.473715 S    
C31   C35   1.406214 A    
N8    O19   1.300978 A    
O4    C1    1.270880 A    
C21   C23   1.398018 A    
C38   C39   1.185894 T    
N7    O17   1.300972 A    
Zn1   N4    1.974145 S    
C25   C27   1.395036 A    
C42   C46   1.407570 A    
H9    C42   1.083144 S    
N10   O24   1.301647 A    
C1    C39   1.399758 S    
C6    N2    1.363073 A    
H8    C43   1.083148 S    
C23   C25   1.398045 A    
C28   N10   1.442346 S    
N7    O18   1.301599 A    
C8    C10   1.407007 A    
N12   O28   1.301300 A    
C9    C11   1.418638 A    
C7    O11   1.348476 S    
C47   N4    1.170835 T    
C10   C12   1.418637 A    
O1    Zn1   1.970614 S    
C32   C36   1.406214 A    
C13   C18   1.399335 A    
C5    N1    1.363068 A    
C17   H1    1.083762 S    
C37   C40   1.185893 T    
O6    Zn2   2.002982 S    
C27   N9    1.442373 S    
N6    O15   1.301370 A    
C15   N5    1.434214 S    
N11   O26   1.301301 A    
C5    O9    1.350304 S    
C6    O10   1.350300 S    
C26   C28   1.395017 A    
C18   H2    1.083759 S    
C41   C44   1.412465 A    
Zn2   N3    1.974145 S    
C2    C40   1.399758 S    
C16   C18   1.393831 A    
C19   C21   1.392884 A    
C20   C22   1.392893 A    
C22   H4    1.083271 S    
N10   O23   1.300985 A    
N1    C7    1.365545 A    
N6    O16   1.301144 A    
N2    C8    1.365548 A    
C11   C13   1.408535 A    
O4    Zn2   1.970701 S    
C16   N6    1.434220 S    
O7    C4    1.279805 A    
C5    C13   1.393565 A    
O8    C3    1.278873 A    
O5    Zn1   2.002982 S    
C14   C17   1.399338 A    
C4    C24   1.458121 S    
N12   O27   1.301311 A    
C33   C36   1.406202 A    
C19   N7    1.442228 S    
C44   C46   1.407573 A    
N9    O21   1.300991 A    
