data_mof_unit_42413.cif
_audit_creation_date              2012-12-11T15:47:00-0500
_audit_creation_method            fapswitch 2.2
_symmetry_space_group_name_H-M    P1
_symmetry_Int_Tables_number       1
_space_group_crystal_system       triclinic
_cell_length_a                    11.549958
_cell_length_b                    11.531102
_cell_length_c                    19.563505
_cell_angle_alpha                 90.41146
_cell_angle_beta                  90.022505
_cell_angle_gamma                 59.919795
_cell_volume                      2254.5650563

loop_
_atom_site_label
_atom_site_type_symbol
_atom_type_description
_atom_site_fract_x
_atom_site_fract_y
_atom_site_fract_z
_atom_type_partial_charge
C1    C     C_R   0.640398 0.117305 0.599301 0.546290
C2    C     C_1   0.652903 0.149606 0.668675 0.004022
C3    C     C_R   0.659451 0.683168 0.188867 0.021241
C4    C     C_R   0.612425 0.746039 0.598665 0.545858
C5    C     C_R   0.534011 0.740707 0.220283 0.025100
C6    C     C_R   0.525563 0.749530 0.289896 0.046263
C7    C     C_R   0.761147 0.670890 0.299248 -0.176710
C8    C     C_R   0.771314 0.660882 0.228207 -0.166277
C9    C     C_3   0.421298 0.711105 0.216208 -0.271042
C10   C     C_3   0.416156 0.716847 0.293403 -0.268958
C11   C     C_R   0.638879 0.705921 0.330638 0.022739
C12   C     C_1   0.641168 0.703939 0.668030 0.004428
C13   C     C_R   0.117212 0.209692 0.197379 0.025679
C14   C     C_R   0.125761 0.307332 0.235182 0.014682
C15   C     C_R   0.153296 0.290745 0.303480 0.008444
C16   C     C_R   0.241033 0.145261 0.598222 0.546214
C17   C     C_R   0.140354 0.088433 0.302860 -0.160028
C18   C     C_R   0.114127 0.104569 0.232540 -0.153519
C19   C     C_3   0.207016 0.373134 0.222904 -0.136493
C20   C     C_3   0.241032 0.352209 0.298352 -0.258718
C21   C     C_R   0.171874 0.175849 0.337429 0.020061
C22   C     C_R   0.693368 0.199493 0.201395 0.038401
C23   C     C_1   0.126675 0.198845 0.859278 0.005074
C24   C     C_R   0.798276 0.092628 0.235715 0.029142
C25   C     C_R   0.791717 0.073959 0.304243 0.021607
C26   C     C_R   0.583054 0.282829 0.311143 -0.171451
C27   C     C_R   0.590984 0.301834 0.240863 -0.147348
C28   C     C_R   0.646509 0.114196 0.403748 0.544891
C29   C     C_3   0.869804 0.946080 0.219833 -0.270353
C30   C     C_3   0.863040 0.924705 0.295599 -0.269223
C31   C     C_R   0.677451 0.161098 0.341530 0.016618
C32   C     C_R   0.081766 0.231166 0.928572 0.552201
C33   C     C_R   0.683959 0.604373 0.929479 0.545823
C34   C     C_1   0.171583 0.170217 0.727735 -0.030295
C35   C     C_R   0.708454 0.206702 0.930096 0.553894
C36   C     C_R   0.078405 0.238011 0.126600 0.557205
C37   C     C_R   0.682137 0.614226 0.124489 0.549706
C38   C     C_R   0.712499 0.214349 0.129256 0.569927
C39   C     C_R   0.615929 0.740474 0.401875 0.543555
C40   C     C_R   0.242353 0.141979 0.402031 0.547494
C41   C     C_1   0.670445 0.646417 0.860104 0.005710
C42   C     C_1   0.654725 0.683691 0.728445 -0.030786
C43   C     C_1   0.663460 0.666641 0.799682 -0.030395
C44   C     C_1   0.322309 0.293956 0.177343 0.201672
C45   C     C_1   0.150162 0.182302 0.798946 -0.030162
C46   C     C_1   0.195388 0.160806 0.667421 0.004212
C47   C     C_1   0.678684 0.191333 0.860745 0.005231
C48   C     C_1   0.658525 0.167176 0.729042 -0.030288
C49   C     C_1   0.665737 0.180924 0.800330 -0.030053
Cr1   Cr    Cr6+3 0.404720 0.198220 0.499960 1.022460
Cr2   Cr    Cr6+3 0.698290 0.897110 0.500380 1.025386
Cr3   Cr    Cr6+3 0.396970 0.904720 0.499610 1.025884
Cr4   Cr    Cr6+3 0.926290 0.152010 0.028150 1.027386
Cr5   Cr    Cr6+3 0.921440 0.451830 0.027490 1.032177
Cr6   Cr    Cr6+3 0.626370 0.446880 0.028730 1.036445
H1    H     H_    0.848785 0.647660 0.329388 0.125105
H2    H     H_    0.869443 0.621720 0.205314 0.138873
H3    H     H_    0.449635 0.610044 0.196567 0.160128
H4    H     H_    0.330580 0.794262 0.192232 0.132863
H5    H     H_    0.321896 0.800421 0.314149 0.142515
H6    H     H_    0.449072 0.617855 0.317259 0.133073
H7    H     H_    0.143326 0.004707 0.328934 0.116575
H8    H     H_    0.095133 0.033453 0.205704 0.129877
H9    H     H_    0.145194 0.480107 0.208255 0.110660
H10   H     H_    0.347403 0.278152 0.309141 0.163600
H11   H     H_    0.199796 0.447804 0.327674 0.120593
H12   H     H_    0.497415 0.357253 0.339820 0.119604
H13   H     H_    0.513760 0.391726 0.217122 0.127182
H14   H     H_    0.973463 0.908614 0.201069 0.131902
H15   H     H_    0.808826 0.915872 0.188419 0.151163
H16   H     H_    0.798294 0.882060 0.307676 0.168000
H17   H     H_    0.962748 0.874754 0.320609 0.129326
N1    N     N_1   0.411908 0.231308 0.141124 -0.302017
O1    O     O_R   0.267750 0.231960 0.575440 -0.504857
O2    O     O_R   0.596230 0.579400 0.952760 -0.504621
O3    O     O_R   0.639160 0.321170 0.958690 -0.488580
O4    O     O_R   0.527290 0.186640 0.570530 -0.494423
O5    O     O_R   0.821370 0.124220 0.104400 -0.523197
O6    O     O_R   0.037020 0.167050 0.097880 -0.513169
O7    O     O_R   0.056310 0.349620 0.102920 -0.510972
O8    O     O_R   0.797790 0.564880 0.097980 -0.511439
O9    O     O_R   0.596000 0.584270 0.104310 -0.525951
O10   O     O_R   0.638950 0.325690 0.099180 -0.494983
O11   O     O_3   0.824700 0.350240 0.028120 -0.261990
O12   O     O_R   0.685950 0.784660 0.430010 -0.508086
O13   O     O_R   0.728110 0.003450 0.576380 -0.504691
O14   O     O_R   0.682980 0.789190 0.570500 -0.493602
O15   O     O_R   0.499300 0.771880 0.575540 -0.504920
O16   O     O_R   0.285350 0.030870 0.569740 -0.494115
O17   O     O_R   0.270960 0.227070 0.423890 -0.521873
O18   O     O_R   0.530270 0.182120 0.430040 -0.510833
O19   O     O_R   0.731320 0.998570 0.424830 -0.518810
O20   O     O_R   0.502510 0.767000 0.423980 -0.518085
O21   O     O_R   0.288320 0.026340 0.429250 -0.504455
O22   O     O_3   0.499990 0.000020 0.499980 -0.252797
O23   O     O_R   0.821590 0.119350 0.952850 -0.504415
O24   O     O_R   0.037230 0.162540 0.957390 -0.494210
O25   O     O_R   0.056530 0.344750 0.951370 -0.500207
O26   O     O_R   0.798000 0.560370 0.957490 -0.494764

loop_
_geom_bond_atom_site_label_1
_geom_bond_atom_site_label_2
_ccdc_geom_bond_type
C25   C31   A    
C23   C45   T    
C38   O10   A    
C1    O4    A    
C19   C20   S    
C35   C47   S    
Cr2   O12   S    
Cr5   O11   S    
C30   H16   S    
C7    C8    A    
C47   C49   T    
C4    O14   A    
C35   O23   A    
C7    C11   A    
C26   C27   A    
C13   C18   A    
Cr4   O11   S    
C16   O1    A    
C26   H12   S    
C20   H11   S    
Cr4   O6    S    
C1    C2    S    
Cr1   O1    S    
C5    C6    A    
C8    H2    S    
C18   H8    S    
C22   C38   S    
C25   C30   S    
C32   O24   A    
Cr3   O22   S    
C9    H3    S    
C24   C29   S    
C39   O20   A    
C12   C42   T    
C27   H13   S    
C33   O2    A    
Cr3   O21   S    
C34   C46   T    
C4    C12   S    
C9    C10   S    
C29   H14   S    
Cr6   O2    S    
C16   O16   A    
C13   C14   A    
Cr4   O23   S    
C41   C43   T    
C37   O8    A    
Cr3   O16   S    
C7    H1    S    
C40   O17   A    
Cr2   O13   S    
Cr1   O17   S    
Cr5   O7    S    
C15   C20   S    
C35   O3    A    
C17   H7    S    
C20   H10   S    
Cr3   O15   S    
C24   C25   A    
C13   C36   S    
C3    C8    A    
C36   O7    A    
C16   C46   S    
C6    C11   A    
C38   O5    A    
C2    C48   T    
C17   C21   A    
C9    H4    S    
C10   H5    S    
C5    C9    S    
C29   C30   S    
Cr6   O10   S    
Cr2   O19   S    
C19   H9    S    
C17   C18   A    
Cr3   O20   S    
C28   O19   A    
C34   C45   S    
Cr6   O9    S    
C11   C39   S    
Cr6   O3    S    
C48   C49   S    
C22   C27   A    
C22   C24   A    
Cr5   O26   S    
C10   H6    S    
C42   C43   S    
C39   O12   A    
Cr2   O14   S    
Cr1   O4    S    
C19   C44   S    
C29   H15   S    
C1    O13   A    
C26   C31   A    
C14   C19   S    
C28   C31   S    
C40   O21   A    
C3    C5    A    
C36   O6    A    
C6    C10   S    
C30   H17   S    
C4    O15   A    
Cr4   O24   S    
C23   C32   S    
Cr4   O5    S    
C33   C41   S    
C21   C40   S    
C32   O25   A    
C28   O18   A    
C44   N1    T    
C37   O9    A    
Cr1   O18   S    
C15   C21   A    
C3    C37   S    
C14   C15   A    
Cr5   O25   S    
C33   O26   A    
Cr6   O11   S    
Cr1   O22   S    
Cr5   O8    S    
Cr2   O22   S    
