data_mof_unit_6483.cif
_audit_creation_date              2012-12-11T15:42:58-0500
_audit_creation_method            fapswitch 2.2
_symmetry_space_group_name_H-M    P1
_symmetry_Int_Tables_number       1
_space_group_crystal_system       triclinic
_cell_length_a                    19.042258
_cell_length_b                    10.931725
_cell_length_c                    18.799521
_cell_angle_alpha                 90.05888
_cell_angle_beta                  89.736153
_cell_angle_gamma                 90.243034
_cell_volume                      3913.3184848

loop_
_atom_site_label
_atom_site_type_symbol
_atom_type_description
_atom_site_fract_x
_atom_site_fract_y
_atom_site_fract_z
_atom_type_partial_charge
C1    C     C_R   0.730040 0.375646 0.145669 0.547068
C2    C     C_R   0.288482 0.329230 0.861306 0.565705
C3    C     C_R   0.230040 0.875645 0.145669 0.547069
C4    C     C_R   0.788482 0.829231 0.861306 0.565702
C5    C     C_R   0.528291 0.380951 0.920590 -0.096012
C6    C     C_R   0.510673 0.397383 0.067455 -0.087665
C7    C     C_R   0.028286 0.880958 0.920591 -0.096011
C8    C     C_R   0.010666 0.897381 0.067456 -0.087669
C9    C     C_R   0.033063 0.994120 0.954298 -0.129471
C10   C     C_R   0.022599 0.002699 0.027293 -0.138867
C11   C     C_R   0.533075 0.494114 0.954296 -0.129467
C12   C     C_R   0.522611 0.502697 0.027290 -0.138864
C13   C     C_R   0.778679 0.843026 0.938060 0.014888
C14   C     C_R   0.247208 0.906756 0.073222 0.018431
C15   C     C_R   0.278682 0.343023 0.938060 0.014888
C16   C     C_R   0.747210 0.406760 0.073224 0.018433
C17   C     C_R   0.714442 0.818295 0.971409 0.007709
C18   C     C_R   0.277634 0.817302 0.029290 0.039130
C19   C     C_R   0.214447 0.318280 0.971411 0.007718
C20   C     C_R   0.777636 0.317306 0.029291 0.039130
C21   C     C_R   0.704135 0.845351 0.042709 0.004355
C22   C     C_R   0.277922 0.829945 0.956161 0.007227
C23   C     C_R   0.204139 0.345336 0.042711 0.004358
C24   C     C_R   0.777925 0.329952 0.956162 0.007227
C25   C     C_R   0.825430 0.904398 0.052949 -0.157681
C26   C     C_R   0.206778 0.010427 0.968604 -0.137336
C27   C     C_R   0.325431 0.404405 0.052947 -0.157681
C28   C     C_R   0.706785 0.510438 0.968606 -0.137339
C29   C     C_R   0.835589 0.877785 0.980850 -0.157064
C30   C     C_R   0.209161 0.000996 0.041670 -0.144135
C31   C     C_R   0.335590 0.377791 0.980848 -0.157064
C32   C     C_R   0.709167 0.501004 0.041673 -0.144137
C33   C     C_3   0.642353 0.859020 0.951864 -0.268486
C34   C     C_3   0.350306 0.765926 0.028728 -0.270775
C35   C     C_3   0.142354 0.358990 0.951867 -0.268488
C36   C     C_3   0.850309 0.265935 0.028730 -0.270776
C37   C     C_3   0.631206 0.888891 0.029856 -0.261146
C38   C     C_3   0.349415 0.777224 0.948125 -0.280143
C39   C     C_3   0.131207 0.388860 0.029860 -0.261159
C40   C     C_3   0.849420 0.277239 0.948128 -0.280142
C41   C     C_R   0.757731 0.898642 0.083024 0.014691
C42   C     C_R   0.245877 0.930673 0.924907 0.023146
C43   C     C_R   0.257733 0.398640 0.083024 0.014690
C44   C     C_R   0.745880 0.430681 0.924909 0.023147
C45   C     C_R   0.531382 0.156401 0.146740 0.537912
C46   C     C_R   0.468941 0.155239 0.853037 0.530680
C47   C     C_R   0.031383 0.656400 0.146740 0.537912
C48   C     C_R   0.968942 0.655239 0.853036 0.530681
C49   C     C_R   0.505451 0.163123 0.579208 0.017258
C50   C     C_R   0.518030 0.163113 0.430499 0.019580
C51   C     C_R   0.005451 0.663123 0.579208 0.017259
C52   C     C_R   0.018030 0.663113 0.430499 0.019580
C53   C     C_R   0.518725 0.054500 0.541911 0.027844
C54   C     C_R   0.524244 0.055331 0.469307 0.041970
C55   C     C_R   0.018724 0.554500 0.541911 0.027843
C56   C     C_R   0.024244 0.555331 0.469307 0.041968
C57   C     C_R   0.516962 0.274467 0.468017 -0.164818
C58   C     C_R   0.512421 0.274462 0.542560 -0.170946
C59   C     C_R   0.016962 0.774467 0.468017 -0.164817
C60   C     C_R   0.012421 0.774462 0.542560 -0.170945
C61   C     C_3   0.480491 0.934048 0.540554 -0.268469
C62   C     C_3   0.486145 0.936974 0.460419 -0.278956
C63   C     C_3   0.980490 0.434049 0.540553 -0.268469
C64   C     C_3   0.986144 0.436975 0.460419 -0.278957
C65   C     C_R   0.749350 0.935361 0.581216 0.016612
C66   C     C_R   0.251701 0.922425 0.421451 0.014821
C67   C     C_R   0.249350 0.435361 0.581216 0.016612
C68   C     C_R   0.751700 0.422425 0.421451 0.014821
C69   C     C_R   0.798398 0.006389 0.543570 0.021177
C70   C     C_R   0.216075 0.018008 0.454862 0.017050
C71   C     C_R   0.298399 0.506388 0.543570 0.021177
C72   C     C_R   0.716074 0.518007 0.454862 0.017050
C73   C     C_R   0.794932 0.015225 0.470987 0.033632
C74   C     C_R   0.216254 0.026847 0.527675 0.046966
C75   C     C_R   0.294932 0.515224 0.470987 0.033630
C76   C     C_R   0.716253 0.526846 0.527675 0.046967
C77   C     C_R   0.685612 0.905164 0.471140 -0.152032
C78   C     C_R   0.297050 0.859284 0.536742 -0.174199
C79   C     C_R   0.185611 0.405168 0.471141 -0.152032
C80   C     C_R   0.797050 0.359284 0.536742 -0.174199
C81   C     C_R   0.688587 0.896706 0.545572 -0.154852
C82   C     C_R   0.297080 0.849416 0.462598 -0.164591
C83   C     C_R   0.188586 0.396709 0.545572 -0.154853
C84   C     C_R   0.797081 0.349417 0.462598 -0.164591
C85   C     C_3   0.876999 0.000471 0.540890 -0.269499
C86   C     C_3   0.141169 0.058711 0.450817 -0.271521
C87   C     C_3   0.376999 0.500464 0.540889 -0.269499
C88   C     C_3   0.641168 0.558709 0.450818 -0.271521
C89   C     C_R   0.742035 0.967271 0.148000 0.545266
C90   C     C_R   0.258086 0.969963 0.852495 0.540397
C91   C     C_R   0.242035 0.467271 0.148000 0.545266
C92   C     C_R   0.758087 0.469965 0.852496 0.540397
C93   C     C_3   0.872491 0.010635 0.460989 -0.279740
C94   C     C_3   0.140994 0.063529 0.531156 -0.266181
C95   C     C_3   0.372491 0.510630 0.460989 -0.279740
C96   C     C_3   0.640993 0.563526 0.531156 -0.266181
C97   C     C_R   0.742659 0.955226 0.432892 0.020171
C98   C     C_R   0.252798 0.943977 0.570037 0.022024
C99   C     C_R   0.242658 0.455227 0.432892 0.020171
C100  C     C_R   0.752798 0.443977 0.570037 0.022023
C101  C     C_R   0.729913 0.378668 0.352205 0.550622
C102  C     C_R   0.269878 0.381127 0.648563 0.556296
C103  C     C_R   0.229913 0.878668 0.352205 0.550623
C104  C     C_R   0.769878 0.881127 0.648563 0.556297
C105  C     C_R   0.534600 0.156850 0.355208 0.544514
C106  C     C_R   0.469078 0.156853 0.647238 0.547195
C107  C     C_R   0.034600 0.656850 0.355208 0.544514
C108  C     C_R   0.969078 0.656853 0.647238 0.547195
C109  C     C_R   0.739432 0.977818 0.356980 0.546545
C110  C     C_R   0.258933 0.973305 0.644757 0.546254
C111  C     C_R   0.239432 0.477820 0.356980 0.546547
C112  C     C_R   0.758933 0.473305 0.644757 0.546254
C113  C     C_R   0.496609 0.161805 0.925632 -0.001315
C114  C     C_R   0.502597 0.169096 0.074740 -0.002047
C115  C     C_R   0.996615 0.661806 0.925630 -0.001315
C116  C     C_R   0.002600 0.669094 0.074738 -0.002045
C117  C     C_R   0.511635 0.274199 0.959654 0.011662
C118  C     C_R   0.508580 0.280295 0.035034 0.030091
C119  C     C_R   0.011635 0.774202 0.959653 0.011664
C120  C     C_R   0.008579 0.780294 0.035034 0.030091
C121  C     C_R   0.488902 0.059784 0.039270 -0.169068
C122  C     C_R   0.488600 0.055495 0.966436 -0.155344
C123  C     C_R   0.988913 0.559780 0.039266 -0.169069
C124  C     C_R   0.988615 0.555492 0.966431 -0.155350
Cr1   Cr    Cr6+3 0.772010 0.169670 0.250090 1.005900
Cr2   Cr    Cr6+3 0.227990 0.169670 0.749910 1.003142
Cr3   Cr    Cr6+3 0.272010 0.669670 0.250090 1.005900
Cr4   Cr    Cr6+3 0.727990 0.669670 0.749910 1.003142
Cr5   Cr    Cr6+3 0.615000 0.323260 0.249260 1.001448
Cr6   Cr    Cr6+3 0.385000 0.323260 0.750740 0.996609
Cr7   Cr    Cr6+3 0.115000 0.823260 0.249260 1.001449
Cr8   Cr    Cr6+3 0.885000 0.823260 0.750740 0.996609
Cr9   Cr    Cr6+3 0.616710 0.010760 0.250840 1.008203
Cr10  Cr    Cr6+3 0.383290 0.010760 0.749160 1.001297
Cr11  Cr    Cr6+3 0.116710 0.510760 0.250840 1.008202
Cr12  Cr    Cr6+3 0.883290 0.510760 0.749160 1.001297
H1    H     H_    0.483452 0.974244 0.067803 0.129861
H2    H     H_    0.480131 0.967192 0.942128 0.136510
H3    H     H_    0.983469 0.474236 0.067797 0.129864
H4    H     H_    0.980155 0.467187 0.942121 0.136508
H5    H     H_    0.516490 0.360300 0.439800 0.116963
H6    H     H_    0.508083 0.360403 0.570645 0.114407
H7    H     H_    0.016491 0.860301 0.439800 0.116963
H8    H     H_    0.008083 0.860403 0.570645 0.114406
H9    H     H_    0.925556 0.441141 0.559351 0.174283
H10   H     H_    0.019647 0.363131 0.438405 0.130774
H11   H     H_    0.425557 0.941139 0.559351 0.174283
H12   H     H_    0.519649 0.863130 0.438405 0.130774
H13   H     H_    0.511431 0.859236 0.565067 0.122937
H14   H     H_    0.434776 0.948357 0.433425 0.141653
H15   H     H_    0.011429 0.359236 0.565067 0.122937
H16   H     H_    0.934774 0.448359 0.433424 0.141653
H17   H     H_    0.640342 0.869455 0.443626 0.126356
H18   H     H_    0.329834 0.799003 0.567832 0.122926
H19   H     H_    0.140340 0.369461 0.443627 0.126358
H20   H     H_    0.829834 0.299003 0.567832 0.122925
H21   H     H_    0.646409 0.852534 0.574413 0.117207
H22   H     H_    0.327659 0.777414 0.438359 0.140526
H23   H     H_    0.146407 0.352539 0.574414 0.117206
H24   H     H_    0.827659 0.277416 0.438359 0.140526
H25   H     H_    0.896276 0.910037 0.558036 0.170354
H26   H     H_    0.104854 0.988683 0.429868 0.162252
H27   H     H_    0.396274 0.410028 0.558033 0.170354
H28   H     H_    0.604854 0.488679 0.429868 0.162253
H29   H     H_    0.902357 0.080952 0.566471 0.128039
H30   H     H_    0.136223 0.150043 0.425593 0.126318
H31   H     H_    0.402360 0.580943 0.566470 0.128041
H32   H     H_    0.636221 0.650040 0.425594 0.126317
H33   H     H_    0.894788 0.097510 0.440069 0.132462
H34   H     H_    0.133461 0.156388 0.552781 0.138433
H35   H     H_    0.394790 0.597505 0.440069 0.132462
H36   H     H_    0.633458 0.656384 0.552782 0.138431
H37   H     H_    0.889716 0.926688 0.432515 0.138415
H38   H     H_    0.107409 0.992197 0.556186 0.134852
H39   H     H_    0.389714 0.426684 0.432514 0.138415
H40   H     H_    0.607409 0.492192 0.556186 0.134853
H41   H     H_    0.537985 0.377922 0.863900 0.133905
H42   H     H_    0.499331 0.410611 0.123220 0.132409
H43   H     H_    0.037980 0.877932 0.863901 0.133906
H44   H     H_    0.999324 0.910606 0.123221 0.132407
H45   H     H_    0.043967 0.075638 0.923492 0.104910
H46   H     H_    0.024022 0.091336 0.053005 0.100357
H47   H     H_    0.543983 0.575629 0.923489 0.104915
H48   H     H_    0.524038 0.591335 0.053001 0.100358
H49   H     H_    0.868857 0.941629 0.082953 0.130227
H50   H     H_    0.177743 0.086214 0.946879 0.146601
H51   H     H_    0.368858 0.441643 0.082950 0.130226
H52   H     H_    0.677752 0.586228 0.946882 0.146600
H53   H     H_    0.886535 0.893694 0.957320 0.153528
H54   H     H_    0.179786 0.066102 0.073435 0.138571
H55   H     H_    0.386536 0.393708 0.957317 0.153527
H56   H     H_    0.679794 0.566112 0.073438 0.138568
H57   H     H_    0.108870 0.282160 0.933040 0.123753
H58   H     H_    0.851418 0.169554 0.047260 0.157269
H59   H     H_    0.608865 0.782197 0.933035 0.123757
H60   H     H_    0.351414 0.669546 0.047260 0.157269
H61   H     H_    0.642576 0.941283 0.917086 0.155880
H62   H     H_    0.388993 0.827473 0.054758 0.123053
H63   H     H_    0.142571 0.441253 0.917089 0.155879
H64   H     H_    0.888994 0.327482 0.054763 0.123057
H65   H     H_    0.625957 0.988535 0.040158 0.166851
H66   H     H_    0.388050 0.843615 0.926727 0.152579
H67   H     H_    0.125951 0.488503 0.040161 0.166856
H68   H     H_    0.888053 0.343637 0.926733 0.152586
O1    O     O_R   0.787520 0.042810 0.170440 -0.529095
O2    O     O_R   0.212480 0.042810 0.829560 -0.539379
O3    O     O_R   0.287520 0.542810 0.170440 -0.529095
O4    O     O_R   0.712480 0.542810 0.829560 -0.539378
O5    O     O_R   0.556610 0.252880 0.323980 -0.509943
O6    O     O_R   0.443390 0.252880 0.676020 -0.510461
O7    O     O_R   0.056610 0.752880 0.323980 -0.509943
O8    O     O_R   0.943390 0.752880 0.676020 -0.510461
O9    O     O_R   0.545950 0.051210 0.330860 -0.519465
O10   O     O_R   0.454050 0.051210 0.669140 -0.521979
O11   O     O_R   0.045950 0.551210 0.330860 -0.519466
O12   O     O_R   0.954050 0.551210 0.669140 -0.521980
O13   O     O_R   0.681390 0.959480 0.325510 -0.509352
O14   O     O_R   0.318610 0.959480 0.674490 -0.507642
O15   O     O_R   0.181390 0.459480 0.325510 -0.509352
O16   O     O_R   0.818610 0.459480 0.674490 -0.507642
O17   O     O_3   0.667900 0.167900 0.250060 -0.242817
O18   O     O_3   0.332100 0.167900 0.749940 -0.261288
O19   O     O_3   0.167900 0.667900 0.250060 -0.242818
O20   O     O_3   0.832100 0.667900 0.749940 -0.261288
O21   O     O_R   0.765640 0.292100 0.175020 -0.500163
O22   O     O_R   0.234360 0.292100 0.824980 -0.502270
O23   O     O_R   0.265640 0.792100 0.175020 -0.500163
O24   O     O_R   0.734360 0.792100 0.824980 -0.502270
O25   O     O_R   0.670190 0.408840 0.168540 -0.521550
O26   O     O_R   0.329810 0.408840 0.831460 -0.521230
O27   O     O_R   0.170190 0.908840 0.168540 -0.521549
O28   O     O_R   0.829810 0.908840 0.831460 -0.521227
O29   O     O_R   0.556620 0.251410 0.175160 -0.509248
O30   O     O_R   0.443380 0.251410 0.824840 -0.526216
O31   O     O_R   0.056620 0.751410 0.175160 -0.509247
O32   O     O_R   0.943380 0.751410 0.824840 -0.526216
O33   O     O_R   0.545960 0.049620 0.170320 -0.526054
O34   O     O_R   0.454040 0.049620 0.829680 -0.525492
O35   O     O_R   0.045960 0.549620 0.170320 -0.526055
O36   O     O_R   0.954040 0.549620 0.829680 -0.525492
O37   O     O_R   0.681390 0.958010 0.176690 -0.498253
O38   O     O_R   0.318610 0.958010 0.823310 -0.501292
O39   O     O_R   0.181390 0.458010 0.176690 -0.498252
O40   O     O_R   0.818610 0.458010 0.823310 -0.501291
O41   O     O_R   0.787510 0.044390 0.330970 -0.521103
O42   O     O_R   0.212490 0.044390 0.669030 -0.518004
O43   O     O_R   0.287510 0.544390 0.330970 -0.521103
O44   O     O_R   0.712490 0.544390 0.669030 -0.518003
O45   O     O_R   0.765630 0.293570 0.323840 -0.510779
O46   O     O_R   0.234370 0.293570 0.676160 -0.499959
O47   O     O_R   0.265630 0.793570 0.323840 -0.510779
O48   O     O_R   0.734370 0.793570 0.676160 -0.499959
O49   O     O_R   0.670190 0.410420 0.329080 -0.525323
O50   O     O_R   0.329810 0.410420 0.670920 -0.521017
O51   O     O_R   0.170190 0.910420 0.329080 -0.525322
O52   O     O_R   0.829810 0.910420 0.670920 -0.521017
H69   H     H_    0.591224 0.829518 0.056009 0.128716
H70   H     H_    0.348348 0.687176 0.920587 0.152100
H71   H     H_    0.091230 0.329477 0.056015 0.128709
H72   H     H_    0.848358 0.187193 0.920587 0.152097

loop_
_geom_bond_atom_site_label_1
_geom_bond_atom_site_label_2
_ccdc_geom_bond_type
C87   H27   S    
C55   C56   A    
C88   C96   S    
C67   C83   A    
C93   H37   S    
C98   C110  S    
C116  C123  A    
Cr5   O25   S    
Cr2   O42   S    
C103  O51   A    
C14   C18   A    
C48   O32   A    
C35   C39   S    
C86   H30   S    
C73   C93   S    
C72   C76   A    
C29   H53   S    
Cr4   O20   S    
C84   H24   S    
C75   C95   S    
C123  C124  A    
C74   C98   A    
C9    H45   S    
C66   C70   A    
C53   C54   A    
C15   C19   A    
Cr8   O8    S    
C108  O12   A    
C93   H33   S    
C39   H71   S    
C50   C54   A    
C17   C33   S    
C64   H16   S    
C104  O48   A    
C46   O30   A    
C13   C29   A    
C37   H69   S    
C5    C11   A    
C39   H67   S    
Cr7   O19   S    
C28   H52   S    
C6    C12   A    
C82   H22   S    
C65   C69   A    
C8    H44   S    
C107  O7    A    
Cr6   O26   S    
C1    O21   A    
C22   C38   S    
C31   H55   S    
C85   H25   S    
C32   H56   S    
Cr3   O3    S    
C112  O44   A    
Cr11  O39   S    
C4    C13   S    
C34   H62   S    
Cr10  O38   S    
C36   C40   S    
C95   H39   S    
C83   H23   S    
C86   C94   S    
C81   H21   S    
Cr9   O37   S    
Cr2   O2    S    
C114  C121  A    
C85   C93   S    
C45   C114  S    
C89   O1    A    
C113  C122  A    
C40   H68   S    
C52   C107  S    
C51   C108  S    
Cr10  O18   S    
C55   C63   S    
C70   C74   A    
C50   C105  S    
Cr9   O17   S    
C56   C64   S    
C69   C73   A    
C99   C111  S    
C86   H26   S    
C77   C81   A    
C18   C22   A    
C96   H40   S    
C9    C10   A    
C67   C102  S    
C63   H15   S    
Cr3   O47   S    
C61   C62   S    
C44   C92   S    
C16   C20   A    
C77   H17   S    
C110  O42   A    
C46   O34   A    
C72   C88   S    
C109  O41   A    
C59   C60   A    
C62   H12   S    
C80   C100  A    
C90   O2    A    
C25   C29   A    
Cr10  O34   S    
Cr8   O20   S    
Cr2   O22   S    
Cr9   O33   S    
C14   C30   A    
C111  O15   A    
Cr1   O21   S    
Cr8   O28   S    
C26   H50   S    
C87   H31   S    
C108  O8    A    
C80   H20   S    
C47   O31   A    
C38   H66   S    
C40   H72   S    
C47   C116  S    
C106  O10   A    
Cr11  O11   S    
C71   C75   A    
C105  O9    A    
Cr12  O40   S    
C27   C31   A    
C80   C84   A    
C68   C84   A    
C35   H63   S    
C20   C24   A    
C76   C100  A    
C28   C32   A    
Cr6   O18   S    
C11   H47   S    
C68   C101  S    
C122  H2    S    
C45   O29   A    
Cr5   O17   S    
C25   C41   A    
C57   H5    S    
Cr8   O52   S    
C78   H18   S    
C20   C36   S    
C54   C62   S    
C51   C55   A    
Cr7   O31   S    
C27   C43   A    
C88   H28   S    
C121  H1    S    
C15   C31   A    
C28   C44   A    
C43   C91   S    
C49   C58   A    
C116  C120  A    
Cr5   O29   S    
C68   C72   A    
C42   C90   S    
Cr6   O30   S    
Cr4   O44   S    
C101  O49   A    
C19   C23   A    
C17   C21   A    
C78   C98   A    
Cr7   O27   S    
C92   O4    A    
C52   C59   A    
C7    C119  A    
C76   C96   S    
C66   C82   A    
C97   C109  S    
C78   C82   A    
C65   C81   A    
Cr12  O20   S    
C33   H61   S    
Cr4   O24   S    
C33   H59   S    
Cr11  O15   S    
C45   O33   A    
C75   C99   A    
C112  O16   A    
Cr1   O17   S    
C7    H43   S    
C1    C16   S    
C27   H51   S    
C77   C97   A    
C2    C15   S    
C18   C34   S    
C5    H41   S    
C121  C122  A    
C114  C118  A    
C3    C14   S    
C25   H49   S    
C94   H38   S    
C48   C115  S    
C21   C41   A    
Cr3   O23   S    
C8    C10   A    
C103  O47   A    
C24   C44   A    
C91   O39   A    
C73   C97   A    
C115  C119  A    
C94   H34   S    
C90   O38   A    
C102  O46   A    
Cr7   O7    S    
C10   H46   S    
C123  H3    S    
C89   O37   A    
Cr6   O6    S    
Cr3   O43   S    
C105  O5    A    
C3    O27   A    
C61   H13   S    
C70   C86   S    
C3    O23   A    
C115  C124  A    
C69   C85   S    
C26   C42   A    
C4    O28   A    
C113  C117  A    
C79   C99   A    
C7    C9    A    
C8    C120  A    
C87   C95   S    
C58   H6    S    
C62   H14   S    
C46   C113  S    
C64   H10   S    
C41   C89   S    
C34   C38   S    
C50   C57   A    
C66   C103  S    
C124  H4    S    
C101  O45   A    
C36   H64   S    
Cr5   O49   S    
Cr6   O50   S    
C107  O11   A    
Cr10  O10   S    
C91   O3    A    
C119  C120  A    
Cr2   O18   S    
C100  C112  S    
C49   C106  S    
Cr12  O16   S    
Cr3   O19   S    
C16   C32   A    
C79   H19   S    
Cr11  O19   S    
C48   O36   A    
C104  O52   A    
C13   C17   A    
Cr2   O46   S    
C85   H29   S    
C36   H58   S    
Cr12  O36   S    
C61   H11   S    
Cr9   O9    S    
Cr10  O14   S    
C117  C118  A    
C60   H8    S    
C34   H60   S    
C79   C83   A    
C92   O40   A    
C57   C58   A    
C22   C42   A    
C95   H35   S    
Cr1   O45   S    
Cr4   O48   S    
C23   C39   S    
C88   H32   S    
C30   H54   S    
Cr1   O1    S    
C24   C40   S    
C47   O35   A    
Cr11  O35   S    
Cr7   O51   S    
C67   C71   A    
C53   C61   S    
C4    O24   A    
C38   H70   S    
C12   H48   S    
C33   C37   S    
C49   C53   A    
C109  O13   A    
C2    O26   A    
C110  O14   A    
C59   H7    S    
C63   C64   S    
Cr8   O32   S    
C1    O25   A    
C21   C37   S    
C2    O22   A    
C111  O43   A    
Cr1   O41   S    
C96   H36   S    
C35   H57   S    
C5    C117  A    
C74   C94   S    
C37   H65   S    
C71   C87   S    
C19   C35   S    
C51   C60   A    
Cr4   O4    S    
C65   C104  S    
C102  O50   A    
C23   C43   A    
Cr5   O5    S    
C63   H9    S    
C6    H42   S    
C52   C56   A    
C11   C12   A    
C6    C118  A    
Cr9   O13   S    
Cr12  O12   S    
C26   C30   A    
C106  O6    A    
