data_mof_unit_60445.cif
_audit_creation_date              2012-12-10T17:17:49-0500
_audit_creation_method            fapswitch 2.2
_symmetry_space_group_name_H-M    P1
_symmetry_Int_Tables_number       1
_space_group_crystal_system       triclinic
_cell_length_a                    18.421045
_cell_length_b                    18.417219
_cell_length_c                    59.763658
_cell_angle_alpha                 89.961977
_cell_angle_beta                  90.026693
_cell_angle_gamma                 89.940614
_cell_volume                      20275.6652043

loop_
_atom_site_label
_atom_site_type_symbol
_atom_type_description
_atom_site_fract_x
_atom_site_fract_y
_atom_site_fract_z
_atom_type_partial_charge
C1    C     C_R   0.500009 0.999921 0.939265 0.911101
C2    C     C_R   0.543488 0.039600 0.621451 0.169822
C3    C     C_R   0.549184 0.935190 0.832846 0.581075
C4    C     C_R   0.554626 0.965220 0.332644 0.574834
C5    C     C_R   0.964821 0.554427 0.332600 0.574834
C6    C     C_R   0.445543 0.035103 0.332603 0.574841
C7    C     C_R   0.035010 0.445527 0.332641 0.574828
C8    C     C_R   0.018042 0.563741 0.879617 0.224010
C9    C     C_R   0.564802 0.994140 0.879075 0.249112
C10   C     C_R   0.979938 0.437217 0.879602 0.223888
C11   C     C_R   0.437159 0.020093 0.879311 0.259000
C12   C     C_R   0.481477 0.936708 0.379621 0.223638
C13   C     C_R   0.964749 0.444213 0.620837 0.169007
C14   C     C_R   0.936560 0.481348 0.379621 0.223655
C15   C     C_R   0.518559 0.063542 0.379621 0.223608
C16   C     C_R   0.063293 0.518688 0.379621 0.223691
C17   C     C_R   0.017247 0.563574 0.902940 -0.158060
C18   C     C_R   0.564977 0.993262 0.902510 -0.159686
C19   C     C_R   0.981643 0.436957 0.902922 -0.158118
C20   C     C_R   0.436542 0.016611 0.902676 -0.158060
C21   C     C_R   0.482725 0.936634 0.402939 -0.157250
C22   C     C_R   0.936531 0.482642 0.402939 -0.157525
C23   C     C_R   0.517261 0.063548 0.402939 -0.157533
C24   C     C_R   0.457886 0.938917 0.619843 0.167166
C25   C     C_R   0.063354 0.517416 0.402939 -0.157289
C26   C     C_R   0.998773 0.500584 0.867808 0.128350
C27   C     C_R   0.497668 0.992428 0.867223 0.053361
C28   C     C_R   0.500036 0.000140 0.367820 0.129725
C29   C     C_R   0.999920 0.500008 0.367819 0.129702
C30   C     C_R   0.438491 0.025510 0.238355 0.051348
C31   C     C_R   0.025757 0.438467 0.238387 0.051316
C32   C     C_R   0.561652 0.974465 0.238388 0.051336
C33   C     C_R   0.974319 0.561487 0.238350 0.051326
C34   C     C_R   0.937906 0.527897 0.738324 0.052883
C35   C     C_R   0.536181 0.055651 0.097359 0.285679
C36   C     C_R   0.551461 0.930154 0.738031 0.048405
C37   C     C_R   0.060241 0.474858 0.738380 0.052314
C38   C     C_R   0.437142 0.998708 0.738523 0.048946
C39   C     C_R   0.500065 0.999961 0.226631 0.092642
C40   C     C_R   0.000055 0.499980 0.226628 0.092642
C41   C     C_R   0.999106 0.501368 0.726612 0.092501
C42   C     C_R   0.495453 0.967432 0.726548 0.093021
C43   C     C_R   0.638688 0.858486 0.999265 0.814458
C44   C     C_R   0.141455 0.638798 0.999300 0.827133
C45   C     C_R   0.361250 0.141479 0.999273 0.816425
C46   C     C_R   0.055714 0.536254 0.097351 0.285619
C47   C     C_R   0.858548 0.361206 0.999301 0.826651
C48   C     C_R   0.361253 0.858534 0.999291 0.825134
C49   C     C_R   0.858514 0.638710 0.999262 0.814312
C50   C     C_R   0.638757 0.141426 0.999318 0.826890
C51   C     C_R   0.141485 0.361330 0.999281 0.814451
C52   C     C_R   0.138705 0.358504 0.499282 0.814492
C53   C     C_R   0.641429 0.138801 0.499304 0.831148
C54   C     C_R   0.861275 0.641478 0.499276 0.814395
C55   C     C_R   0.358582 0.861209 0.499307 0.833886
C56   C     C_R   0.861209 0.358562 0.499305 0.828267
C57   C     C_R   0.463896 0.944170 0.097360 0.285650
C58   C     C_R   0.358525 0.138732 0.499275 0.816175
C59   C     C_R   0.138787 0.641423 0.499306 0.828046
C60   C     C_R   0.641487 0.861290 0.499281 0.817181
C61   C     C_R   0.373859 0.036847 0.226246 -0.160962
C62   C     C_R   0.037351 0.373869 0.226304 -0.160946
C63   C     C_R   0.626271 0.963072 0.226301 -0.160945
C64   C     C_R   0.962762 0.626091 0.226237 -0.160965
C65   C     C_R   0.873529 0.540354 0.726188 -0.160902
C66   C     C_R   0.599074 0.886749 0.725321 -0.159436
C67   C     C_R   0.124727 0.462507 0.726318 -0.160281
C68   C     C_R   0.944419 0.463705 0.097360 0.285658
C69   C     C_R   0.390591 0.046844 0.727112 -0.159964
C70   C     C_R   0.288702 0.816811 0.956184 0.065191
C71   C     C_R   0.183223 0.289236 0.956166 0.066543
C72   C     C_R   0.710202 0.183958 0.956207 0.066540
C73   C     C_R   0.815225 0.709750 0.955963 0.064894
C74   C     C_R   0.709544 0.815281 0.955966 0.062741
C75   C     C_R   0.816444 0.288566 0.956243 0.063661
C76   C     C_R   0.287581 0.182583 0.956271 0.065312
C77   C     C_R   0.183330 0.711353 0.956227 0.064458
C78   C     C_R   0.786366 0.318967 0.456468 0.065713
C79   C     C_R   0.036534 0.555549 0.597317 0.285674
C80   C     C_R   0.686553 0.792427 0.455853 0.063286
C81   C     C_R   0.213380 0.681343 0.456457 0.065534
C82   C     C_R   0.313391 0.207920 0.455848 0.063403
C83   C     C_R   0.207589 0.313486 0.455854 0.063729
C84   C     C_R   0.318684 0.786633 0.456457 0.064936
C85   C     C_R   0.792159 0.686662 0.455847 0.063650
C86   C     C_R   0.681047 0.213709 0.456467 0.065316
C87   C     C_R   0.237646 0.815951 0.938833 0.324803
C88   C     C_R   0.183419 0.237954 0.938889 0.324822
C89   C     C_R   0.761121 0.184612 0.938840 0.326575
C90   C     C_R   0.543162 0.044037 0.597948 0.279162
C91   C     C_R   0.813306 0.759954 0.938364 0.323781
C92   C     C_R   0.759651 0.813483 0.938359 0.321463
C93   C     C_R   0.815213 0.237550 0.938901 0.324176
C94   C     C_R   0.236015 0.183389 0.939064 0.319532
C95   C     C_R   0.184092 0.762454 0.938880 0.320037
C96   C     C_R   0.734157 0.319443 0.439453 0.324920
C97   C     C_R   0.689334 0.743225 0.438016 0.322800
C98   C     C_R   0.265473 0.681028 0.439423 0.325107
C99   C     C_R   0.310472 0.257229 0.438018 0.322691
C100  C     C_R   0.256802 0.310755 0.438019 0.322495
C101  C     C_R   0.963122 0.444815 0.597366 0.285328
C102  C     C_R   0.318993 0.734541 0.439423 0.325645
C103  C     C_R   0.742883 0.689578 0.438015 0.322505
C104  C     C_R   0.680622 0.265943 0.439453 0.325230
C105  C     C_R   0.217765 0.727807 0.976857 -0.046921
C106  C     C_R   0.271883 0.217649 0.976844 -0.047511
C107  C     C_R   0.781991 0.272289 0.976878 -0.047073
C108  C     C_R   0.726862 0.781525 0.976676 -0.050147
C109  C     C_R   0.781487 0.726938 0.976673 -0.053041
C110  C     C_R   0.727177 0.218029 0.976869 -0.050755
C111  C     C_R   0.217666 0.272567 0.976815 -0.054255
C112  C     C_R   0.999976 0.500031 0.939347 0.908259
C113  C     C_R   0.457437 0.943063 0.596356 0.280104
C114  C     C_R   0.272324 0.782316 0.976841 -0.052749
C115  C     C_R   0.716563 0.228971 0.477009 -0.048494
C116  C     C_R   0.774004 0.719470 0.476622 -0.052037
C117  C     C_R   0.283303 0.771202 0.477006 -0.048620
C118  C     C_R   0.225882 0.280617 0.476625 -0.052010
C119  C     C_R   0.280556 0.226033 0.476622 -0.052355
C120  C     C_R   0.228806 0.716713 0.477006 -0.047686
C121  C     C_R   0.719402 0.774127 0.476625 -0.052217
C122  C     C_R   0.771064 0.283446 0.477010 -0.047950
C123  C     C_R   0.310206 0.797722 0.997084 -0.029662
C124  C     C_R   0.500050 0.999866 0.132486 0.047144
C125  C     C_R   0.202431 0.310468 0.997044 -0.017917
C126  C     C_R   0.689704 0.202307 0.997135 -0.028938
C127  C     C_R   0.797600 0.689685 0.997003 -0.017400
C128  C     C_R   0.689647 0.797546 0.997005 -0.017012
C129  C     C_R   0.797732 0.310042 0.997123 -0.028825
C130  C     C_R   0.310128 0.202343 0.997048 -0.017312
C131  C     C_R   0.202280 0.689906 0.997100 -0.028906
C132  C     C_R   0.810017 0.297847 0.497120 -0.029521
C133  C     C_R   0.702466 0.810389 0.497046 -0.017082
C134  C     C_R   0.189989 0.702143 0.497124 -0.029591
C135  C     C_R   0.000103 0.499975 0.132482 0.047176
C136  C     C_R   0.297566 0.189673 0.497039 -0.016771
C137  C     C_R   0.189598 0.297517 0.497045 -0.016505
C138  C     C_R   0.297870 0.810006 0.497125 -0.030750
C139  C     C_R   0.810339 0.702446 0.497041 -0.016601
C140  C     C_R   0.702132 0.190005 0.497119 -0.029473
C141  C     C_R   0.296795 0.756273 0.016243 -0.165283
C142  C     C_R   0.244122 0.297190 0.016162 -0.178359
C143  C     C_R   0.703442 0.243466 0.016318 -0.165548
C144  C     C_R   0.756678 0.703551 0.016216 -0.178572
C145  C     C_R   0.703612 0.756567 0.016217 -0.179146
C146  C     C_R   0.999341 0.500650 0.632467 0.047032
C147  C     C_R   0.756495 0.296491 0.016304 -0.165867
C148  C     C_R   0.297148 0.244098 0.016154 -0.179166
C149  C     C_R   0.243735 0.703273 0.016251 -0.166005
C150  C     C_R   0.797549 0.255472 0.516148 -0.165177
C151  C     C_R   0.742581 0.795563 0.516365 -0.178076
C152  C     C_R   0.202600 0.744356 0.516165 -0.165177
C153  C     C_R   0.257481 0.204365 0.516359 -0.178427
C154  C     C_R   0.204410 0.257376 0.516362 -0.178647
C155  C     C_R   0.255650 0.797390 0.516166 -0.161923
C156  C     C_R   0.795607 0.742508 0.516362 -0.178347
C157  C     C_R   0.500861 0.987114 0.632360 0.053083
C158  C     C_R   0.744497 0.202444 0.516147 -0.164563
C159  C     C_R   0.438295 0.019707 0.167671 0.581072
C160  C     C_R   0.020154 0.438286 0.167698 0.581093
C161  C     C_R   0.561790 0.980007 0.167699 0.581096
C162  C     C_R   0.980078 0.561684 0.167664 0.581075
C163  C     C_R   0.937780 0.521745 0.667624 0.581063
C164  C     C_R   0.550090 0.939800 0.667118 0.581627
C165  C     C_R   0.060668 0.480200 0.667705 0.580867
C166  C     C_R   0.449524 0.021645 0.668134 0.580878
C167  C     C_R   0.500054 0.999911 0.202951 -0.052141
C168  C     C_R   0.000086 0.499983 0.202947 -0.052139
C169  C     C_R   0.999164 0.501275 0.702931 -0.051687
C170  C     C_R   0.497339 0.972914 0.702889 -0.050929
C171  C     C_R   0.436766 0.018974 0.191119 -0.042518
C172  C     C_R   0.999985 0.500009 0.439350 0.908041
C173  C     C_R   0.019381 0.436750 0.191147 -0.042538
C174  C     C_R   0.563332 0.980805 0.191147 -0.042527
C175  C     C_R   0.980816 0.563220 0.191113 -0.042526
C176  C     C_R   0.936211 0.521266 0.691076 -0.041937
C177  C     C_R   0.549716 0.934200 0.690588 -0.044331
C178  C     C_R   0.062170 0.481133 0.691150 -0.042416
C179  C     C_R   0.446586 0.016829 0.691581 -0.044463
C180  C     C_R   0.373242 0.035098 0.202962 -0.099629
C181  C     C_R   0.035679 0.373259 0.203019 -0.099621
C182  C     C_R   0.626866 0.964724 0.203015 -0.099614
C183  C     C_R   0.499994 0.000022 0.439349 0.907682
C184  C     C_R   0.964495 0.626708 0.202952 -0.099629
C185  C     C_R   0.872945 0.538523 0.702901 -0.100307
C186  C     C_R   0.598882 0.889347 0.701985 -0.100448
C187  C     C_R   0.125425 0.464134 0.703036 -0.099412
C188  C     C_R   0.394860 0.055457 0.703975 -0.098735
C189  C     C_R   0.500028 0.999930 0.085394 -0.284363
C190  C     C_R   0.000051 0.499986 0.085390 -0.284242
C191  C     C_R   0.999945 0.500058 0.585382 -0.284010
C192  C     C_R   0.499997 0.995818 0.585288 -0.270586
C193  C     C_R   0.999680 0.500159 0.914753 -0.113656
C194  C     C_R   0.534179 0.056536 0.120824 0.168872
C195  C     C_R   0.499974 0.999877 0.914511 -0.127094
C196  C     C_R   0.499990 0.000071 0.414760 -0.112615
C197  C     C_R   0.999954 0.500024 0.414760 -0.112834
C198  C     C_R   0.942322 0.537489 0.761818 -0.003232
C199  C     C_R   0.555237 0.935119 0.761774 -0.007248
C200  C     C_R   0.055638 0.465049 0.761855 -0.002644
C201  C     C_R   0.429864 0.983595 0.761674 -0.008859
C202  C     C_R   0.442874 0.035346 0.261835 -0.005498
C203  C     C_R   0.035484 0.442866 0.261874 -0.005523
C204  C     C_R   0.557293 0.964738 0.261876 -0.005499
C205  C     C_R   0.056654 0.534251 0.120817 0.168941
C206  C     C_R   0.964520 0.557079 0.261832 -0.005524
C207  C     C_R   0.998934 0.501196 0.773596 0.040054
C208  C     C_R   0.492080 0.958559 0.773475 0.040650
C209  C     C_R   0.500088 0.000068 0.273616 0.040235
C210  C     C_R   0.999985 0.499971 0.273613 0.040237
C211  C     C_R   0.500004 0.999978 0.060607 0.929166
C212  C     C_R   0.000016 0.499998 0.060604 0.929230
C213  C     C_R   0.000010 0.499991 0.560602 0.930591
C214  C     C_R   0.500008 0.999611 0.560571 0.950460
C215  C     C_R   0.893796 0.582523 0.774147 0.128615
C216  C     C_R   0.465916 0.943223 0.120826 0.168945
C217  C     C_R   0.618865 0.918926 0.774488 0.131202
C218  C     C_R   0.104039 0.419823 0.774187 0.127489
C219  C     C_R   0.363192 0.990268 0.773583 0.129763
C220  C     C_R   0.393767 0.079776 0.274137 0.127838
C221  C     C_R   0.080013 0.393882 0.274222 0.127813
C222  C     C_R   0.606413 0.920366 0.274225 0.127829
C223  C     C_R   0.919952 0.606057 0.274135 0.127823
C224  C     C_R   0.893699 0.580156 0.797448 -0.120053
C225  C     C_R   0.615590 0.916277 0.797847 -0.120100
C226  C     C_R   0.103980 0.421873 0.797483 -0.120645
C227  C     C_R   0.943529 0.465699 0.120825 0.168869
C228  C     C_R   0.362436 0.984466 0.796876 -0.120346
C229  C     C_R   0.393813 0.077708 0.297437 -0.121761
C230  C     C_R   0.077859 0.393910 0.297520 -0.121758
C231  C     C_R   0.606376 0.922526 0.297523 -0.121756
C232  C     C_R   0.922041 0.606028 0.297435 -0.121759
C233  C     C_R   0.944675 0.538657 0.809134 -0.066591
C234  C     C_R   0.552118 0.934913 0.809290 -0.073972
C235  C     C_R   0.052929 0.463218 0.809150 -0.065665
C236  C     C_R   0.426303 0.970984 0.808817 -0.075223
C237  C     C_R   0.445442 0.037092 0.309140 -0.067017
C238  C     C_R   0.034273 0.556763 0.620776 0.169025
C239  C     C_R   0.037054 0.445421 0.309180 -0.067039
C240  C     C_R   0.554744 0.963177 0.309182 -0.067024
C241  C     C_R   0.962820 0.554520 0.309138 -0.067033
C242  C     C_R   0.998843 0.501026 0.797276 -0.048375
C243  C     C_R   0.490701 0.956504 0.797148 -0.048538
C244  C     C_R   0.500093 0.000114 0.297296 -0.048554
C245  C     C_R   0.999952 0.499970 0.297293 -0.048556
C246  C     C_R   0.052828 0.465138 0.832610 0.574452
C247  C     C_R   0.426975 0.968527 0.832332 0.581786
C248  C     C_R   0.944647 0.536404 0.832599 0.574738
Cl1   Cl    Cl    0.248122 0.873682 0.915442 -0.378974
Cl2   Cl    Cl    0.633788 0.756086 0.414230 -0.387687
Cl3   Cl    Cl    0.256450 0.621731 0.416424 -0.421419
Cl4   Cl    Cl    0.365991 0.244635 0.414234 -0.387217
Cl5   Cl    Cl    0.243934 0.366330 0.414235 -0.387575
Cl6   Cl    Cl    0.378291 0.743565 0.416423 -0.421426
Cl7   Cl    Cl    0.755536 0.634084 0.414228 -0.387126
Cl8   Cl    Cl    0.621173 0.257101 0.416470 -0.421067
Cl9   Cl    Cl    0.412491 0.876799 0.083385 -0.510073
Cl10  Cl    Cl    0.877149 0.412150 0.083388 -0.510274
Cl11  Cl    Cl    0.587592 0.123049 0.083385 -0.510299
Cl12  Cl    Cl    0.125814 0.248957 0.915492 -0.387311
Cl13  Cl    Cl    0.122958 0.587806 0.083364 -0.510328
Cl14  Cl    Cl    0.911390 0.377714 0.583386 -0.510137
Cl15  Cl    Cl    0.405897 0.879543 0.580853 -0.527704
Cl16  Cl    Cl    0.088803 0.622198 0.583304 -0.509696
Cl17  Cl    Cl    0.594727 0.112187 0.584472 -0.521423
Cl18  Cl    Cl    0.750230 0.127007 0.915504 -0.414656
Cl19  Cl    Cl    0.869931 0.748374 0.914781 -0.386516
Cl20  Cl    Cl    0.747803 0.870040 0.914749 -0.401106
Cl21  Cl    Cl    0.873494 0.247234 0.915686 -0.421695
Cl22  Cl    Cl    0.244423 0.123585 0.916184 -0.410023
Cl23  Cl    Cl    0.125931 0.752297 0.915647 -0.421965
Cl24  Cl    Cl    0.743058 0.378915 0.416471 -0.421207
H1    H     H_    0.325547 0.766982 0.031718 0.201372
H2    H     H_    0.730741 0.823164 0.531956 0.178629
H3    H     H_    0.173195 0.734284 0.531558 0.201370
H4    H     H_    0.269374 0.176688 0.531948 0.178454
H5    H     H_    0.176791 0.269188 0.531952 0.178952
H6    H     H_    0.265727 0.826781 0.531560 0.200807
H7    H     H_    0.823264 0.730602 0.531952 0.179060
H8    H     H_    0.734537 0.172917 0.531533 0.198552
H9    H     H_    0.322600 0.044400 0.234652 0.181205
H10   H     H_    0.045043 0.322618 0.234729 0.181224
H11   H     H_    0.677539 0.955558 0.234722 0.181206
H12   H     H_    0.233600 0.326071 0.031620 0.180386
H13   H     H_    0.955047 0.677339 0.234638 0.181221
H14   H     H_    0.822369 0.548761 0.734571 0.181003
H15   H     H_    0.634509 0.847760 0.733209 0.185722
H16   H     H_    0.175841 0.454201 0.734758 0.181871
H17   H     H_    0.352500 0.080578 0.736073 0.184672
H18   H     H_    0.322698 0.045944 0.194308 0.202222
H19   H     H_    0.046714 0.322745 0.194387 0.202230
H20   H     H_    0.677403 0.953845 0.194380 0.202220
H21   H     H_    0.953479 0.677225 0.194295 0.202231
H22   H     H_    0.822606 0.550165 0.694230 0.201650
H23   H     H_    0.674929 0.232532 0.031816 0.201299
H24   H     H_    0.637304 0.855899 0.692929 0.203651
H25   H     H_    0.175816 0.452464 0.694417 0.202403
H26   H     H_    0.357214 0.092214 0.695851 0.204149
H27   H     H_    0.031508 0.612785 0.911792 0.233679
H28   H     H_    0.616400 0.992026 0.911295 0.237053
H29   H     H_    0.967714 0.387594 0.911761 0.233998
H30   H     H_    0.388523 0.034194 0.911594 0.234371
H31   H     H_    0.469052 0.887203 0.411780 0.233401
H32   H     H_    0.887154 0.468896 0.411779 0.233337
H33   H     H_    0.530911 0.112955 0.411780 0.233327
H34   H     H_    0.767884 0.675214 0.031740 0.179880
H35   H     H_    0.112743 0.531176 0.411781 0.233375
H36   H     H_    0.855517 0.614016 0.806460 0.220549
H37   H     H_    0.664573 0.903973 0.807154 0.220038
H38   H     H_    0.142084 0.387870 0.806500 0.219899
H39   H     H_    0.311315 0.990446 0.805638 0.222169
H40   H     H_    0.355191 0.111128 0.306426 0.220849
H41   H     H_    0.111365 0.355384 0.306545 0.220876
H42   H     H_    0.645001 0.889141 0.306549 0.220863
H43   H     H_    0.888510 0.644553 0.306426 0.220868
H44   H     H_    0.675324 0.767696 0.031740 0.179838
H45   H     H_    0.767430 0.325076 0.031788 0.201318
H46   H     H_    0.326151 0.233525 0.031599 0.180415
H47   H     H_    0.233005 0.674522 0.031728 0.201323
H48   H     H_    0.827067 0.265409 0.531533 0.201055
I1    I     I_    0.833309 0.671717 0.760762 -0.256734
I2    I     I_    0.171380 0.398705 0.945504 -0.182340
I3    I     I_    0.600557 0.172032 0.945708 -0.207261
I4    I     I_    0.828217 0.600026 0.945778 -0.182431
I5    I     I_    0.599764 0.827866 0.945821 -0.194388
I6    I     I_    0.827655 0.397896 0.945546 -0.217057
I7    I     I_    0.396697 0.171756 0.945291 -0.221674
I8    I     I_    0.172472 0.601854 0.945614 -0.216702
I9    I     I_    0.895112 0.328574 0.445132 -0.215172
I10   I     I_    0.672814 0.902676 0.446234 -0.184978
I11   I     I_    0.104564 0.671602 0.445161 -0.215220
I12   I     I_    0.727456 0.918389 0.761918 -0.219573
I13   I     I_    0.327278 0.097766 0.446192 -0.184695
I14   I     I_    0.097363 0.327174 0.446234 -0.184317
I15   I     I_    0.328452 0.895474 0.445160 -0.216079
I16   I     I_    0.902310 0.672796 0.446202 -0.184057
I17   I     I_    0.671370 0.104962 0.445123 -0.215535
I18   I     I_    0.418462 0.855438 0.139104 -0.108935
I19   I     I_    0.855926 0.417999 0.139105 -0.109077
I20   I     I_    0.581641 0.144282 0.139097 -0.109092
I21   I     I_    0.144291 0.581949 0.139087 -0.108988
I22   I     I_    0.916001 0.357278 0.639170 -0.107219
I23   I     I_    0.164463 0.330736 0.760782 -0.259760
I24   I     I_    0.394153 0.859479 0.636882 -0.111589
I25   I     I_    0.082612 0.644140 0.638996 -0.106978
I26   I     I_    0.607647 0.112350 0.640940 -0.107928
I27   I     I_    0.050838 0.659941 0.862962 -0.031955
I28   I     I_    0.664005 0.031380 0.864567 -0.029146
I29   I     I_    0.946612 0.341288 0.862931 -0.039652
I30   I     I_    0.368339 0.103184 0.866079 -0.062571
I31   I     I_    0.449162 0.840379 0.362983 -0.040958
I32   I     I_    0.840288 0.448777 0.362986 -0.041311
I33   I     I_    0.550918 0.159916 0.362986 -0.041166
I34   I     I_    0.257710 0.988702 0.758747 -0.224091
I35   I     I_    0.159544 0.551238 0.362985 -0.041078
I36   I     I_    0.332162 0.167937 0.260661 -0.231769
I37   I     I_    0.168412 0.332564 0.260827 -0.231427
I38   I     I_    0.668018 0.832151 0.260836 -0.231669
I39   I     I_    0.831589 0.667371 0.260666 -0.231515
I40   I     I_    0.397941 0.828858 0.945484 -0.180814
N1    N     N_R   0.500042 0.999849 0.156491 -0.327627
N2    N     N_R   0.000119 0.499984 0.156487 -0.327626
N3    N     N_R   0.999239 0.500851 0.656471 -0.327752
N4    N     N_R   0.500493 0.983105 0.656412 -0.327471
N5    N     N_R   0.998710 0.500687 0.843811 -0.350301
N6    N     N_R   0.491887 0.967677 0.843780 -0.335099
N7    N     N_R   0.500075 0.000166 0.343827 -0.350473
N8    N     N_R   0.999910 0.499983 0.343825 -0.350474
O1    O     O_3   0.500000 0.000000 0.999950 -0.519943
O2    O     O_R   0.500000 0.939340 0.450010 -0.611922
O3    O     O_R   0.060660 0.500000 0.450010 -0.611478
O4    O     O_R   0.500000 0.060660 0.450010 -0.611956
O5    O     O_R   0.500000 0.939280 0.049890 -0.598145
O6    O     O_R   0.060720 0.500000 0.049890 -0.598194
O7    O     O_R   0.500000 0.060720 0.049890 -0.598105
O8    O     O_R   0.939280 0.500000 0.049890 -0.598059
O9    O     O_R   0.000000 0.439280 0.549890 -0.598330
O10   O     O_R   0.560720 0.000000 0.549890 -0.605391
O11   O     O_R   0.000000 0.560720 0.549890 -0.598417
O12   O     O_3   0.000000 0.500000 0.999950 -0.520088
O13   O     O_R   0.439280 0.000000 0.549890 -0.603933
O14   O     O_R   0.646240 0.914580 0.986850 -0.620102
O15   O     O_R   0.085420 0.646240 0.986850 -0.621478
O16   O     O_R   0.353760 0.085420 0.986850 -0.619563
O17   O     O_R   0.914580 0.353760 0.986850 -0.621143
O18   O     O_R   0.353760 0.914580 0.986850 -0.621207
O19   O     O_R   0.914580 0.646240 0.986850 -0.619777
O20   O     O_R   0.646240 0.085420 0.986850 -0.621051
O21   O     O_R   0.085420 0.353760 0.986850 -0.619886
O22   O     O_R   0.146240 0.414580 0.486850 -0.618901
O23   O     O_3   1.000000 0.500000 0.499950 -0.520150
O24   O     O_R   0.585420 0.146240 0.486850 -0.621080
O25   O     O_R   0.853760 0.585420 0.486850 -0.618977
O26   O     O_R   0.414580 0.853760 0.486850 -0.621055
O27   O     O_R   0.853760 0.414580 0.486850 -0.621616
O28   O     O_R   0.414580 0.146240 0.486850 -0.618564
O29   O     O_R   0.146240 0.585420 0.486850 -0.621537
O30   O     O_R   0.585420 0.853760 0.486850 -0.618200
O31   O     O_R   0.414600 0.146170 0.013040 -0.636976
O32   O     O_R   0.853830 0.414600 0.013040 -0.621940
O33   O     O_R   0.585400 0.853830 0.013040 -0.637152
O34   O     O_3   0.500000 0.000000 0.499950 -0.519287
O35   O     O_R   0.146170 0.585400 0.013040 -0.622100
O36   O     O_R   0.585400 0.146170 0.013040 -0.622038
O37   O     O_R   0.146170 0.414600 0.013040 -0.637519
O38   O     O_R   0.414600 0.853830 0.013040 -0.622531
O39   O     O_R   0.853830 0.585400 0.013040 -0.636931
O40   O     O_R   0.914600 0.646170 0.513040 -0.637169
O41   O     O_R   0.353830 0.914600 0.513040 -0.623934
O42   O     O_R   0.085400 0.353830 0.513040 -0.637277
O43   O     O_R   0.646170 0.085400 0.513040 -0.626355
O44   O     O_R   0.085400 0.646170 0.513040 -0.622717
O45   O     O_R   0.439340 0.000000 0.950010 -0.609183
O46   O     O_R   0.646170 0.914600 0.513040 -0.639099
O47   O     O_R   0.914600 0.353830 0.513040 -0.622902
O48   O     O_R   0.353830 0.085400 0.513040 -0.639302
O49   O     O_2   0.378677 0.039919 0.156095 -0.518163
O50   O     O_2   0.040565 0.378721 0.156152 -0.518149
O51   O     O_2   0.621402 0.959765 0.156150 -0.518152
O52   O     O_2   0.959682 0.621249 0.156085 -0.518171
O53   O     O_2   0.878489 0.542730 0.656019 -0.517949
O54   O     O_2   0.599448 0.902328 0.655084 -0.517178
O55   O     O_2   0.120004 0.459007 0.656182 -0.517763
O56   O     O_R   0.000000 0.439340 0.950010 -0.611042
O57   O     O_2   0.401597 0.064022 0.657101 -0.517333
O58   O     O_2   0.891276 0.569815 0.844153 -0.496520
O59   O     O_2   0.600275 0.898580 0.844398 -0.489937
O60   O     O_2   0.106166 0.431593 0.844173 -0.498644
O61   O     O_2   0.363555 0.960944 0.843277 -0.483193
O62   O     O_2   0.391802 0.067965 0.344144 -0.496058
O63   O     O_2   0.067993 0.391873 0.344222 -0.495934
O64   O     O_2   0.608359 0.932385 0.344225 -0.495980
O65   O     O_2   0.931817 0.608087 0.344141 -0.495999
O66   O     O_R   0.560660 0.000000 0.950010 -0.612306
O67   O     O_R   1.000000 0.560660 0.950010 -0.611658
O68   O     O_R   0.939340 0.500000 0.450010 -0.611576
Zn1   Zn    Zn3+2 0.500000 0.913250 0.018650 1.044604
Zn2   Zn    Zn3+2 0.000000 0.586820 0.981240 1.048825
Zn3   Zn    Zn3+2 0.413180 0.000000 0.981240 1.050089
Zn4   Zn    Zn3+2 0.000000 0.413180 0.981240 1.049044
Zn5   Zn    Zn3+2 0.086820 0.500000 0.481240 1.049418
Zn6   Zn    Zn3+2 0.500000 0.086820 0.481240 1.050936
Zn7   Zn    Zn3+2 0.913180 0.500000 0.481240 1.049419
Zn8   Zn    Zn3+2 0.500000 0.913180 0.481240 1.052082
Zn9   Zn    Zn3+2 0.086750 0.500000 0.018650 1.044690
Zn10  Zn    Zn3+2 0.500000 0.086750 0.018650 1.045180
Zn11  Zn    Zn3+2 0.913250 0.500000 0.018650 1.044943
Zn12  Zn    Zn3+2 0.000000 0.413250 0.518650 1.044818
Zn13  Zn    Zn3+2 0.586750 0.000000 0.518650 1.044053
Zn14  Zn    Zn3+2 0.000000 0.586750 0.518650 1.044811
Zn15  Zn    Zn3+2 0.413250 0.000000 0.518650 1.045475
Zn16  Zn    Zn3+2 0.586820 0.000000 0.981240 1.048255

loop_
_geom_bond_atom_site_label_1
_geom_bond_atom_site_label_2
_ccdc_geom_bond_type
C138  C155  A    
C168  C175  A    
C75   C107  A    
C46   C205  A    
C200  C218  A    
C36   C42   A    
C133  C151  A    
O7    Zn10  S    
C107  C129  A    
C105  C131  A    
C8    I27   S    
C24   I24   S    
C50   O20   A    
C147  H45   S    
C12   I31   S    
C241  C245  A    
C11   I30   S    
C4    N7    A    
C213  O11   A    
C155  H6    S    
C98   Cl3   S    
C36   C66   A    
C128  C145  A    
C163  N3    A    
C194  I20   S    
C126  C143  A    
C240  C244  A    
C132  C150  A    
C108  C109  A    
C222  I38   S    
C89   Cl18  S    
C113  Cl15  S    
C74   C92   A    
C2    C90   A    
C190  C212  S    
C42   C170  A    
C35   Cl11  S    
C142  H12   S    
C109  C127  A    
C78   C96   A    
C84   C117  A    
O56   Zn4   S    
C23   C196  A    
C111  C125  A    
C203  C210  A    
C5    N8    A    
C210  C245  A    
C164  N4    A    
C85   C103  A    
C246  O60   S    
O39   Zn11  S    
C38   C69   A    
C45   C130  S    
C79   C191  A    
C79   Cl16  S    
O22   Zn5   S    
C168  C173  A    
C91   Cl19  S    
C124  N1    S    
C209  C244  A    
C57   Cl9   S    
C67   C187  A    
C65   C185  A    
C80   C121  A    
C30   C202  A    
C11   C20   A    
C183  O4    A    
C232  C241  A    
C201  C219  A    
C156  H7    S    
C211  O7    A    
C45   O31   A    
C167  C171  A    
C179  C188  A    
C98   C102  A    
C41   C169  A    
C20   H30   S    
C177  C186  A    
C180  H18   S    
C21   H31   S    
C61   H9    S    
C22   H32   S    
C224  C233  A    
C48   O38   A    
C57   C216  A    
C11   C27   A    
C123  C141  A    
C52   C137  S    
C205  I21   S    
C227  I19   S    
C247  O61   S    
C95   Cl23  S    
C248  O58   S    
C97   C103  A    
C167  C174  A    
C223  I39   S    
C56   O47   A    
C83   C100  A    
C66   C186  A    
C107  C110  A    
C131  C149  A    
C54   O25   A    
C52   O42   A    
C162  N2    A    
C223  C232  A    
C75   C93   A    
C221  I37   S    
C16   C25   A    
C106  C130  A    
C237  C244  A    
C85   C116  A    
C8    C17   A    
C85   I16   S    
C144  C145  A    
C101  C191  A    
C184  H21   S    
C58   O48   A    
C119  C136  A    
C239  C245  A    
C135  N2    S    
C62   C181  A    
C166  N4    A    
C136  C153  A    
C48   O18   A    
C53   O24   A    
C2    C157  A    
C43   O14   A    
C14   I32   S    
C201  C208  A    
C21   C196  A    
C151  H2    S    
C129  C147  A    
C230  H41   S    
C71   C88   A    
C92   Cl20  S    
O31   Zn10  S    
C93   Cl21  S    
C30   C61   A    
C124  C194  A    
C56   O27   A    
C231  C240  A    
O45   Zn3   S    
C47   O32   A    
C218  C226  A    
C25   H35   S    
C161  C174  A    
C183  O2    A    
C80   C97   A    
C84   C102  A    
C160  C173  A    
C22   C197  A    
O26   Zn8   S    
C36   C199  A    
C141  H1    S    
C143  H23   S    
C174  C182  A    
O9    Zn12  S    
C44   O15   A    
C90   C192  A    
O12   Zn2   S    
C135  C227  A    
C220  C229  A    
C47   C129  S    
C225  C234  A    
C229  H40   S    
C1    C195  S    
C219  I34   S    
O5    Zn1   S    
C32   C39   A    
C55   O41   A    
C202  C220  A    
C34   C198  A    
C35   C194  A    
C140  C158  A    
C169  C176  A    
C146  C238  A    
C87   C95   A    
C221  C230  A    
C16   I35   S    
C219  C228  A    
C206  C223  A    
C74   I5    S    
C76   C94   A    
C1    O45   A    
C101  Cl14  S    
C51   O21   A    
C3    O59   S    
C230  C239  A    
O27   Zn7   S    
C70   C87   A    
O12   Zn9   S    
C165  N3    A    
O38   Zn1   S    
C106  C111  A    
C121  C133  A    
C88   C94   A    
C33   C40   A    
C90   Cl17  S    
C215  I1    S    
C166  O57   S    
C4    O64   S    
C91   C92   A    
C88   Cl12  S    
C24   C157  A    
C162  C175  A    
C80   I10   S    
C86   C115  A    
C214  O10   A    
C57   C189  A    
C67   H16   S    
O43   Zn13  S    
C206  C210  A    
C29   N8    S    
C158  H8    S    
C54   C139  S    
C108  C128  A    
C159  N1    A    
C31   C62   A    
C55   O26   A    
C110  C126  A    
C114  C123  A    
C246  N5    A    
C163  O53   S    
O29   Zn5   S    
C14   C29   A    
C112  O56   A    
C2    I26   S    
C113  C192  A    
C76   C106  A    
C235  C246  A    
O24   Zn6   S    
C198  C207  A    
O47   Zn12  S    
C154  H5    S    
C27   N6    S    
C7    O63   S    
C13   I22   S    
O32   Zn11  S    
C59   C134  S    
C86   I17   S    
O40   Zn14  S    
C170  C179  A    
C14   C22   A    
C231  H42   S    
C37   C67   A    
C199  C208  A    
C30   C39   A    
C83   I14   S    
C120  C134  A    
C28   N7    S    
C89   C93   A    
O23   Zn12  S    
C64   C184  A    
C233  C242  A    
C217  I12   S    
C81   I11   S    
O20   Zn16  S    
C216  I18   S    
C202  C209  A    
C79   C238  A    
C187  H25   S    
O12   Zn11  S    
C217  C225  A    
C64   H13   S    
C226  H38   S    
C17   H27   S    
C43   O33   A    
C18   H28   S    
C103  Cl7   S    
C82   C99   A    
C117  C138  A    
C199  C217  A    
C215  C224  A    
C48   C123  S    
C176  C185  A    
C46   Cl13  S    
O1    Zn10  S    
C84   I15   S    
C5    O65   S    
C159  C171  A    
C12   C28   A    
C112  O67   A    
C236  C243  A    
O12   Zn4   S    
C148  H46   S    
C149  H47   S    
C81   C98   A    
C145  H44   S    
C94   Cl22  S    
O33   Zn1   S    
C31   C40   A    
C212  O6    A    
C37   C200  A    
C58   O28   A    
C228  H39   S    
O1    Zn1   S    
C204  C209  A    
C208  C243  A    
O11   Zn14  S    
C186  H24   S    
C20   C195  A    
C135  C205  A    
C116  C139  A    
C72   I3    S    
C173  C181  A    
C35   C189  A    
C211  O5    A    
C34   C41   A    
C82   C119  A    
C87   Cl1   S    
C198  C215  A    
O23   Zn7   S    
C144  H34   S    
C82   I13   S    
C6    C237  A    
O46   Zn13  S    
C170  C177  A    
C63   H11   S    
C116  C121  A    
C117  C120  A    
O66   Zn16  S    
C172  O3    A    
C65   H14   S    
C102  Cl6   S    
C32   C204  A    
O68   Zn7   S    
C52   O22   A    
O21   Zn4   S    
C26   N5    S    
C152  C155  A    
C68   C190  A    
C10   C19   A    
C134  C152  A    
C4    C240  A    
C192  C214  S    
C151  C156  A    
C214  O13   A    
C49   O19   A    
C51   O37   A    
C56   C132  S    
C178  C187  A    
C200  C207  A    
O1    Zn16  S    
C207  C242  A    
C3    N6    A    
C100  Cl5   S    
C161  N1    A    
C9    C27   A    
C73   I4    S    
O42   Zn12  S    
C150  C158  A    
C204  C222  A    
C18   C195  A    
C62   H10   S    
C99   Cl4   S    
C152  H3    S    
C43   C128  S    
C159  O49   S    
C73   C109  A    
C97   Cl2   S    
O37   Zn9   S    
C78   I9    S    
C248  N5    A    
C212  O8    A    
C77   C105  A    
C165  O55   S    
C191  C213  S    
O23   Zn14  S    
C15   C28   A    
O1    Zn3   S    
C15   I33   S    
O8    Zn11  S    
C9    I28   S    
C161  O51   S    
C137  C154  A    
C162  O52   S    
C127  C144  A    
C49   O39   A    
C74   C108  A    
C115  C140  A    
C61   C180  A    
C75   I6    S    
C181  H19   S    
C54   O40   A    
C6    O62   S    
C182  H20   S    
O34   Zn15  S    
C60   C133  S    
O23   Zn5   S    
C175  C184  A    
C53   C140  S    
C1    O66   A    
C17   C193  A    
C68   C227  A    
C141  C149  A    
C70   C114  A    
C44   C131  S    
C143  C147  A    
C81   C120  A    
C55   C138  S    
C83   C118  A    
O34   Zn8   S    
C66   H15   S    
C53   O43   A    
O18   Zn3   S    
C3    C234  A    
O3    Zn5   S    
O19   Zn2   S    
O13   Zn15  S    
C150  H48   S    
O2    Zn8   S    
C203  C221  A    
C50   O36   A    
C238  I25   S    
C118  C119  A    
C218  I23   S    
C38   C201  A    
C71   C111  A    
C59   O44   A    
C19   H29   S    
C247  N6    A    
C50   C126  S    
C118  C137  A    
C31   C203  A    
C234  C243  A    
O67   Zn2   S    
C45   O16   A    
C10   C26   A    
C15   C23   A    
C24   C113  A    
C115  C122  A    
C37   C41   A    
C165  C178  A    
C236  C247  A    
O16   Zn3   S    
C13   C146  A    
C46   C190  A    
C163  C176  A    
C34   C65   A    
C122  C132  A    
C183  C196  S    
O36   Zn10  S    
C8    C26   A    
C49   C127  S    
C72   C110  A    
C33   C206  A    
C40   C168  A    
C130  C148  A    
C51   C125  S    
C142  C148  A    
C105  C114  A    
C25   C197  A    
C73   C91   A    
C189  C211  S    
C59   O29   A    
C146  N3    S    
C58   C136  S    
C16   C29   A    
C157  N4    S    
O4    Zn6   S    
C12   C21   A    
C77   C95   A    
C224  H36   S    
C226  C235  A    
O44   Zn14  S    
C235  C242  A    
C213  O9    A    
C6    N7    A    
C9    C18   A    
C99   C100  A    
O41   Zn15  S    
C125  C142  A    
C172  C197  S    
C160  N2    A    
O34   Zn13  S    
C69   C188  A    
C47   O17   A    
O48   Zn15  S    
O17   Zn4   S    
C7    C239  A    
C222  C231  A    
C19   C193  A    
C70   I40   S    
C171  C180  A    
O10   Zn13  S    
C13   C101  A    
C169  C178  A    
C44   O35   A    
C7    N8    A    
C124  C216  A    
C232  H43   S    
C71   I2    S    
C60   O30   A    
O34   Zn6   S    
C32   C63   A    
C60   O46   A    
C233  C248  A    
C225  H37   S    
C166  C179  A    
C96   Cl24  S    
O30   Zn8   S    
C104  Cl8   S    
O28   Zn6   S    
C172  O68   A    
C96   C104  A    
C188  H26   S    
C68   Cl10  S    
C72   C89   A    
C139  C156  A    
O35   Zn9   S    
C33   C64   A    
C164  O54   S    
C77   I8    S    
C69   H17   S    
C153  H4    S    
C39   C167  A    
C78   C122  A    
C112  C193  S    
C228  C236  A    
C23   H33   S    
C86   C104  A    
C38   C42   A    
O14   Zn16  S    
C220  I36   S    
O6    Zn9   S    
C63   C182  A    
O15   Zn2   S    
C185  H22   S    
C10   I29   S    
C5    C241  A    
C153  C154  A    
C229  C237  A    
C164  C177  A    
O25   Zn7   S    
C76   I7    S    
C160  O50   S    
