data_mof_unit_46621.cif
_audit_creation_date              2013-03-05T16:31:28-0500
_audit_creation_method            fapswitch 2.2
_symmetry_space_group_name_H-M    P1
_symmetry_Int_Tables_number       1
_space_group_crystal_system       triclinic
_cell_length_a                    15.020344
_cell_length_b                    10.813195
_cell_length_c                    9.544755
_cell_angle_alpha                 90.175498
_cell_angle_beta                  89.803794
_cell_angle_gamma                 90.07068
_cell_volume                      1550.22162414

loop_
_atom_site_label
_atom_site_type_symbol
_atom_site_description
_atom_site_fract_x
_atom_site_fract_y
_atom_site_fract_z
_atom_type_partial_charge
O1    O     O_R   0.500000 0.319640 0.618810 -0.565236
O2    O     O_R   0.500010 0.319680 0.381230 -0.605630
C1    C     C_R   0.497974 0.262450 0.499766 0.808350
O3    O     O_R   0.370250 0.499950 0.618800 -0.578287
O4    O     O_R   0.370260 0.499990 0.381220 -0.575053
C2    C     C_R   0.329104 0.499896 0.500215 0.901043
Cu1   Cu    Cu3+1 0.500000 0.499980 0.640670 0.979608
Cu2   Cu    Cu3+1 0.500000 0.500020 0.359330 0.984351
O5    O     O_R   0.499990 0.680320 0.618770 -0.593526
O6    O     O_R   0.500000 0.680360 0.381190 -0.556950
O7    O     O_R   0.629740 0.500010 0.618780 -0.582059
O8    O     O_R   0.629750 0.500050 0.381200 -0.564632
C3    C     C_R   0.497625 0.737574 0.500165 0.861484
C4    C     C_R   0.670947 0.503355 0.499915 0.885934
C5    C     C_R   0.813273 0.614955 0.455740 0.316028
C6    C     C_R   0.767324 0.507999 0.499246 -0.185689
C7    C     C_R   0.813118 0.404825 0.547422 -0.291280
C8    C     C_R   0.905526 0.404358 0.549608 0.146807
C9    C     C_R   0.953106 0.506234 0.495011 0.032805
C10   C     C_R   0.907032 0.610362 0.441236 -0.099725
C11   C     C_R   0.950833 0.302885 0.605201 -0.177742
C12   C     C_R   0.043332 0.301597 0.607931 -0.141556
C13   C     C_R   0.092238 0.401095 0.552969 0.021239
C14   C     C_R   0.046851 0.504156 0.496180 -0.050105
C15   C     C_R   0.095017 0.605225 0.441398 -0.050616
C16   C     C_R   0.049365 0.704057 0.380278 -0.227317
C17   C     C_R   0.956454 0.706489 0.376123 0.342120
C18   C     C_R   0.185693 0.398946 0.552323 0.368703
C19   C     C_R   0.232748 0.501370 0.500320 -0.255906
C20   C     C_R   0.188359 0.604930 0.446540 0.399919
H1    H     H_    0.776321 0.325761 0.586247 0.162288
H2    H     H_    0.914598 0.224553 0.647382 0.158621
H3    H     H_    0.076301 0.222026 0.652692 0.187460
H4    H     H_    0.085985 0.778520 0.330743 0.214885
C21   C     C_R   0.493251 0.063636 0.624385 -0.080812
C22   C     C_R   0.489313 0.129477 0.499375 -0.072613
C23   C     C_R   0.473641 0.064109 0.374263 -0.221447
H5    H     H_    0.465711 0.111980 0.275580 0.165208
C24   C     C_R   0.473828 0.934981 0.374548 -0.146507
H6    H     H_    0.466623 0.886388 0.275813 0.178573
C25   C     C_R   0.488058 0.870434 0.500432 -0.095310
C26   C     C_R   0.489337 0.936564 0.626037 -0.106442
C27   C     C_3   0.549218 0.927476 0.752898 0.290266
C28   C     C_3   0.554026 0.069008 0.749609 0.303465
H7    H     H_    0.613187 0.880452 0.728968 0.134744
H8    H     H_    0.520267 0.113315 0.840627 0.125939
C29   C     C_R   0.545458 0.589025 0.073526 0.250730
N1    N     N_R   0.500570 0.500930 0.147930 -0.195851
C30   C     C_R   0.448587 0.419510 0.074454 -0.063780
H9    H     H_    0.408368 0.352701 0.130324 0.134498
C31   C     C_R   0.448524 0.419569 0.925535 -0.065509
H10   H     H_    0.408230 0.352828 0.869655 0.156438
N2    N     N_R   0.500570 0.500890 0.852020 -0.200667
C32   C     C_R   0.545836 0.588416 0.926155 0.304542
C33   C     C_3   0.643552 0.611723 0.919675 -0.471300
C34   C     C_3   0.643152 0.613943 0.078413 -0.405664
H11   H     H_    0.681516 0.532277 0.875841 0.223936
H12   H     H_    0.659775 0.702797 0.872542 0.226534
H13   H     H_    0.681913 0.536916 0.124938 0.222341
H14   H     H_    0.658075 0.707161 0.121395 0.264682
N3    N     N_R   0.767341 0.731588 0.451572 0.128984
O9    O     O_R   0.694535 0.744696 0.380043 -0.384829
O10   O     O_R   0.795334 0.823163 0.528519 -0.373485
O11   O     O_3   0.512389 0.882074 0.881001 -0.585385
C35   C     C_3   0.418363 0.878710 0.884539 -0.298629
H15   H     H_    0.392312 0.808641 0.809718 0.181151
H16   H     H_    0.389200 0.971269 0.863811 0.150339
H17   H     H_    0.396896 0.850437 0.991064 0.186982
O12   O     O_3   0.641616 0.118260 0.731125 -0.580514
C36   C     C_3   0.683006 0.090325 0.601162 -0.194007
H18   H     H_    0.669598 0.165029 0.524883 0.143809
H19   H     H_    0.663411 0.000183 0.554966 0.191054
H20   H     H_    0.756042 0.087338 0.617463 0.202913
O13   O     O_3   0.231383 0.299569 0.608520 -0.577966
C37   C     C_3   0.249148 0.213588 0.500473 -0.340420
H21   H     H_    0.284070 0.132962 0.546235 0.189417
H22   H     H_    0.293533 0.253684 0.418839 0.155236
H23   H     H_    0.186673 0.178835 0.451787 0.174580
O14   O     O_3   0.236795 0.703586 0.393641 -0.570589
C38   C     C_3   0.251147 0.789556 0.502831 -0.341154
H24   H     H_    0.293778 0.749708 0.586331 0.150688
H25   H     H_    0.187303 0.823193 0.548549 0.173115
H26   H     H_    0.286457 0.871010 0.459242 0.191964
N4    N     N_R   0.914422 0.800880 0.294053 0.165522
O15   O     O_R   0.857688 0.770030 0.197247 -0.324154
O16   O     O_R   0.944477 0.913778 0.297715 -0.340950

loop_
_geom_bond_atom_site_label_1
_geom_bond_atom_site_label_2
_geom_bond_distance
_ccdc_geom_bond_type
C33   C34   1.515219 S    
C8    C11   1.398752 A    
C25   C26   1.394226 A    
C21   C22   1.392801 A    
C27   C28   1.532442 S    
C18   O13   1.386105 S    
C3    C25   1.443977 S    
Cu1   Cu2   2.685323 S    
C24   C25   1.408466 A    
N2    C32   1.362466 A    
Cu1   O7    1.959195 S    
C16   C17   1.396535 A    
C23   H5    1.083160 S    
C17   N4    1.436602 S    
N4    O16   1.301472 A    
O3    Cu1   1.960749 S    
O4    C2    1.291257 A    
O7    C4    1.291105 A    
C5    C6    1.409031 A    
C8    C9    1.412392 A    
N3    O10   1.301286 A    
C21   C26   1.375370 A    
O5    C3    1.292563 A    
C16   H4    1.083450 S    
C9    C10   1.420578 A    
C6    C7    1.391554 A    
C35   H16   1.111586 S    
C13   C14   1.417255 A    
C36   H18   1.108228 S    
C11   C12   1.389775 A    
O12   C36   1.417536 S    
C38   H26   1.108935 S    
C28   H8    1.111939 S    
C27   O11   1.428444 S    
C5    C10   1.415519 A    
C11   H2    1.084073 S    
O13   C37   1.411381 S    
C31   H10   1.081841 S    
N4    O15   1.301549 A    
C38   H25   1.113249 S    
C24   H6    1.083259 S    
C30   C31   1.421397 A    
C15   C16   1.400357 A    
C34   H14   1.110016 S    
O1    C1    1.292399 A    
C37   H21   1.109518 S    
Cu2   N1    2.017804 S    
C19   C20   1.403474 A    
C27   H7    1.110366 S    
C29   N1    1.365881 A    
Cu2   O8    1.960747 S    
C35   H17   1.109338 S    
C36   H20   1.109061 S    
C7    C8    1.388241 A    
C5    N3    1.439011 S    
C28   O12   1.429299 S    
C13   C18   1.403935 A    
C14   C15   1.410733 A    
C21   C28   1.507371 S    
C37   H22   1.112367 S    
C29   C32   1.406602 A    
C20   O14   1.386045 S    
O3    C2    1.291453 A    
N1    C30   1.369266 A    
O8    C4    1.293297 A    
C30   H9    1.081790 S    
C33   H11   1.111563 S    
C7    H1    1.083100 S    
C4    C6    1.448419 S    
C26   C27   1.514348 S    
Cu1   N2    2.017325 S    
C15   C20   1.403060 A    
Cu1   O5    1.961858 S    
C12   H3    1.082969 S    
C32   C33   1.490013 S    
C18   C19   1.404127 A    
O1    Cu1   1.960547 S    
Cu2   O6    1.960547 S    
O2    Cu2   1.961858 S    
C38   H24   1.112284 S    
O6    C3    1.291918 A    
O4    Cu2   1.959198 S    
C10   C17   1.420097 A    
C34   H13   1.111365 S    
O11   C35   1.413018 S    
C9    C14   1.408371 A    
C23   C24   1.396299 A    
C1    C22   1.443565 S    
O2    C1    1.291497 A    
N3    O9    1.299314 A    
C37   H23   1.113006 S    
O14   C38   1.411356 S    
C2    C19   1.447400 S    
C22   C23   1.406204 A    
C35   H15   1.111328 S    
C33   H12   1.110387 S    
C12   C13   1.404007 A    
C36   H19   1.108450 S    
C31   N2    1.369329 A    
C29   C34   1.492472 S    
