data_mof_unit_44089.cif
_audit_creation_date              2012-12-11T17:09:25-0500
_audit_creation_method            fapswitch 2.2
_symmetry_space_group_name_H-M    P1
_symmetry_Int_Tables_number       1
_space_group_crystal_system       triclinic
_cell_length_a                    14.739454
_cell_length_b                    6.932747
_cell_length_c                    13.584092
_cell_angle_alpha                 89.999838
_cell_angle_beta                  99.918421
_cell_angle_gamma                 90.000275
_cell_volume                      1367.34277512

loop_
_atom_site_label
_atom_site_type_symbol
_atom_type_description
_atom_site_fract_x
_atom_site_fract_y
_atom_site_fract_z
_atom_type_partial_charge
O1    O     O_R   0.586930 0.505770 0.416350 -0.538598
O2    O     O_R   0.413070 0.005770 0.583650 -0.538605
O3    O     O_R   0.397900 0.173100 0.389630 -0.535417
O4    O     O_R   0.602100 0.673100 0.610370 -0.535406
C1    C     C_R   0.364802 0.345525 0.362217 0.721225
C2    C     C_R   0.635199 0.845524 0.637782 0.721231
O5    O     O_R   0.585280 0.175870 0.404330 -0.547917
O6    O     O_R   0.414720 0.675870 0.595670 -0.547909
O7    O     O_R   0.601790 0.008380 0.598460 -0.534723
O8    O     O_R   0.398210 0.508380 0.401540 -0.534701
C3    C     C_R   0.615697 0.344829 0.383915 0.701937
C4    C     C_R   0.384296 0.844826 0.616077 0.701938
O9    O     O_3   0.505200 0.340120 0.563670 -0.369088
O10   O     O_3   0.494800 0.840120 0.436330 -0.369097
V1    V     V_3+5 0.499040 0.064180 0.488190 1.416839
V2    V     V_3+5 0.500960 0.564180 0.511810 1.416873
C5    C     C_R   0.247233 0.002089 0.672993 0.010434
C6    C     C_R   0.752759 0.502091 0.327006 0.010385
C7    C     C_R   0.312743 0.852827 0.680782 -0.106465
C8    C     C_R   0.687242 0.352842 0.319203 -0.106445
C9    C     C_R   0.306226 0.705640 0.750936 -0.163067
C10   C     C_R   0.693753 0.205670 0.249040 -0.163128
H1    H     H_    0.354209 0.586311 0.759008 0.153146
H2    H     H_    0.645758 0.086361 0.240955 0.153098
C11   C     C_R   0.241394 0.716778 0.815867 -0.135593
C12   C     C_R   0.758592 0.216805 0.184118 -0.135543
H3    H     H_    0.241497 0.607257 0.872340 0.199642
H4    H     H_    0.758473 0.107315 0.127627 0.199674
C13   C     C_R   0.181745 0.875705 0.813472 -0.066333
C14   C     C_R   0.818265 0.375696 0.186541 -0.066303
C15   C     C_R   0.185665 0.015420 0.740387 -0.035423
C16   C     C_R   0.814357 0.515389 0.259640 -0.035588
C17   C     C_3   0.199227 0.227156 0.753355 0.478373
C18   C     C_3   0.800847 0.727137 0.246690 0.478393
C19   C     C_3   0.261118 0.216383 0.674498 -0.155970
C20   C     C_3   0.738875 0.716390 0.325468 -0.155883
H5    H     H_    0.135067 0.313212 0.733977 0.043473
H6    H     H_    0.865025 0.813112 0.266158 0.043516
H7    H     H_    0.333705 0.257644 0.703595 0.169421
H8    H     H_    0.666303 0.757643 0.296290 0.169397
C21   C     C_1   0.782782 0.877126 0.783751 -0.182673
C22   C     C_1   0.217223 0.377128 0.216243 -0.182717
C23   C     C_1   0.715415 0.860199 0.717726 -0.172776
C24   C     C_1   0.284589 0.360201 0.282270 -0.172779
O11   O     O_R   0.101720 0.231700 0.098560 -0.531909
O12   O     O_R   0.898280 0.731700 0.901440 -0.531899
O13   O     O_R   0.914700 0.558980 0.095690 -0.522650
O14   O     O_R   0.085300 0.058980 0.904310 -0.522729
C25   C     C_R   0.884740 0.389667 0.116465 0.706298
C26   C     C_R   0.115265 0.889670 0.883542 0.706196
O15   O     O_R   0.102080 0.561590 0.110390 -0.543617
O16   O     O_R   0.897920 0.061590 0.889610 -0.543630
O17   O     O_R   0.086950 0.728940 0.916330 -0.548321
O18   O     O_R   0.913050 0.228940 0.083670 -0.548301
C27   C     C_R   0.136343 0.391929 0.137107 0.747012
C28   C     C_R   0.863659 0.891928 0.862890 0.747071
O19   O     O_3   0.994770 0.394510 0.936380 -0.371581
O20   O     O_3   0.005230 0.894510 0.063620 -0.371528
V3    V     V_3+5 0.000970 0.670520 0.011800 1.476768
V4    V     V_3+5 0.999030 0.170520 0.988200 1.476686
F1    F     F_    0.248795 0.267628 0.847181 -0.699302
F2    F     F_    0.751368 0.767698 0.152832 -0.699314
C29   C     C_3   0.221271 0.319718 0.575451 -0.389753
C30   C     C_3   0.128140 0.240462 0.520877 -0.300493
C31   C     C_3   0.083733 0.377242 0.438476 -0.791775
H9    H     H_    0.068040 0.517737 0.471085 0.225890
H10   H     H_    0.130465 0.402019 0.384043 0.231351
H11   H     H_    0.018421 0.313766 0.398610 0.210828
H12   H     H_    0.139041 0.097882 0.487330 0.197844
H13   H     H_    0.079014 0.220744 0.573384 0.179423
H14   H     H_    0.213860 0.475241 0.592092 0.187171
H15   H     H_    0.272378 0.308572 0.524604 0.186414
C32   C     C_3   0.778641 0.819816 0.424509 -0.389861
C33   C     C_3   0.871647 0.740351 0.479290 -0.300330
C34   C     C_3   0.916149 0.877403 0.561508 -0.791897
H16   H     H_    0.932222 0.017411 0.528667 0.225867
H17   H     H_    0.869308 0.903225 0.615721 0.231389
H18   H     H_    0.981260 0.813608 0.601682 0.210879
H19   H     H_    0.860541 0.598070 0.513036 0.197837
H20   H     H_    0.920802 0.719953 0.426870 0.179477
H21   H     H_    0.786193 0.975273 0.407811 0.187225
H22   H     H_    0.727425 0.808985 0.475244 0.186414

loop_
_geom_bond_atom_site_label_1
_geom_bond_atom_site_label_2
_ccdc_geom_bond_type
O11   V4    S    
O12   V3    S    
C32   C33   S    
O1    C3    A    
O2    C4    A    
C2    O7    A    
O17   V3    S    
O13   C25   A    
O18   V4    S    
O5    C3    A    
C7    C9    A    
O19   V3    S    
O20   V4    S    
C25   O18   A    
C18   F2    S    
O16   V4    S    
C5    C7    A    
C31   H10   S    
C15   C17   S    
O10   V2    S    
C30   H13   S    
C6    C8    A    
O14   C26   A    
O6    V2    S    
C33   H20   S    
C21   C23   T    
C22   C24   T    
C32   H21   S    
O14   V4    S    
C13   C26   S    
C11   C13   A    
C3    C8    S    
C26   O17   A    
C33   C34   S    
C20   H8    S    
O4    C2    A    
O19   V4    S    
O15   C27   A    
O20   V3    S    
C17   H5    S    
C16   C18   S    
O4    V2    S    
C19   H7    S    
C34   H16   S    
C21   C28   S    
C22   C27   S    
O6    C4    A    
C31   H11   S    
O1    V2    S    
C30   H12   S    
O2    V1    S    
C34   H17   S    
C1    C24   S    
C8    C10   A    
C12   C14   A    
C33   H19   S    
O9    V1    S    
C5    C15   A    
C10   H2    S    
C6    C16   A    
C32   H22   S    
O3    V1    S    
C9    C11   A    
C18   H6    S    
C14   C25   S    
C29   H14   S    
O3    C1    A    
C11   H3    S    
C12   H4    S    
C2    C23   S    
C30   C31   S    
C9    H1    S    
O7    V1    S    
C1    O8    A    
C13   C15   A    
O8    V2    S    
C14   C16   A    
C4    C7    S    
O5    V1    S    
C17   C19   S    
C18   C20   S    
C34   H18   S    
C20   C32   S    
O13   V3    S    
C29   C30   S    
O15   V3    S    
C29   H15   S    
O11   C27   A    
C17   F1    S    
C31   H9    S    
C10   C12   A    
O9    V2    S    
O12   C28   A    
O10   V1    S    
C19   C29   S    
C5    C19   S    
C6    C20   S    
O16   C28   A    
