data_mof_unit_19688.cif
_audit_creation_date              2012-12-10T20:50:28-0500
_audit_creation_method            fapswitch 2.2
_symmetry_space_group_name_H-M    P1
_symmetry_Int_Tables_number       1
_space_group_crystal_system       triclinic
_cell_length_a                    23.441542
_cell_length_b                    8.921366
_cell_length_c                    8.105275
_cell_angle_alpha                 89.90966
_cell_angle_beta                  90.012529
_cell_angle_gamma                 90.00312
_cell_volume                      1695.05867762

loop_
_atom_site_label
_atom_site_type_symbol
_atom_type_description
_atom_site_fract_x
_atom_site_fract_y
_atom_site_fract_z
_atom_type_partial_charge
C1    C     C_R   0.500001 0.218011 0.500083 0.942300
C2    C     C_R   0.791748 0.498595 0.495771 0.317877
C3    C     C_R   0.389071 0.499848 0.500033 0.891950
C4    C     C_R   0.610929 0.500160 0.499967 0.891952
C5    C     C_R   0.297006 0.552378 0.363086 -0.207279
C6    C     C_R   0.702999 0.447703 0.636920 -0.207264
C7    C     C_R   0.297684 0.447498 0.639566 -0.223789
C8    C     C_R   0.702311 0.552552 0.360409 -0.223812
C9    C     C_R   0.327017 0.499662 0.500608 -0.118673
C10   C     C_R   0.672983 0.500384 0.499388 -0.118665
C11   C     C_R   0.880372 0.625453 0.547061 0.505529
C12   C     C_R   0.499999 0.781988 0.499917 0.942291
C13   C     C_R   0.119628 0.374714 0.452923 0.505534
C14   C     C_R   0.880886 0.373678 0.445408 0.502161
C15   C     C_R   0.119118 0.626496 0.554565 0.502161
C16   C     C_R   0.940424 0.371014 0.446636 -0.017026
C17   C     C_R   0.059578 0.629163 0.553338 -0.017029
C18   C     C_R   0.939898 0.628719 0.549305 -0.018447
C19   C     C_R   0.060103 0.371452 0.450675 -0.018439
C20   C     C_R   0.970045 0.499974 0.498983 -0.020413
C21   C     C_R   0.029957 0.500199 0.500994 -0.020412
C22   C     C_R   0.970839 0.243162 0.397349 -0.164660
C23   C     C_1   0.500000 0.065215 0.500119 -0.184317
C24   C     C_R   0.029163 0.757015 0.602621 -0.164662
C25   C     C_R   0.969787 0.756807 0.600583 -0.164707
C26   C     C_R   0.030214 0.243365 0.399393 -0.164715
C27   C     C_3   0.205532 0.615097 0.217318 -0.860964
C28   C     C_3   0.794480 0.385111 0.782706 -0.861067
C29   C     C_3   0.208771 0.386896 0.793732 -0.832503
C30   C     C_3   0.791216 0.613274 0.206245 -0.832301
C31   C     C_1   0.500000 0.934784 0.499881 -0.184315
C32   C     C_R   0.237557 0.555044 0.364296 0.193312
C33   C     C_R   0.762449 0.445095 0.635711 0.193352
C34   C     C_R   0.238320 0.446929 0.642454 0.193054
C35   C     C_R   0.761675 0.553179 0.357529 0.193056
C36   C     C_R   0.208253 0.501555 0.504227 0.317911
H1    H     H_    0.948918 0.142713 0.357243 0.195133
H2    H     H_    0.179622 0.713555 0.254462 0.266850
H3    H     H_    0.234911 0.651214 0.117365 0.238526
H4    H     H_    0.820430 0.286718 0.745586 0.266823
H5    H     H_    0.823164 0.473104 0.832479 0.244922
H6    H     H_    0.765103 0.348937 0.882614 0.238553
H7    H     H_    0.161723 0.397998 0.787913 0.239052
H8    H     H_    0.219335 0.266407 0.809304 0.257205
H9    H     H_    0.223892 0.448807 0.903834 0.237110
H10   H     H_    0.780599 0.733759 0.190640 0.257139
H11   H     H_    0.838271 0.602315 0.212104 0.239049
H12   H     H_    0.051085 0.857467 0.642725 0.195125
H13   H     H_    0.776129 0.551301 0.096112 0.237076
H14   H     H_    0.947452 0.857081 0.639251 0.194678
H15   H     H_    0.052548 0.143091 0.360724 0.194680
H16   H     H_    0.319930 0.593516 0.256099 0.169406
H17   H     H_    0.680079 0.406558 0.743922 0.169397
H18   H     H_    0.321000 0.405575 0.745577 0.176300
H19   H     H_    0.678992 0.594452 0.254385 0.176296
H20   H     H_    0.176816 0.527149 0.167563 0.244916
N1    N     N_R   0.852507 0.499279 0.495847 -0.353403
N2    N     N_R   0.147495 0.500890 0.504135 -0.353404
N3    N     N_1   0.500000 0.500000 0.073640 -0.034214
N4    N     N_1   0.500000 0.500000 0.926360 -0.034213
O1    O     O_R   0.500000 0.285350 0.636850 -0.616431
O2    O     O_2   0.149629 0.253370 0.404481 -0.542575
O3    O     O_2   0.851387 0.252259 0.394635 -0.544395
O4    O     O_2   0.148621 0.747904 0.605343 -0.544404
O5    O     O_R   0.500000 0.714650 0.363150 -0.616435
O6    O     O_R   0.500000 0.714650 0.636850 -0.612593
O7    O     O_R   0.500000 0.285350 0.363150 -0.612591
O8    O     O_R   0.416160 0.500000 0.636910 -0.621780
O9    O     O_R   0.583840 0.500000 0.363090 -0.621780
O10   O     O_R   0.583840 0.500000 0.636910 -0.621583
O11   O     O_R   0.416160 0.500000 0.363090 -0.621580
O12   O     O_2   0.850370 0.746790 0.595510 -0.542574
Zn1   Zn    Zn3+2 0.500000 0.500000 0.682780 0.994367
Zn2   Zn    Zn3+2 0.500000 0.500000 0.317220 0.994366

loop_
_geom_bond_atom_site_label_1
_geom_bond_atom_site_label_2
_ccdc_geom_bond_type
C2    C35   A    
C6    C10   A    
O11   Zn2   S    
C3    O11   A    
C15   O4    S    
C19   C26   A    
C11   C18   A    
C5    C9    A    
C3    C9    S    
C13   O2    S    
C28   H5    S    
C12   O5    A    
N4    Zn1   S    
C34   C36   A    
C3    O8    A    
C6    C33   A    
C16   C20   A    
C5    C32   A    
O10   Zn1   S    
C4    O10   A    
C27   C32   S    
C2    N1    S    
O9    Zn2   S    
C5    H16   S    
O7    Zn2   S    
C11   N1    A    
C26   H15   S    
C29   H7    S    
O6    Zn1   S    
N3    Zn2   S    
C18   C25   A    
C30   C35   S    
C14   O3    S    
C32   C36   A    
C8    H19   S    
C28   H6    S    
C4    O9    A    
C1    O7    A    
C30   H13   S    
C28   C33   S    
C1    C23   S    
C11   O12   S    
C36   N2    S    
C29   H8    S    
C12   C31   S    
C15   N2    A    
C14   C16   A    
C24   C25   A    
C17   C24   A    
C28   H4    S    
C6    H17   S    
C4    C10   S    
C24   H12   S    
C7    C9    A    
C30   H11   S    
N3    N4    T    
C1    O1    A    
C20   C21   A    
C2    C33   A    
C18   C20   A    
C8    C10   A    
C22   C26   A    
C7    C34   A    
C29   H9    S    
C15   C17   A    
C14   N1    A    
C13   C19   A    
C27   H20   S    
C16   C22   A    
C13   N2    A    
C27   H2    S    
C7    H18   S    
O1    Zn1   S    
O8    Zn1   S    
C25   H14   S    
C22   H1    S    
C12   O6    A    
C29   C34   S    
C30   H10   S    
C17   C21   A    
O5    Zn2   S    
C27   H3    S    
C19   C21   A    
C8    C35   A    
C23   C31   T    
