data_mof_unit_52363.cif
_audit_creation_date              2012-12-11T16:56:11-0500
_audit_creation_method            fapswitch 2.2
_symmetry_space_group_name_H-M    P1
_symmetry_Int_Tables_number       1
_space_group_crystal_system       triclinic
_cell_length_a                    6.968619
_cell_length_b                    14.549991
_cell_length_c                    16.181653
_cell_angle_alpha                 90.472724
_cell_angle_beta                  90.234242
_cell_angle_gamma                 89.809835
_cell_volume                      1640.63349608

loop_
_atom_site_label
_atom_site_type_symbol
_atom_type_description
_atom_site_fract_x
_atom_site_fract_y
_atom_site_fract_z
_atom_type_partial_charge
O1    O     O_R   0.505830 0.583360 0.413880 -0.534839
O2    O     O_R   0.175830 0.595460 0.585520 -0.539290
O3    O     O_R   0.005520 0.416640 0.586120 -0.542767
C1    C     C_R   0.344723 0.617498 0.614322 0.712745
O4    O     O_R   0.176120 0.594390 0.414490 -0.535355
O5    O     O_R   0.005810 0.415570 0.413870 -0.544113
C2    C     C_R   0.344752 0.617054 0.386543 0.694354
O6    O     O_R   0.505540 0.584430 0.586130 -0.533494
O7    O     O_3   0.339200 0.441330 0.500000 -0.376388
V1    V     V_3+5 0.064350 0.510880 0.500000 1.459233
O8    O     O_R   0.676100 0.404540 0.414480 -0.543859
C3    C     C_R   0.845125 0.382651 0.385725 0.686092
O9    O     O_R   0.675810 0.405610 0.585510 -0.541901
C4    C     C_R   0.845762 0.383353 0.613301 0.749572
V2    V     V_3+5 0.564340 0.489120 0.500000 1.447423
O10   O     O_3   0.839360 0.558670 0.500000 -0.344790
C5    C     C_2   0.732079 0.186587 0.765451 0.015283
C6    C     C_2   0.878532 0.180496 0.821253 -0.343284
H1    H     H_    0.990818 0.231921 0.821871 0.140980
C7    C     C_2   0.713993 0.265340 0.707081 -0.177812
C8    C     C_2   0.864488 0.312340 0.677766 -0.323364
H2    H     H_    0.572171 0.280169 0.682311 0.169694
H3    H     H_    0.008881 0.295087 0.697773 0.157162
C9    C     C_R   0.730361 0.179777 0.244421 0.080705
C10   C     C_R   0.882648 0.179989 0.187955 -0.108676
C11   C     C_R   0.032691 0.242726 0.202822 -0.162625
H4    H     H_    0.153975 0.245049 0.161513 0.124217
C12   C     C_R   0.021612 0.307498 0.267841 -0.177490
H5    H     H_    0.135491 0.357303 0.274902 0.124086
C13   C     C_R   0.859284 0.312069 0.319479 -0.099844
C14   C     C_R   0.718455 0.244853 0.308000 0.099531
C15   C     C_3   0.506981 0.255516 0.297694 -0.440269
C16   C     C_3   0.519334 0.183667 0.228854 -0.230563
H6    H     H_    0.468158 0.324970 0.274828 0.158562
H7    H     H_    0.427457 0.233553 0.353627 0.183209
H8    H     H_    0.482381 0.209637 0.166383 0.124341
C17   C     C_R   0.501820 0.678667 0.743999 0.115560
C18   C     C_R   0.352972 0.682405 0.685569 -0.108503
C19   C     C_R   0.204284 0.746253 0.700695 -0.182532
H9    H     H_    0.083817 0.750778 0.658572 0.142988
C20   C     C_R   0.215859 0.809267 0.767346 -0.123331
H10   H     H_    0.103907 0.860444 0.774185 0.142038
C21   C     C_R   0.375579 0.809875 0.821419 -0.124171
C22   C     C_R   0.512361 0.740219 0.810269 0.076818
C23   C     C_3   0.725913 0.744475 0.806003 -0.203061
C24   C     C_3   0.714360 0.677283 0.733072 -0.451914
H11   H     H_    0.778060 0.813849 0.788775 0.135942
H12   H     H_    0.776842 0.608159 0.744848 0.185550
H13   H     H_    0.757345 0.708254 0.673432 0.178485
C25   C     C_R   0.519475 0.691035 0.269073 0.037997
C26   C     C_R   0.354031 0.683116 0.317036 -0.105365
C27   C     C_R   0.200615 0.741765 0.297861 -0.155999
H14   H     H_    0.077929 0.743305 0.337292 0.158400
C28   C     C_R   0.211703 0.804575 0.232360 -0.129936
H15   H     H_    0.094130 0.851933 0.222734 0.135011
C29   C     C_R   0.378121 0.811034 0.183676 -0.062123
C30   C     C_R   0.530087 0.751247 0.202073 0.094943
C31   C     C_3   0.731653 0.776803 0.222483 -0.462905
C32   C     C_3   0.716093 0.715869 0.298067 -0.187533
H16   H     H_    0.748221 0.851500 0.235915 0.193950
H17   H     H_    0.832463 0.749212 0.175287 0.169216
H18   H     H_    0.813836 0.655277 0.296990 0.114409
O11   O     O_R   0.229930 0.912420 0.917160 -0.519781
O12   O     O_R   0.559420 0.902500 0.088780 -0.543697
O13   O     O_R   0.729660 0.081330 0.089380 -0.548255
C33   C     C_R   0.390759 0.880387 0.117110 0.717876
O14   O     O_R   0.559650 0.901420 0.917750 -0.536225
O15   O     O_R   0.729880 0.080250 0.917130 -0.532564
C34   C     C_R   0.390366 0.879213 0.889068 0.722992
O16   O     O_R   0.229700 0.913500 0.089410 -0.538670
O17   O     O_3   0.396250 0.055540 0.003280 -0.380876
V3    V     V_3+5 0.671130 0.986010 0.003260 1.481784
O18   O     O_R   0.059600 0.091310 0.917720 -0.538092
C35   C     C_R   0.890222 0.110950 0.887760 0.776310
O19   O     O_R   0.059370 0.092380 0.088750 -0.546058
C36   C     C_R   0.890634 0.114240 0.117553 0.677946
V4    V     V_3+5 0.171120 0.007820 0.003230 1.484071
O20   O     O_3   0.896130 0.938240 0.003240 -0.352571
C37   C     C_2   0.585135 0.113326 0.756829 0.778849
O21   O     O_2   0.417217 0.133770 0.744230 -0.575619
O22   O     O_R   0.640568 0.020911 0.758677 -0.667326
H19   H     H_    0.529451 0.977787 0.747433 0.276127
C38   C     C_1   0.424603 0.096877 0.250028 0.369263
N1    N     N_1   0.349561 0.028863 0.267119 -0.356316
C39   C     C_2   0.819754 0.705158 0.881970 0.801782
O23   O     O_2   0.944731 0.748834 0.917835 -0.557382
O24   O     O_R   0.763159 0.619476 0.911778 -0.666017
H20   H     H_    0.836529 0.601075 0.963315 0.285801
C40   C     C_2   0.714240 0.769518 0.378854 0.787867
O25   O     O_2   0.805501 0.741338 0.438140 -0.561047
O26   O     O_R   0.605705 0.850268 0.386080 -0.648263
H21   H     H_    0.615085 0.879096 0.443193 0.297692

loop_
_geom_bond_atom_site_label_1
_geom_bond_atom_site_label_2
_ccdc_geom_bond_type
O24   H20   S    
C20   H10   S    
O2    C1    A    
C1    O6    A    
C5    C7    S    
O22   H19   S    
C19   C20   A    
C33   O16   A    
V4    O20   S    
C22   C23   S    
C24   H13   S    
C11   H4    S    
O13   C36   A    
C25   C32   S    
C4    C8    S    
C12   H5    S    
C6    H1    S    
O5    C3    A    
C18   C19   A    
O15   C35   A    
V2    O10   S    
C5    C37   S    
C16   H8    S    
C29   C30   A    
O14   V3    S    
C32   C40   S    
V3    O20   S    
O8    V2    S    
C14   C15   S    
O1    V2    S    
C40   O26   S    
O7    V1    S    
C17   C24   S    
C31   H17   S    
C23   H11   S    
C6    C35   S    
O9    C4    A    
O16   V4    S    
C20   C21   A    
C27   C28   A    
C25   C26   A    
C24   H12   S    
C39   O24   S    
O18   C35   A    
C28   C29   A    
C26   C27   A    
C15   H7    S    
O11   C34   A    
C9    C10   A    
O26   H21   S    
O4    C2    A    
C10   C11   A    
C39   O23   D    
O14   C34   A    
O12   C33   A    
C23   C39   S    
O19   C36   A    
C17   C18   A    
C16   C38   S    
C38   N1    T    
O15   V3    S    
C5    C6    D    
O19   V4    S    
O3    C4    A    
C7    H2    S    
O6    V2    S    
O9    V2    S    
C21   C22   A    
O2    V1    S    
O17   V4    S    
C27   H14   S    
C37   O22   S    
O11   V4    S    
C28   H15   S    
C32   H18   S    
C3    C13   S    
O1    C2    A    
C25   C30   A    
C1    C18   S    
O5    V1    S    
O8    C3    A    
O13   V3    S    
C11   C12   A    
C9    C16   S    
C10   C36   S    
C15   C16   S    
C17   C22   A    
C8    H3    S    
C31   C32   S    
C9    C14   A    
C2    C26   S    
O17   V3    S    
O3    V1    S    
V1    O10   S    
C30   C31   S    
C13   C14   A    
C29   C33   S    
C12   C13   A    
O12   V3    S    
O7    V2    S    
C37   O21   D    
C19   H9    S    
C23   C24   S    
O4    V1    S    
C7    C8    D    
C21   C34   S    
O18   V4    S    
C40   O25   D    
C31   H16   S    
C15   H6    S    
