data_mof_unit_28473.cif
_audit_creation_date              2012-12-10T18:47:08-0500
_audit_creation_method            fapswitch 2.2
_symmetry_space_group_name_H-M    P1
_symmetry_Int_Tables_number       1
_space_group_crystal_system       triclinic
_cell_length_a                    10.768484
_cell_length_b                    9.904552
_cell_length_c                    14.849731
_cell_angle_alpha                 89.740483
_cell_angle_beta                  89.539413
_cell_angle_gamma                 90.081655
_cell_volume                      1583.75879154

loop_
_atom_site_label
_atom_site_type_symbol
_atom_type_description
_atom_site_fract_x
_atom_site_fract_y
_atom_site_fract_z
_atom_type_partial_charge
C1    C     C_R   0.259982 0.500081 0.500718 0.847995
C2    C     C_R   0.127374 0.500674 0.501494 -0.010290
C3    C     C_R   0.565340 0.072346 0.563432 0.169599
C4    C     C_R   0.437361 0.928162 0.435077 0.166192
C5    C     C_R   0.434103 0.073109 0.436886 0.172037
C6    C     C_R   0.562775 0.927361 0.564908 0.162895
C7    C     C_R   0.502931 0.500122 0.327251 0.880321
C8    C     C_R   0.496927 0.499713 0.672733 0.882832
C9    C     C_R   0.605793 0.470225 0.811758 -0.244476
C10   C     C_R   0.393054 0.524760 0.188322 -0.249378
C11   C     C_R   0.496526 0.499930 0.767954 -0.085625
C12   C     C_R   0.740019 0.500206 0.499422 0.849220
C13   C     C_R   0.503648 0.500575 0.231986 -0.069035
C14   C     C_R   0.390578 0.540477 0.813794 -0.239493
C15   C     C_R   0.614912 0.482802 0.185945 -0.237317
C16   C     C_R   0.391390 0.546532 0.907385 0.067401
C17   C     C_R   0.616708 0.486992 0.092211 0.082355
C18   C     C_R   0.502605 0.515063 0.953088 -0.046359
C19   C     C_R   0.503768 0.512701 0.046711 -0.034652
C20   C     C_R   0.612543 0.485360 0.904536 0.081482
C21   C     C_R   0.391583 0.534661 0.095143 0.051584
C22   C     C_R   0.283279 0.581511 0.955699 0.171586
C23   C     C_R   0.281639 0.569909 0.049830 0.123314
C24   C     C_R   0.729078 0.470598 0.043653 0.129182
C25   C     C_3   0.177237 0.765232 0.882093 -0.812599
C26   C     C_3   0.878000 0.321218 0.113111 -0.830347
C27   C     C_3   0.150590 0.729874 0.131343 -0.805362
C28   C     C_3   0.875258 0.593633 0.855372 -0.843506
C29   C     C_3   0.763250 0.134482 0.633851 -0.790370
C30   C     C_3   0.429208 0.865986 0.277015 -0.743965
C31   C     C_3   0.235063 0.131368 0.365779 -0.803988
C32   C     C_3   0.577497 0.858951 0.722470 -0.734845
C33   C     C_R   0.727092 0.472645 0.948719 0.143706
C34   C     C_R   0.063389 0.378024 0.501101 -0.207713
C35   C     C_R   0.936366 0.623924 0.501141 -0.194729
C36   C     C_R   0.936298 0.378173 0.497382 -0.208300
C37   C     C_R   0.063939 0.623861 0.501610 -0.199684
C38   C     C_R   0.872625 0.500852 0.498978 -0.007684
H1    H     H_    0.686013 0.439394 0.772306 0.173645
H2    H     H_    0.174957 0.831630 0.942110 0.249250
H3    H     H_    0.094850 0.787542 0.840192 0.238573
H4    H     H_    0.261744 0.788275 0.841446 0.246924
H5    H     H_    0.915763 0.514061 0.063682 0.240251
H6    H     H_    0.896680 0.262348 0.050994 0.236125
H7    H     H_    0.802854 0.270907 0.152509 0.254081
H8    H     H_    0.963268 0.322249 0.154651 0.239262
H9    H     H_    0.140022 0.518414 0.141058 0.222509
H10   H     H_    0.057173 0.765830 0.111426 0.246859
H11   H     H_    0.221270 0.801336 0.103899 0.246020
H12   H     H_    0.309879 0.539802 0.228504 0.145865
H13   H     H_    0.156167 0.730216 0.206014 0.232139
H14   H     H_    0.912394 0.416166 0.925994 0.233083
H15   H     H_    0.958398 0.577899 0.812059 0.258689
H16   H     H_    0.895570 0.669784 0.907951 0.242304
H17   H     H_    0.800859 0.634209 0.811837 0.252017
H18   H     H_    0.584662 0.154947 0.691518 0.228862
H19   H     H_    0.790464 0.070145 0.691787 0.220327
H20   H     H_    0.803969 0.236122 0.644089 0.252358
H21   H     H_    0.801778 0.090904 0.570694 0.220423
H22   H     H_    0.280243 0.861326 0.368582 0.213310
H23   H     H_    0.307566 0.563442 0.775857 0.164661
H24   H     H_    0.405634 0.963476 0.244978 0.208998
H25   H     H_    0.390324 0.785868 0.234005 0.247055
H26   H     H_    0.531744 0.853815 0.279097 0.248361
H27   H     H_    0.413945 0.163987 0.310651 0.231001
H28   H     H_    0.211010 0.067479 0.307220 0.222277
H29   H     H_    0.191728 0.231663 0.355314 0.248686
H30   H     H_    0.196453 0.085273 0.428423 0.223136
H31   H     H_    0.723108 0.861535 0.628094 0.213508
H32   H     H_    0.608389 0.951398 0.757420 0.208882
H33   H     H_    0.612144 0.771364 0.761625 0.241224
H34   H     H_    0.699107 0.466839 0.224043 0.163896
H35   H     H_    0.474321 0.854588 0.721875 0.241088
H36   H     H_    0.110996 0.282108 0.503338 0.164295
H37   H     H_    0.888189 0.719879 0.502186 0.150037
H38   H     H_    0.888445 0.282425 0.493489 0.162530
H39   H     H_    0.112357 0.719821 0.502309 0.150815
H40   H     H_    0.093552 0.598036 0.941234 0.254590
N1    N     N_R   0.500000 0.857200 0.500000 -0.137261
N2    N     N_2   0.627858 0.853288 0.631748 -0.243071
N3    N     N_R   0.500000 0.142800 0.500000 -0.139366
N4    N     N_2   0.175103 0.624676 0.909358 -0.310463
N5    N     N_2   0.843491 0.458365 0.090660 -0.313430
N6    N     N_2   0.168676 0.594175 0.097776 -0.322891
N7    N     N_2   0.839289 0.466619 0.896952 -0.314189
N8    N     N_2   0.629516 0.146444 0.630284 -0.241230
N9    N     N_2   0.375651 0.854974 0.366588 -0.243904
N10   N     N_2   0.368257 0.148170 0.370974 -0.239946
O1    O     O_R   0.316770 0.614620 0.499990 -0.624141
O2    O     O_R   0.683230 0.385380 0.500010 -0.604881
O3    O     O_R   0.683230 0.614620 0.500010 -0.621462
O4    O     O_R   0.316770 0.385380 0.499990 -0.602104
O5    O     O_R   0.499980 0.614680 0.367850 -0.585062
O6    O     O_R   0.500020 0.385320 0.632150 -0.611155
O7    O     O_R   0.500020 0.614680 0.632150 -0.587179
O8    O     O_R   0.499980 0.385320 0.367850 -0.616403
Zn1   Zn    Zn3+2 0.500000 0.653120 0.500000 0.968130
Zn2   Zn    Zn3+2 0.500000 0.346880 0.500000 0.970108

loop_
_geom_bond_atom_site_label_1
_geom_bond_atom_site_label_2
_ccdc_geom_bond_type
C27   H10   S    
C31   H28   S    
C26   N5    S    
C30   H26   S    
H5    N5    S    
C12   O3    A    
C3    C6    A    
O4    Zn2   S    
C4    N9    S    
C31   H29   S    
C15   H34   S    
C35   H37   S    
C22   N4    S    
C12   O2    A    
H14   N7    S    
C19   C21   A    
C24   N5    S    
C18   C19   A    
C25   H2    S    
C11   C14   A    
N3    Zn2   S    
O6    Zn2   S    
C9    H1    S    
C1    C2    S    
C33   N7    S    
C36   H38   S    
C26   H7    S    
C5    N10   S    
H18   N8    S    
C21   C23   A    
H22   N9    S    
C29   H21   S    
O8    Zn2   S    
C3    N3    A    
C1    O1    A    
C18   C20   A    
C2    C34   A    
C30   H25   S    
C3    N8    S    
C8    O7    A    
C28   H17   S    
C27   H13   S    
C32   H33   S    
C10   C21   A    
C31   H30   S    
C7    O5    A    
C17   C24   A    
C23   N6    S    
C26   H6    S    
C35   C38   A    
C8    O6    A    
C4    N1    A    
C25   H3    S    
C32   H35   S    
C28   H16   S    
C32   H32   S    
C14   H23   S    
C37   H39   S    
O1    Zn1   S    
C7    O8    A    
C32   N2    S    
C5    N3    A    
H40   N4    S    
C9    C20   A    
C6    N2    S    
H9    N6    S    
O3    Zn1   S    
C9    C11   A    
C29   N8    S    
C34   H36   S    
C20   C33   A    
C29   H19   S    
C1    O4    A    
C13   C15   A    
C25   N4    S    
C14   C16   A    
C10   H12   S    
O5    Zn1   S    
H27   N10   S    
C15   C17   A    
C27   N6    S    
C16   C22   A    
C31   N10   S    
C35   C37   A    
N1    Zn1   S    
C4    C5    A    
C10   C13   A    
C25   H4    S    
C28   H15   S    
O7    Zn1   S    
C24   C33   A    
C30   H24   S    
C2    C37   A    
C6    N1    A    
C8    C11   S    
C36   C38   A    
C17   C19   A    
C34   C36   A    
C12   C38   S    
C26   H8    S    
C7    C13   S    
C29   H20   S    
C16   C18   A    
C28   N7    S    
C22   C23   A    
H31   N2    S    
C30   N9    S    
O2    Zn2   S    
C27   H11   S    
