data_mof_unit_54735.cif
_audit_creation_date              2013-03-05T15:45:02-0500
_audit_creation_method            fapswitch 2.2
_symmetry_space_group_name_H-M    P1
_symmetry_Int_Tables_number       1
_space_group_crystal_system       triclinic
_cell_length_a                    9.965534
_cell_length_b                    11.075448
_cell_length_c                    12.978951
_cell_angle_alpha                 87.764979
_cell_angle_beta                  75.050417
_cell_angle_gamma                 110.64835
_cell_volume                      1281.67701585

loop_
_atom_site_label
_atom_site_type_symbol
_atom_site_description
_atom_site_fract_x
_atom_site_fract_y
_atom_site_fract_z
_atom_type_partial_charge
O1    O     O_R   0.578710 0.332530 0.490040 -0.526455
O2    O     O_R   0.421290 0.667470 0.509960 -0.510112
O3    O     O_R   0.329810 0.295070 0.521560 -0.555003
O4    O     O_R   0.670190 0.704930 0.478440 -0.603936
C1    C     C_R   0.439749 0.254618 0.510574 0.895822
C2    C     C_R   0.559639 0.746024 0.492829 0.873597
O5    O     O_R   0.604230 0.515670 0.637800 -0.547895
O6    O     O_R   0.395770 0.484330 0.362200 -0.494052
O7    O     O_R   0.355330 0.478200 0.669330 -0.615218
O8    O     O_R   0.644670 0.521800 0.330670 -0.606348
C3    C     C_R   0.471406 0.493015 0.702740 0.747048
C4    C     C_R   0.528349 0.507009 0.297544 0.853478
Cu1   Cu    Cu3+1 0.647370 0.522180 0.481340 1.059806
Cu2   Cu    Cu3+1 0.352630 0.477820 0.518660 1.102266
C5    C     C_R   0.547345 0.520676 0.182150 -0.145186
C6    C     C_R   0.452206 0.482631 0.818734 -0.170098
C7    C     C_R   0.328558 0.361150 0.998862 0.313030
C8    C     C_R   0.669076 0.648313 0.004030 0.353484
C9    C     C_R   0.333969 0.377087 0.889926 -0.140182
C10   C     C_R   0.657613 0.633476 0.114459 -0.177510
C11   C     C_R   0.549763 0.582095 0.858562 -0.041058
C12   C     C_R   0.455751 0.420135 0.139472 -0.055260
C13   C     C_R   0.555763 0.560471 0.965279 -0.000389
C14   C     C_R   0.446578 0.446005 0.034758 -0.083889
C15   C     C_2   0.407069 0.118627 0.544485 -0.197705
C16   C     C_2   0.588058 0.886309 0.481643 -0.281693
C17   C     C_2   0.469397 0.048819 0.478402 0.193631
C18   C     C_2   0.470257 0.923210 0.522442 0.182602
N1    N     N_2   0.131210 0.444490 0.546730 -0.315579
N2    N     N_2   0.868790 0.555510 0.453270 -0.329985
C19   C     C_2   0.081390 0.498702 0.479782 0.388884
C20   C     C_2   0.916570 0.476973 0.499951 0.385935
C21   C     C_2   0.391924 0.283053 0.195465 0.557070
H1    H     H_    0.399204 0.205368 0.148588 0.120849
O9    O     O_2   0.328018 0.254620 0.291887 -0.463173
C22   C     C_2   0.625250 0.713367 0.792359 0.524540
H2    H     H_    0.694245 0.726378 0.709999 0.102695
O10   O     O_2   0.604767 0.807530 0.828727 -0.448912
C23   C     C_2   0.762129 0.734002 0.159771 0.547988
H3    H     H_    0.720234 0.760942 0.237597 0.065206
O11   O     O_2   0.896145 0.783547 0.113109 -0.412306
C24   C     C_2   0.213829 0.285871 0.850716 0.536745
H4    H     H_    0.240774 0.260579 0.770641 0.061448
O12   O     O_2   0.082814 0.242892 0.905353 -0.410178
N3    N     N_R   0.199946 0.262190 0.073540 0.134483
O13   O     O_R   0.113993 0.294945 0.151656 -0.226891
O14   O     O_R   0.168645 0.139503 0.063662 -0.261415
N4    N     N_R   0.798867 0.748370 0.931525 0.152371
O15   O     O_R   0.826549 0.870900 0.940393 -0.204459
O16   O     O_R   0.891544 0.716494 0.857784 -0.246763
N5    N     N_R   0.339935 0.837134 0.606000 0.150637
O17   O     O_R   0.355510 0.784193 0.691295 -0.315763
O18   O     O_R   0.205897 0.817118 0.599557 -0.202999
N6    N     N_R   0.521180 0.086339 0.362696 0.117630
O19   O     O_R   0.607121 0.205547 0.318941 -0.333238
O20   O     O_R   0.494814 0.996939 0.300325 -0.277911
C25   C     C_2   0.737418 0.980923 0.415021 0.495844
H5    H     H_    0.761250 0.084498 0.406371 0.171027
O21   O     O_2   0.836194 0.944192 0.368891 -0.479870
C26   C     C_2   0.337843 0.075321 0.661568 0.389650
H6    H     H_    0.403426 0.058329 0.711495 0.130760
O22   O     O_2   0.205072 0.053474 0.701680 -0.431476
N7    N     N_R   0.811094 0.352641 0.558389 0.116093
O23   O     O_R   0.831917 0.247579 0.530809 -0.400826
O24   O     O_R   0.721080 0.345665 0.652789 -0.332825
N8    N     N_R   0.178195 0.560446 0.374133 0.118709
O25   O     O_R   0.141289 0.515781 0.290020 -0.310085
O26   O     O_R   0.284965 0.674041 0.361376 -0.288438
C27   C     C_2   0.965241 0.685189 0.404930 0.678635
H7    H     H_    0.952405 0.726254 0.332543 0.103862
O27   O     O_2   0.052687 0.754677 0.448554 -0.460606
C28   C     C_2   0.049020 0.409321 0.658034 0.677267
H8    H     H_    0.046641 0.323526 0.702678 0.077905
O28   O     O_2   0.990136 0.479133 0.705656 -0.475312

loop_
_geom_bond_atom_site_label_1
_geom_bond_atom_site_label_2
_geom_bond_distance
_ccdc_geom_bond_type
C1    C15   1.447993 S    
C19   N8    1.434445 S    
N8    O26   1.300445 A    
O7    Cu2   1.962800 S    
C9    C24   1.488101 S    
C6    C11   1.405102 A    
C15   C26   1.477880 S    
C15   C17   1.354534 D    
C3    C6    1.462421 S    
C16   C18   1.363856 D    
C19   C20   1.522754 S    
C4    C5    1.455211 S    
O5    Cu1   1.957039 S    
O6    C4    1.300149 A    
N1    C28   1.424819 S    
N7    O24   1.299411 A    
C17   C18   1.486969 S    
C22   O10   1.221037 D    
N8    O25   1.301053 A    
C10   C23   1.489819 S    
C17   N6    1.447218 S    
N5    O17   1.302162 A    
N1    C19   1.324446 D    
C11   C22   1.488530 S    
O2    C2    1.299242 A    
Cu1   Cu2   2.707957 S    
C26   O22   1.220353 D    
N2    C20   1.322967 D    
O7    C3    1.297507 A    
C25   H5    1.081199 S    
C2    C16   1.471792 S    
O3    Cu2   1.953172 S    
C24   O12   1.221391 D    
C6    C9    1.411102 A    
O1    C1    1.297015 A    
O8    C4    1.297747 A    
C12   C14   1.410586 A    
N4    O16   1.301502 A    
N4    O15   1.302119 A    
C21   O9    1.219643 D    
C7    N3    1.438374 S    
O5    C3    1.303498 A    
C8    C10   1.406472 A    
C11   C13   1.416447 A    
C27   H7    1.084255 S    
O2    Cu2   1.954708 S    
C16   C25   1.492148 S    
N6    O20   1.301348 A    
C25   O21   1.220764 D    
C7    C14   1.421576 A    
O1    Cu1   1.954708 S    
C24   H4    1.078180 S    
Cu2   N1    2.034263 S    
C8    C13   1.425129 A    
Cu1   N2    2.034263 S    
C23   H3    1.085078 S    
N2    C27   1.423129 S    
C21   H1    1.085260 S    
N5    O18   1.300237 A    
C23   O11   1.221263 D    
C28   H8    1.083191 S    
C28   O28   1.222433 D    
O4    C2    1.307623 A    
N3    O14   1.302071 A    
O4    Cu1   1.953172 S    
C27   O27   1.219768 D    
C12   C21   1.494035 S    
N6    O19   1.300876 A    
C22   H2    1.084007 S    
O6    Cu2   1.957042 S    
C13   C14   1.426914 A    
C7    C9    1.402710 A    
C18   N5    1.446082 S    
N3    O13   1.301162 A    
C5    C10   1.410058 A    
C5    C12   1.404316 A    
N7    O23   1.299865 A    
C20   N7    1.436221 S    
C26   H6    1.085451 S    
O3    C1    1.300752 A    
O8    Cu1   1.962801 S    
C8    N4    1.437486 S    
