data_mof_unit_53699.cif
_audit_creation_date              2012-12-10T17:18:14-0500
_audit_creation_method            fapswitch 2.2
_symmetry_space_group_name_H-M    P1
_symmetry_Int_Tables_number       1
_space_group_crystal_system       triclinic
_cell_length_a                    10.196745
_cell_length_b                    10.868101
_cell_length_c                    14.905558
_cell_angle_alpha                 91.976762
_cell_angle_beta                  79.854852
_cell_angle_gamma                 96.164904
_cell_volume                      1616.38800281

loop_
_atom_site_label
_atom_site_type_symbol
_atom_type_description
_atom_site_fract_x
_atom_site_fract_y
_atom_site_fract_z
_atom_type_partial_charge
C1    C     C_R   0.556906 0.732525 0.499449 0.870392
C2    C     C_2   0.073290 0.492106 0.491560 0.012847
C3    C     C_R   0.499367 0.501474 0.672889 0.905517
C4    C     C_R   0.500633 0.498525 0.327111 0.905521
C5    C     C_R   0.476951 0.387508 0.184878 0.061117
C6    C     C_R   0.523065 0.612482 0.815122 0.061094
C7    C     C_R   0.502139 0.499450 0.231128 -0.076310
C8    C     C_R   0.497856 0.500545 0.768871 -0.076299
C9    C     C_R   0.521250 0.613068 0.186501 0.116303
C10   C     C_R   0.478705 0.386925 0.813500 0.116292
C11   C     C_R   0.495059 0.613074 0.097108 0.037212
C12   C     C_R   0.443093 0.267474 0.500556 0.870405
C13   C     C_R   0.504899 0.386910 0.902893 0.037205
C14   C     C_R   0.500600 0.500288 0.046532 -0.071108
C15   C     C_R   0.499385 0.499699 0.953467 -0.071108
C16   C     C_R   0.505952 0.387739 0.089634 0.097712
C17   C     C_R   0.494048 0.612252 0.910364 0.097742
C18   C     C_R   0.457124 0.717803 0.058073 0.154907
C19   C     C_R   0.542809 0.282168 0.941928 0.154917
C20   C     C_3   0.399518 0.277211 0.236127 -0.850548
C21   C     C_3   0.600534 0.722767 0.763879 -0.850524
C22   C     C_3   0.580377 0.727642 0.231950 -0.827101
C23   C     C_R   0.456129 0.717417 0.963661 0.124046
C24   C     C_3   0.419532 0.272370 0.768056 -0.827077
C25   C     C_3   0.395788 0.820320 0.924173 -0.817818
C26   C     C_3   0.604166 0.179652 0.075827 -0.817752
C27   C     C_3   0.618203 0.091193 0.396864 -0.822936
C28   C     C_3   0.381810 0.908793 0.603178 -0.822915
C29   C     C_3   0.112560 0.632793 0.612609 -0.618457
C30   C     C_3   0.887437 0.367196 0.387397 -0.618460
C31   C     C_R   0.543846 0.282567 0.036336 0.124047
C32   C     C_2   0.593887 0.865081 0.503555 -0.043525
C33   C     C_2   0.406113 0.134915 0.496473 -0.043519
C34   C     C_2   0.496947 0.941770 0.525300 0.178236
C35   C     C_2   0.503055 0.058223 0.474737 0.178226
C36   C     C_2   0.926712 0.507903 0.508433 0.012842
H1    H     H_    0.113498 0.428426 0.438887 0.143964
H2    H     H_    0.505347 0.760286 0.288555 0.259156
H3    H     H_    0.668770 0.705890 0.260287 0.240338
H4    H     H_    0.494546 0.239693 0.711455 0.259142
H5    H     H_    0.382070 0.197091 0.817332 0.259182
H6    H     H_    0.331155 0.294155 0.739715 0.240359
H7    H     H_    0.293103 0.828621 0.961947 0.262056
H8    H     H_    0.458454 0.909122 0.929534 0.273295
H9    H     H_    0.383263 0.803289 0.852414 0.245791
H10   H     H_    0.706789 0.171218 0.037974 0.262082
H11   H     H_    0.616868 0.196784 0.147555 0.245750
H12   H     H_    0.886506 0.571591 0.561101 0.143970
H13   H     H_    0.541367 0.090882 0.070592 0.273256
H14   H     H_    0.638819 0.008825 0.352524 0.249604
H15   H     H_    0.595600 0.162184 0.352382 0.212119
H16   H     H_    0.708754 0.129353 0.423835 0.274110
H17   H     H_    0.361191 0.991160 0.647517 0.249627
H18   H     H_    0.291258 0.870625 0.576211 0.274097
H19   H     H_    0.404425 0.837805 0.647656 0.212124
H20   H     H_    0.199461 0.669419 0.644374 0.234219
H21   H     H_    0.069436 0.712495 0.588251 0.210677
H22   H     H_    0.038732 0.581323 0.665669 0.194440
H23   H     H_    0.370531 0.200910 0.189838 0.278336
H24   H     H_    0.800533 0.330560 0.355638 0.234214
H25   H     H_    0.961258 0.418660 0.334330 0.194444
H26   H     H_    0.930567 0.287501 0.411760 0.210672
H27   H     H_    0.458428 0.242684 0.283239 0.221216
H28   H     H_    0.305100 0.305583 0.276707 0.247687
H29   H     H_    0.629464 0.799091 0.810169 0.278355
H30   H     H_    0.694981 0.694385 0.723350 0.247701
H31   H     H_    0.541683 0.757266 0.716719 0.221207
H32   H     H_    0.617802 0.802934 0.182677 0.259177
I1    I     I_    0.363301 0.859614 0.143165 -0.412991
I2    I     I_    0.636532 0.140301 0.856838 -0.413019
I3    I     I_    0.196735 0.076125 0.507964 -0.324507
I4    I     I_    0.803256 0.923871 0.492128 -0.324491
N1    N     N_2   0.842700 0.448880 0.462930 -0.058761
N2    N     N_2   0.157300 0.551120 0.537070 -0.058761
O1    O     O_R   0.431060 0.692470 0.507460 -0.601744
O2    O     O_R   0.568940 0.307530 0.492540 -0.601744
O3    O     O_R   0.651120 0.659650 0.483670 -0.587289
O4    O     O_R   0.348880 0.340350 0.516330 -0.587289
O5    O     O_R   0.389960 0.516440 0.644050 -0.617353
O6    O     O_R   0.610040 0.483560 0.355950 -0.617342
O7    O     O_R   0.610030 0.483620 0.620260 -0.608133
O8    O     O_R   0.389970 0.516380 0.379740 -0.608143
Zn1   Zn    Zn3+2 0.353060 0.521920 0.515880 0.974034
Zn2   Zn    Zn3+2 0.646940 0.478080 0.484120 0.974040

loop_
_geom_bond_atom_site_label_1
_geom_bond_atom_site_label_2
_ccdc_geom_bond_type
C11   C18   A    
C21   H30   S    
C1    O3    A    
N2    Zn1   S    
O6    Zn2   S    
C19   C31   A    
O2    Zn2   S    
C32   I4    S    
C5    C20   S    
C16   C31   A    
C17   C23   A    
C4    O6    A    
C30   H26   S    
C11   C14   A    
C9    C22   S    
C22   H2    S    
C24   H6    S    
C15   C17   A    
C34   C35   S    
C5    C16   A    
C33   C35   D    
O4    Zn1   S    
C30   H24   S    
C3    O7    A    
N1    Zn2   S    
C2    N2    D    
C27   H14   S    
C18   I1    S    
C28   C34   S    
C26   C31   S    
C21   H31   S    
C24   H5    S    
C25   H7    S    
C4    C7    S    
C25   H8    S    
C28   H19   S    
C27   H15   S    
C13   C19   A    
C18   C23   A    
C1    O1    A    
C3    C8    S    
C26   H13   S    
C5    C7    A    
C30   N1    S    
C28   H18   S    
C6    C8    A    
C29   N2    S    
O3    Zn2   S    
C27   C35   S    
C6    C21   S    
C1    C32   S    
C12   O4    A    
C32   C34   D    
C20   H28   S    
C20   H23   S    
C9    C11   A    
C22   H32   S    
C3    O5    A    
C26   H11   S    
C29   H21   S    
C12   O2    A    
C14   C16   A    
C25   H9    S    
O7    Zn2   S    
C27   H16   S    
C2    C36   S    
C7    C9    A    
C6    C17   A    
C21   H29   S    
C10   C13   A    
C28   H17   S    
C29   H20   S    
C10   C24   S    
C20   H27   S    
C13   C15   A    
O5    Zn1   S    
C2    H1    S    
O1    Zn1   S    
C22   H3    S    
C24   H4    S    
C36   H12   S    
C23   C25   S    
C36   N1    D    
C26   H10   S    
C33   I3    S    
C4    O8    A    
C29   H22   S    
C8    C10   A    
O8    Zn1   S    
C30   H25   S    
C14   C15   A    
C19   I2    S    
C12   C33   S    
