data_mof_unit_53818.cif
_audit_creation_date              2012-12-11T15:35:27-0500
_audit_creation_method            fapswitch 2.2
_symmetry_space_group_name_H-M    P1
_symmetry_Int_Tables_number       1
_space_group_crystal_system       triclinic
_cell_length_a                    17.486699
_cell_length_b                    24.528793
_cell_length_c                    15.043225
_cell_angle_alpha                 89.587323
_cell_angle_beta                  125.755851
_cell_angle_gamma                 90.666908
_cell_volume                      5235.9040014

loop_
_atom_site_label
_atom_site_type_symbol
_atom_type_description
_atom_site_fract_x
_atom_site_fract_y
_atom_site_fract_z
_atom_type_partial_charge
C1    C     C_R   0.337158 0.147261 0.912445 0.232667
C2    C     C_R   0.603701 0.123404 0.914319 -0.133641
C3    C     C_R   0.255120 0.545214 0.305485 -0.146866
C4    C     C_3   0.288099 0.179848 0.806857 -0.396577
C5    C     C_3   0.328525 0.171052 0.743144 -0.957240
C6    C     C_3   0.307441 0.824189 0.796419 -0.397776
C7    C     C_3   0.206438 0.803680 0.744066 -0.930676
C8    C     C_3   0.788086 0.679847 0.806858 -0.396579
C9    C     C_3   0.828506 0.671055 0.743137 -0.957234
C10   C     C_3   0.807473 0.324192 0.796420 -0.397733
C11   C     C_3   0.706466 0.303680 0.744033 -0.930668
C12   C     C_R   0.097865 0.374669 0.910712 -0.124289
C13   C     C_R   0.103701 0.623404 0.914319 -0.133649
C14   C     C_R   0.434964 0.997628 0.632409 -0.006313
C15   C     C_R   0.934958 0.497633 0.632409 -0.006261
C16   C     C_R   0.801464 0.999458 0.367589 -0.005773
C17   C     C_R   0.301464 0.499458 0.367589 -0.005773
C18   C     C_R   0.691609 0.135605 0.008806 0.060722
C19   C     C_R   0.682236 0.857918 0.003502 0.041096
C20   C     C_R   0.191608 0.635605 0.008805 0.060728
C21   C     C_R   0.352622 0.847157 0.909724 0.232148
C22   C     C_R   0.182236 0.357918 0.003503 0.041108
C23   C     C_3   0.022453 0.946650 0.638114 -0.406775
C24   C     C_3   0.021993 0.048824 0.643621 -0.404655
C25   C     C_3   0.522453 0.446647 0.638111 -0.406765
C26   C     C_3   0.521994 0.548822 0.643620 -0.404658
C27   C     C_3   0.918543 0.946992 0.538370 -0.399386
C28   C     C_3   0.918587 0.049381 0.542436 -0.401350
C29   C     C_3   0.418544 0.446989 0.538365 -0.399391
C30   C     C_3   0.418586 0.549378 0.542440 -0.401348
C31   C     C_3   0.066141 0.001481 0.530321 -0.390409
C32   C     C_R   0.837150 0.647258 0.912445 0.232670
C33   C     C_3   0.566140 0.501480 0.530318 -0.390412
C34   C     C_3   0.073369 0.999014 0.638126 0.398478
C35   C     C_3   0.573369 0.499012 0.638123 0.398474
C36   C     C_3   0.897963 0.999236 0.468719 0.396888
C37   C     C_3   0.397963 0.499235 0.468718 0.396887
C38   C     C_R   0.444786 0.848221 0.092372 -0.227648
C39   C     C_R   0.431294 0.144859 0.096094 -0.188862
C40   C     C_R   0.944788 0.348220 0.092370 -0.227627
C41   C     C_R   0.931288 0.644856 0.096094 -0.188863
C42   C     C_3   0.963622 0.001113 0.431401 -0.393703
C43   C     C_R   0.852629 0.347156 0.909722 0.232145
C44   C     C_3   0.463621 0.501116 0.431399 -0.393698
C45   C     C_R   0.340690 0.718909 0.954818 -0.240890
C46   C     C_R   0.220378 0.215697 0.964422 -0.258421
C47   C     C_R   0.840669 0.218909 0.954783 -0.240866
C48   C     C_R   0.720367 0.715697 0.964419 -0.258425
C49   C     C_R   0.791291 0.173750 0.954680 0.018887
C50   C     C_R   0.675144 0.761960 0.960601 0.047107
C51   C     C_R   0.291313 0.673749 0.954713 0.018892
C52   C     C_R   0.175152 0.261958 0.960606 0.047109
C53   C     C_R   0.755183 0.176093 0.016853 0.128046
C54   C     C_R   0.690547 0.121974 0.096337 -0.146542
C55   C     C_R   0.727957 0.810594 0.004099 0.120947
C56   C     C_R   0.255171 0.676100 0.016850 0.128033
C57   C     C_R   0.227961 0.310595 0.004102 0.120945
C58   C     C_R   0.771299 0.221501 0.081465 -0.215468
C59   C     C_R   0.825046 0.812389 0.056145 -0.221709
C60   C     C_R   0.271244 0.721518 0.081423 -0.215472
C61   C     C_R   0.325047 0.312394 0.056141 -0.221713
C62   C     C_R   0.317050 0.766081 0.078614 -0.188208
C63   C     C_R   0.370010 0.265488 0.061043 -0.178677
C64   C     C_R   0.817103 0.266064 0.078653 -0.188216
C65   C     C_R   0.686274 0.872935 0.094144 -0.122098
C66   C     C_R   0.870006 0.765480 0.061050 -0.178682
C67   C     C_R   0.348469 0.765735 0.012282 0.179180
C68   C     C_R   0.316520 0.218070 0.013428 0.139519
C69   C     C_R   0.848481 0.265729 0.012281 0.179175
C70   C     C_R   0.816511 0.718065 0.013432 0.139528
C71   C     C_R   0.436088 0.946183 0.495147 -0.169682
C72   C     C_R   0.373867 0.037852 0.447676 -0.172536
C73   C     C_R   0.936047 0.446192 0.495124 -0.169632
C74   C     C_R   0.873884 0.537864 0.447690 -0.172566
C75   C     C_R   0.438223 0.945068 0.405762 -0.189215
C76   C     C_R   0.190546 0.621975 0.096337 -0.146546
C77   C     C_R   0.379552 0.037485 0.359494 -0.188509
C78   C     C_R   0.938195 0.445079 0.405746 -0.189227
C79   C     C_R   0.879574 0.537495 0.359512 -0.188502
C80   C     C_R   0.418060 0.992360 0.343423 0.154820
C81   C     C_R   0.918065 0.492369 0.343430 0.154804
C82   C     C_R   0.482967 0.043657 0.252852 -0.125447
C83   C     C_R   0.481105 0.952695 0.247131 -0.127587
C84   C     C_R   0.982974 0.543657 0.252858 -0.125450
C85   C     C_R   0.981117 0.452695 0.247148 -0.127578
C86   C     C_R   0.409682 0.993692 0.521307 0.155036
C87   C     C_R   0.186272 0.372934 0.094145 -0.122107
C88   C     C_R   0.909671 0.493701 0.521304 0.155049
C89   C     C_R   0.231293 0.954098 0.754358 -0.172422
C90   C     C_R   0.231182 0.044969 0.752936 -0.154144
C91   C     C_R   0.731293 0.454096 0.754354 -0.172458
C92   C     C_R   0.731181 0.544968 0.752934 -0.154145
C93   C     C_R   0.358441 0.170750 0.007748 -0.034609
C94   C     C_R   0.384313 0.816653 0.003061 0.007610
C95   C     C_R   0.858429 0.670745 0.007749 -0.034614
C96   C     C_R   0.884318 0.316650 0.003058 0.007593
C97   C     C_R   0.453321 0.996640 0.277414 0.033979
C98   C     C_R   0.597861 0.874669 0.910712 -0.124291
C99   C     C_R   0.953332 0.496642 0.277428 0.033986
C100  C     C_R   0.175025 0.999260 0.727654 -0.002179
C101  C     C_R   0.675025 0.499258 0.727650 -0.002161
C102  C     C_R   0.451320 0.043518 0.694569 0.024924
C103  C     C_R   0.447571 0.953694 0.696556 0.004953
C104  C     C_R   0.951321 0.543521 0.694573 0.024901
C105  C     C_R   0.947563 0.453695 0.696549 0.004911
C106  C     C_R   0.754829 0.954108 0.304067 -0.145843
C107  C     C_R   0.755120 0.045214 0.305485 -0.146869
C108  C     C_R   0.254828 0.454108 0.304067 -0.145846
H1    H     H_    0.027239 0.944127 0.715103 0.157342
H2    H     H_    0.906741 0.088035 0.497261 0.146727
H3    H     H_    0.325923 0.911018 0.614044 0.102293
H4    H     H_    0.941083 0.624712 0.709216 0.111505
H5    H     H_    0.844951 0.595065 0.602097 0.090274
H6    H     H_    0.917824 0.376054 0.715561 0.089296
H7    H     H_    0.825826 0.411069 0.614249 0.102310
H8    H     H_    0.405348 0.409612 0.489896 0.147604
H9    H     H_    0.406735 0.588033 0.497267 0.146725
H10   H     H_    0.102555 0.966048 0.524962 0.155789
H11   H     H_    0.101190 0.039110 0.527939 0.156189
H12   H     H_    0.602550 0.466046 0.524956 0.155788
H13   H     H_    0.601192 0.539108 0.527938 0.156189
H14   H     H_    0.950377 0.965088 0.379313 0.156600
H15   H     H_    0.949794 0.038248 0.381124 0.157071
H16   H     H_    0.450374 0.465093 0.379304 0.156602
H17   H     H_    0.025224 0.046890 0.719673 0.154262
H18   H     H_    0.449795 0.538254 0.381129 0.157072
H19   H     H_    0.369056 0.718091 0.907373 0.118582
H20   H     H_    0.180848 0.177986 0.929338 0.118997
H21   H     H_    0.869009 0.218095 0.907312 0.118589
H22   H     H_    0.680832 0.677988 0.929330 0.118999
H23   H     H_    0.742738 0.224235 0.128694 0.125671
H24   H     H_    0.865085 0.849823 0.091893 0.128335
H25   H     H_    0.242654 0.724256 0.128621 0.125680
H26   H     H_    0.365081 0.349830 0.091887 0.128337
H27   H     H_    0.323351 0.802097 0.123960 0.124027
H28   H     H_    0.527238 0.444125 0.715099 0.157344
H29   H     H_    0.445071 0.266274 0.098787 0.123433
H30   H     H_    0.823431 0.302074 0.124028 0.124022
H31   H     H_    0.945068 0.766264 0.098797 0.123428
H32   H     H_    0.465416 0.911418 0.549449 0.129508
H33   H     H_    0.346483 0.073907 0.459473 0.123908
H34   H     H_    0.965336 0.411421 0.549404 0.129487
H35   H     H_    0.846521 0.573921 0.459498 0.123922
H36   H     H_    0.489206 0.834679 0.176688 0.115797
H37   H     H_    0.472705 0.158377 0.180343 0.110536
H38   H     H_    0.989208 0.334679 0.176686 0.115790
H39   H     H_    0.525230 0.546890 0.719676 0.154261
H40   H     H_    0.972701 0.658375 0.180343 0.110533
H41   H     H_    0.467210 0.909024 0.395482 0.108000
H42   H     H_    0.359800 0.073531 0.308738 0.115239
H43   H     H_    0.967154 0.409034 0.395442 0.108003
H44   H     H_    0.859840 0.573540 0.308769 0.115246
H45   H     H_    0.476503 0.085017 0.271126 0.095343
H46   H     H_    0.469941 0.910021 0.253636 0.093607
H47   H     H_    0.976513 0.585018 0.271133 0.095339
H48   H     H_    0.969967 0.410022 0.253670 0.093591
H49   H     H_    0.208483 0.912671 0.740552 0.134131
H50   H     H_    0.871798 0.945164 0.565973 0.156311
H51   H     H_    0.207612 0.085906 0.733500 0.113402
H52   H     H_    0.708487 0.412669 0.740546 0.134138
H53   H     H_    0.707610 0.585904 0.733498 0.113405
H54   H     H_    0.767262 0.911913 0.329176 0.086062
H55   H     H_    0.768331 0.087034 0.332978 0.084537
H56   H     H_    0.267261 0.411913 0.329176 0.086063
H57   H     H_    0.268332 0.587034 0.332977 0.084536
H58   H     H_    0.746039 0.128879 0.181825 0.097581
H59   H     H_    0.739263 0.862154 0.178607 0.095716
H60   H     H_    0.246036 0.628883 0.181825 0.097587
H61   H     H_    0.870764 0.048948 0.568575 0.154132
H62   H     H_    0.239259 0.362154 0.178607 0.095719
H63   H     H_    0.571686 0.866303 0.827034 0.105688
H64   H     H_    0.583814 0.129999 0.832760 0.109238
H65   H     H_    0.071704 0.366310 0.827036 0.105622
H66   H     H_    0.083814 0.630000 0.832760 0.109240
H67   H     H_    0.054967 0.909359 0.632844 0.152649
H68   H     H_    0.055182 0.087947 0.645061 0.143226
H69   H     H_    0.554969 0.409357 0.632844 0.152643
H70   H     H_    0.555181 0.587945 0.645056 0.143229
H71   H     H_    0.404560 0.182190 0.794939 0.267392
H72   H     H_    0.371798 0.445158 0.565965 0.156309
H73   H     H_    0.317896 0.128040 0.717971 0.262808
H74   H     H_    0.291475 0.197012 0.668598 0.254874
H75   H     H_    0.211031 0.172056 0.755540 0.171596
H76   H     H_    0.296488 0.224143 0.825947 0.209035
H77   H     H_    0.205687 0.760711 0.766476 0.268004
H78   H     H_    0.169704 0.828593 0.769548 0.253946
H79   H     H_    0.165993 0.805564 0.653468 0.246704
H80   H     H_    0.306412 0.855883 0.743176 0.177731
H81   H     H_    0.351101 0.790762 0.799427 0.180351
H82   H     H_    0.904541 0.682194 0.794930 0.267389
H83   H     H_    0.370766 0.548941 0.568583 0.154134
H84   H     H_    0.817877 0.628044 0.717958 0.262803
H85   H     H_    0.791451 0.697018 0.668595 0.254874
H86   H     H_    0.711018 0.672054 0.755545 0.171596
H87   H     H_    0.796474 0.724141 0.825951 0.209037
H88   H     H_    0.705708 0.260704 0.766407 0.267983
H89   H     H_    0.669725 0.328581 0.769524 0.253947
H90   H     H_    0.666032 0.305583 0.653436 0.246699
H91   H     H_    0.806462 0.355890 0.743194 0.177726
H92   H     H_    0.851144 0.290769 0.799438 0.180339
H93   H     H_    0.842059 0.111969 0.916104 0.104823
H94   H     H_    0.905343 0.909614 0.489904 0.147602
H95   H     H_    0.740424 0.138756 0.808898 0.101293
H96   H     H_    0.567140 0.730516 0.959680 0.103386
H97   H     H_    0.539938 0.745770 0.834456 0.088016
H98   H     H_    0.342131 0.611963 0.916211 0.104822
H99   H     H_    0.240503 0.638736 0.808961 0.101299
H100  H     H_    0.067157 0.230509 0.959698 0.103391
H101  H     H_    0.039946 0.245762 0.834469 0.088010
H102  H     H_    0.441090 0.124713 0.709195 0.111501
H103  H     H_    0.344948 0.095062 0.602097 0.090274
H104  H     H_    0.417735 0.876090 0.715603 0.089315
N1    N     N_R   0.392140 0.102630 0.941800 -0.045902
N2    N     N_R   0.525160 0.972040 0.206160 -0.036087
N3    N     N_R   0.025160 0.527960 0.206160 -0.037335
N4    N     N_R   0.025160 0.472040 0.206160 -0.036087
N5    N     N_R   0.317870 0.971120 0.792790 -0.041365
N6    N     N_R   0.317870 0.028880 0.792790 -0.036973
N7    N     N_R   0.817870 0.471120 0.792790 -0.041371
N8    N     N_R   0.817870 0.528880 0.792790 -0.036970
N9    N     N_R   0.473480 0.027920 0.793480 -0.057267
N10   N     N_R   0.473480 0.972080 0.793480 -0.057090
N11   N     N_R   0.973480 0.527920 0.793480 -0.057263
N12   N     N_R   0.392140 0.897370 0.941800 -0.068365
N13   N     N_R   0.973480 0.472080 0.793480 -0.057095
N14   N     N_R   0.681610 0.971120 0.207570 -0.031927
N15   N     N_R   0.681610 0.028880 0.207570 -0.031879
N16   N     N_R   0.181610 0.471120 0.207570 -0.031927
N17   N     N_R   0.181610 0.528880 0.207570 -0.031879
N18   N     N_R   0.605410 0.102620 0.056870 -0.038157
N19   N     N_R   0.605410 0.897380 0.056870 -0.038183
N20   N     N_R   0.105410 0.602620 0.056870 -0.038159
N21   N     N_R   0.105410 0.397380 0.056870 -0.038184
N22   N     N_R   0.549680 0.896430 0.944180 -0.047397
N23   N     N_R   0.892140 0.602630 0.941800 -0.045901
N24   N     N_R   0.549680 0.103570 0.944180 -0.042218
N25   N     N_R   0.049680 0.396430 0.944180 -0.047393
N26   N     N_R   0.049680 0.603570 0.944180 -0.042219
N27   N     N_3   0.776203 0.126551 0.890648 -0.218003
N28   N     N_3   0.576690 0.759382 0.915395 -0.219929
N29   N     N_3   0.276262 0.626542 0.890717 -0.217998
N30   N     N_3   0.076700 0.259376 0.915408 -0.219929
N31   N     N_3   0.418433 0.096362 0.647998 -0.227559
N32   N     N_3   0.397340 0.903190 0.651909 -0.229515
N33   N     N_3   0.918438 0.596367 0.648011 -0.227562
N34   N     N_R   0.892140 0.397370 0.941800 -0.068361
N35   N     N_3   0.897228 0.403220 0.651858 -0.229456
N36   N     N_R   0.450890 0.896450 0.057150 -0.045254
N37   N     N_R   0.450890 0.103550 0.057150 -0.048388
N38   N     N_R   0.950890 0.396450 0.057150 -0.045252
N39   N     N_R   0.950890 0.603550 0.057150 -0.048388
N40   N     N_R   0.525160 0.027960 0.206160 -0.037336
Ni1   Ni    Ni4+2 0.433410 0.064680 0.868830 0.202297
Ni2   Ni    Ni4+2 0.433410 0.935320 0.868830 0.190471
Ni3   Ni    Ni4+2 0.933410 0.564680 0.868830 0.202299
Ni4   Ni    Ni4+2 0.933410 0.435320 0.868830 0.190464
Ni5   Ni    Ni4+2 0.565650 0.934380 0.131170 0.208034
Ni6   Ni    Ni4+2 0.565650 0.065620 0.131170 0.208538
Ni7   Ni    Ni4+2 0.065650 0.434380 0.131170 0.208035
Ni8   Ni    Ni4+2 0.065650 0.565620 0.131170 0.208537

loop_
_geom_bond_atom_site_label_1
_geom_bond_atom_site_label_2
_ccdc_geom_bond_type
C92   H53   S    
N3    Ni8   S    
N20   N26   A    
C74   H35   S    
H3    N32   S    
C31   C42   S    
C55   C59   A    
C80   C97   S    
C2    C18   A    
C27   H94   S    
C38   C94   A    
C5    H74   S    
C7    H78   S    
C36   C42   S    
N23   N39   A    
N37   Ni6   S    
C49   N27   S    
C69   C96   S    
C10   H91   S    
C3    N17   A    
C22   C57   S    
N16   Ni7   S    
N12   Ni2   S    
N21   Ni7   S    
C83   H46   S    
C64   H30   S    
C27   H50   S    
C108  H56   S    
C44   H18   S    
C72   C77   A    
C3    C17   A    
C62   C67   A    
C47   H21   S    
N36   Ni5   S    
C32   N23   A    
C7    H79   S    
C21   N12   A    
H100  N30   S    
H102  N31   S    
H99   N29   S    
C103  N10   A    
C84   H47   S    
C25   H69   S    
C14   C102  A    
C23   H67   S    
C21   C94   A    
C45   C51   A    
C43   N34   A    
C19   C55   S    
N8    Ni3   S    
C6    H80   S    
C12   C22   A    
C20   C76   A    
C8    H87   S    
C92   N8    A    
C51   C56   A    
C5    H73   S    
C90   H51   S    
C61   C63   A    
C25   H28   S    
N21   N25   A    
C39   C93   A    
N25   Ni4   S    
C18   C53   S    
C82   H45   S    
N1    Ni1   S    
N12   N36   A    
C47   C69   A    
C66   H31   S    
N18   Ni6   S    
C8    C9    S    
C29   H72   S    
C107  N15   A    
C50   C55   A    
C76   N20   A    
C67   C94   S    
C34   C100  S    
C73   C78   A    
C106  N14   A    
N2    Ni5   S    
N18   N24   A    
C98   N22   A    
C105  N13   A    
C15   C104  A    
C9    H84   S    
C75   C80   A    
N22   Ni2   S    
C104  N11   A    
H95   N27   S    
N15   Ni6   S    
C84   N3    A    
H96   N28   S    
N5    Ni2   S    
C78   H43   S    
N19   Ni5   S    
C48   C50   A    
C84   C99   A    
C33   H13   S    
C63   H29   S    
C48   H22   S    
C72   H33   S    
C39   H37   S    
C40   C96   A    
N14   Ni5   S    
C90   C100  A    
N16   N17   A    
C19   C98   A    
C42   H15   S    
H93   N27   S    
C6    C7    S    
H7    N35   S    
C73   H34   S    
C26   H70   S    
C58   C64   A    
H4    N33   S    
C23   H1    S    
N9    Ni1   S    
C59   H24   S    
C31   C34   S    
C8    H86   S    
C90   N6    A    
N7    Ni4   S    
C65   N19   A    
C89   C100  A    
N40   Ni6   S    
C8    C32   S    
H103  N31   S    
C11   H88   S    
C14   C86   S    
C47   C49   A    
C52   C57   A    
C85   N4    A    
N7    N8    A    
C79   C81   A    
C51   N29   S    
C81   C99   S    
C46   C52   A    
C28   H2    S    
N5    N6    A    
C64   C69   A    
C6    C21   S    
C44   H16   S    
C24   C34   S    
C56   C60   A    
C30   C37   S    
C10   H92   S    
C85   H48   S    
C62   H27   S    
C77   H42   S    
H97   N28   S    
N3    N4    A    
C11   H89   S    
C73   C88   A    
C46   C68   A    
N9    N10   A    
C85   C99   A    
C52   N30   S    
N39   Ni8   S    
C71   C86   A    
C40   N38   A    
C26   C35   S    
H6    N35   S    
C39   N37   A    
C58   H23   S    
C23   C34   S    
C38   N36   A    
C41   N39   A    
C103  N32   S    
N10   Ni2   S    
C89   H49   S    
C42   H14   S    
C17   C37   S    
C30   H83   S    
C4    H76   S    
N1    N37   A    
C31   H11   S    
C91   H52   S    
C71   H32   S    
C92   C101  A    
C25   C35   S    
C105  N35   S    
C98   H63   S    
H5    N33   S    
C2    N24   A    
C12   N25   A    
C29   H8    S    
C107  H55   S    
C71   C75   A    
C82   N40   A    
C23   C27   S    
C74   C79   A    
C1    N1    A    
C24   H17   S    
N24   Ni1   S    
C82   C97   A    
C45   C67   A    
C17   C108  A    
H98   N29   S    
N20   Ni8   S    
C9    H82   S    
C24   H68   S    
N38   Ni7   S    
C83   N2    A    
C13   H66   S    
C3    H57   S    
N34   N38   A    
C77   C80   A    
C46   H20   S    
C63   C68   A    
C61   H26   S    
C13   C20   A    
C10   C43   S    
C33   C44   S    
C38   H36   S    
C7    H77   S    
C24   C28   S    
C48   C70   A    
C4    C5    S    
C35   C101  S    
C22   C87   A    
H101  N30   S    
C72   C86   A    
C53   C58   A    
N11   N13   A    
C57   C61   A    
C13   N26   A    
C30   H9    S    
C16   C106  A    
C27   C36   S    
C108  N16   A    
C65   H59   S    
C31   H10   S    
C68   C93   S    
C87   N21   A    
C40   H38   S    
N26   Ni3   S    
C1    C4    S    
C15   C105  A    
C37   C44   S    
C50   N28   S    
C70   C95   S    
C11   H90   S    
N23   Ni3   S    
C59   C66   A    
C16   C36   S    
C60   C62   A    
N2    N40   A    
C87   H62   S    
C78   C81   A    
C25   C29   S    
C14   C103  A    
C41   C95   A    
C41   H40   S    
N34   Ni4   S    
C45   H19   S    
N13   Ni4   S    
C49   C53   A    
C6    H81   S    
C91   C101  A    
C33   C35   S    
N6    Ni1   S    
C76   H60   S    
N19   N22   A    
C9    H85   S    
C20   C56   S    
C106  H54   S    
C4    H75   S    
C91   N7    A    
C26   H39   S    
C16   C107  A    
C10   C11   S    
C18   C54   A    
C19   C65   A    
C89   N5    A    
C5    H71   S    
N17   Ni8   S    
N11   Ni3   S    
C28   H61   S    
C104  N33   S    
C32   C95   A    
C66   C70   A    
C28   C36   S    
C33   H12   S    
C1    C93   A    
N14   N15   A    
C83   C97   A    
C29   C37   S    
C43   C96   A    
C12   H65   S    
C102  N31   S    
C79   H44   S    
N4    Ni7   S    
C74   C88   A    
H104  N32   S    
C60   H25   S    
C54   N18   A    
C54   H58   S    
C102  N9    A    
C2    H64   S    
C15   C88   S    
C75   H41   S    
C26   C30   S    
