data_mof_unit_60770.cif
_audit_creation_date              2012-12-10T21:05:41-0500
_audit_creation_method            fapswitch 2.2
_symmetry_space_group_name_H-M    P1
_symmetry_Int_Tables_number       1
_space_group_crystal_system       triclinic
_cell_length_a                    15.847118
_cell_length_b                    15.072298
_cell_length_c                    17.552609
_cell_angle_alpha                 89.908981
_cell_angle_beta                  89.848884
_cell_angle_gamma                 89.8529
_cell_volume                      4192.45063251

loop_
_atom_site_label
_atom_site_type_symbol
_atom_type_description
_atom_site_fract_x
_atom_site_fract_y
_atom_site_fract_z
_atom_type_partial_charge
Br1   Br    Br    0.653888 0.607203 0.716808 -0.496546
Br2   Br    Br    0.346112 0.392796 0.283192 -0.496548
Br3   Br    Br    0.653539 0.607350 0.282058 -0.483832
Br4   Br    Br    0.346460 0.392651 0.717942 -0.483832
Br5   Br    Br    0.395915 0.111647 0.365479 -0.432851
Br6   Br    Br    0.604085 0.888352 0.634520 -0.432849
Br7   Br    Br    0.604713 0.110513 0.634146 -0.457669
Br8   Br    Br    0.395288 0.889487 0.365853 -0.457671
C1    C     C_R   0.339015 0.500124 0.499773 0.935500
C2    C     C_R   0.455989 0.047343 0.443430 0.216906
C3    C     C_R   0.499944 0.905048 0.500028 -0.193908
C4    C     C_R   0.500056 0.094952 0.499972 -0.193908
C5    C     C_1   0.499971 0.807071 0.500011 0.284078
C6    C     C_1   0.500029 0.192929 0.499989 0.284078
C7    C     C_R   0.499915 0.500058 0.353482 0.952901
C8    C     C_R   0.500085 0.499942 0.646518 0.952902
C9    C     C_R   0.563125 0.545760 0.847016 -0.158697
C10   C     C_R   0.436874 0.454239 0.152984 -0.158697
C11   C     C_R   0.562618 0.546123 0.152545 -0.159449
C12   C     C_R   0.660985 0.499876 0.500227 0.935500
C13   C     C_R   0.437381 0.453878 0.847455 -0.159449
C14   C     C_R   0.563593 0.546118 0.767993 0.231833
C15   C     C_R   0.436407 0.453881 0.232007 0.231833
C16   C     C_R   0.563109 0.546476 0.231547 0.227335
C17   C     C_R   0.436890 0.453524 0.768453 0.227335
C18   C     C_R   0.500218 0.499824 0.728576 -0.171608
C19   C     C_R   0.499781 0.500176 0.271424 -0.171608
C20   C     C_R   0.500238 0.499834 0.886015 0.028956
C21   C     C_R   0.499761 0.500166 0.113985 0.028956
C22   C     C_1   0.500092 0.499956 0.966202 0.007565
C23   C     C_1   0.823689 0.499277 0.503825 -0.015699
C24   C     C_1   0.499907 0.500045 0.033798 0.007565
C25   C     C_R   0.955366 0.581432 0.504212 -0.045704
C26   C     C_R   0.044634 0.418568 0.495784 -0.045703
C27   C     C_R   0.043599 0.581973 0.498690 -0.051659
C28   C     C_R   0.956401 0.418027 0.501305 -0.051659
C29   C     C_R   0.912962 0.499488 0.505062 0.034152
C30   C     C_R   0.087038 0.500512 0.494934 0.034151
C31   C     C_R   0.090701 0.667271 0.498167 0.119197
C32   C     C_R   0.135830 0.693432 0.432947 -0.169300
C33   C     C_R   0.180364 0.773376 0.432441 -0.089540
C34   C     C_1   0.176311 0.500723 0.496173 -0.015699
C35   C     C_R   0.180175 0.827671 0.496918 -0.093439
C36   C     C_R   0.135350 0.802086 0.562011 -0.134582
C37   C     C_R   0.090776 0.722118 0.562785 -0.119804
C38   C     C_R   0.909300 0.332728 0.501829 0.119198
C39   C     C_R   0.864172 0.306567 0.567048 -0.169299
C40   C     C_R   0.819637 0.226622 0.567555 -0.089541
C41   C     C_R   0.819825 0.172328 0.503077 -0.093438
C42   C     C_R   0.864649 0.197915 0.437983 -0.134581
C43   C     C_R   0.909223 0.277882 0.437210 -0.119804
C44   C     C_R   0.907074 0.666169 0.507621 0.108056
C45   C     C_1   0.250962 0.500480 0.497893 -0.106385
C46   C     C_R   0.905869 0.723951 0.444777 -0.101407
C47   C     C_R   0.859727 0.803082 0.448069 -0.120933
C48   C     C_R   0.814453 0.824892 0.513919 -0.099445
C49   C     C_R   0.815370 0.767649 0.576643 -0.062478
C50   C     C_R   0.861478 0.688541 0.573621 -0.157509
C51   C     C_R   0.092926 0.333831 0.492373 0.108056
C52   C     C_R   0.138522 0.311460 0.426373 -0.157508
C53   C     C_R   0.184629 0.232352 0.423350 -0.062475
C54   C     C_R   0.185547 0.175108 0.486073 -0.099443
C55   C     C_R   0.140274 0.196917 0.551924 -0.120935
C56   C     C_1   0.749038 0.499520 0.502105 -0.106386
C57   C     C_R   0.094131 0.276048 0.555217 -0.101408
C58   C     C_R   0.455885 0.953129 0.443488 0.216684
C59   C     C_R   0.544115 0.046871 0.556512 0.216684
C60   C     C_R   0.544011 0.952657 0.556570 0.216906
H1    H     H_    0.611844 0.580817 0.877947 0.180623
H2    H     H_    0.863737 0.348017 0.617400 0.146537
H3    H     H_    0.785085 0.206743 0.617989 0.183431
H4    H     H_    0.785269 0.110462 0.503571 0.151732
H5    H     H_    0.864755 0.155833 0.388079 0.145579
H6    H     H_    0.943433 0.297229 0.386361 0.138316
H7    H     H_    0.940331 0.707479 0.393323 0.140339
H8    H     H_    0.858931 0.847423 0.399515 0.147498
H9    H     H_    0.778677 0.886111 0.516335 0.157748
H10   H     H_    0.780416 0.784543 0.627654 0.199684
H11   H     H_    0.861772 0.644719 0.622588 0.160806
H12   H     H_    0.388156 0.419183 0.122053 0.180623
H13   H     H_    0.138227 0.355282 0.377405 0.160805
H14   H     H_    0.219583 0.215458 0.372338 0.199684
H15   H     H_    0.221323 0.113888 0.483656 0.157750
H16   H     H_    0.141070 0.152576 0.600478 0.147498
H17   H     H_    0.059670 0.292519 0.606672 0.140340
H18   H     H_    0.611375 0.581116 0.121279 0.179884
H19   H     H_    0.388623 0.418885 0.878721 0.179884
H20   H     H_    0.136266 0.651981 0.382597 0.146538
H21   H     H_    0.214917 0.793254 0.382007 0.183432
H22   H     H_    0.214731 0.889538 0.496424 0.151734
H23   H     H_    0.135243 0.844168 0.611914 0.145579
H24   H     H_    0.056564 0.702772 0.613633 0.138317
N1    N     N_1   0.500000 0.270550 0.500000 -0.066052
N2    N     N_1   0.500000 0.729450 0.500000 -0.066052
O1    O     O_R   0.378020 0.573650 0.500020 -0.622808
O2    O     O_R   0.621980 0.426350 0.499980 -0.622808
O3    O     O_R   0.621980 0.573650 0.499980 -0.579489
O4    O     O_R   0.378020 0.426350 0.500020 -0.579489
O5    O     O_R   0.500000 0.573690 0.389120 -0.584980
O6    O     O_R   0.500000 0.426310 0.610880 -0.584981
O7    O     O_R   0.500000 0.573690 0.610880 -0.586458
O8    O     O_R   0.500000 0.426310 0.389120 -0.586457
Zn1   Zn    Zn3+2 0.500000 0.598370 0.500000 1.066887
Zn2   Zn    Zn3+2 0.500000 0.401630 0.500000 1.066887

loop_
_geom_bond_atom_site_label_1
_geom_bond_atom_site_label_2
_ccdc_geom_bond_type
O5    Zn1   S    
C54   H15   S    
C55   C57   A    
Br8   C58   S    
C1    O4    A    
C33   H21   S    
C16   C19   A    
C47   C48   A    
C11   H18   S    
C13   H19   S    
Br4   C17   S    
C3    C60   A    
C25   C44   S    
C9    H1    S    
C28   C29   A    
C30   C34   S    
C21   C24   S    
C53   H14   S    
C34   C45   T    
O6    Zn2   S    
C48   C49   A    
C37   H24   S    
C46   C47   A    
C12   O3    A    
C44   C46   A    
C41   H4    S    
C43   H6    S    
C28   C38   S    
C15   C19   A    
C1    O1    A    
C6    N1    T    
C3    C58   A    
C31   C37   A    
Br6   C60   S    
C12   O2    A    
C51   C52   A    
O7    Zn1   S    
C33   C35   A    
Br3   C16   S    
C49   H10   S    
N1    Zn2   S    
O1    Zn1   S    
C2    C58   A    
C8    C18   S    
C44   C50   A    
C4    C59   A    
C35   H22   S    
C10   C15   A    
C27   C30   A    
C42   H5    S    
C31   C32   A    
C8    O6    A    
C17   C18   A    
C38   C43   A    
C25   C29   A    
C48   H9    S    
C59   C60   A    
C52   C53   A    
C12   C56   S    
C27   C31   S    
C35   C36   A    
C39   H2    S    
C54   C55   A    
C52   H13   S    
C7    C19   S    
C39   C40   A    
C42   C43   A    
C10   C21   A    
O8    Zn2   S    
O3    Zn1   S    
C36   H23   S    
C2    C4    A    
C50   H11   S    
C47   H8    S    
C32   C33   A    
C13   C20   A    
C4    C6    S    
N2    Zn1   S    
O2    Zn2   S    
C26   C51   S    
C1    C45   S    
C40   H3    S    
C11   C21   A    
C36   C37   A    
C13   C17   A    
C38   C39   A    
C40   C41   A    
C26   C30   A    
C9    C20   A    
C23   C56   T    
C7    O5    A    
C57   H17   S    
C5    N2    T    
C9    C14   A    
C55   H16   S    
C32   H20   S    
C20   C22   S    
C11   C16   A    
Br5   C2    S    
C51   C57   A    
C22   C24   T    
C3    C5    S    
C49   C50   A    
O4    Zn2   S    
C25   C27   A    
C26   C28   A    
C7    O8    A    
C53   C54   A    
Br7   C59   S    
C46   H7    S    
C23   C29   S    
C8    O7    A    
Br1   C14   S    
C10   H12   S    
C41   C42   A    
C14   C18   A    
Br2   C15   S    
