data_mof_unit_32626.cif
_audit_creation_date              2012-12-10T16:52:40-0500
_audit_creation_method            fapswitch 2.2
_symmetry_space_group_name_H-M    P1
_symmetry_Int_Tables_number       1
_space_group_crystal_system       triclinic
_cell_length_a                    7.986448
_cell_length_b                    8.556235
_cell_length_c                    13.63597
_cell_angle_alpha                 95.892827
_cell_angle_beta                  93.461918
_cell_angle_gamma                 93.051328
_cell_volume                      923.525246075

loop_
_atom_site_label
_atom_site_type_symbol
_atom_type_description
_atom_site_fract_x
_atom_site_fract_y
_atom_site_fract_z
_atom_type_partial_charge
C1    C     C_R   0.043885 0.793905 0.498813 0.972096
C2    C     C_R   0.937386 0.488800 0.317848 0.894985
C3    C     C_R   0.093129 0.526886 0.788729 -0.097119
C4    C     C_R   0.906871 0.473116 0.211271 -0.097118
C5    C     C_R   0.063286 0.670425 0.947933 -0.163768
C6    C     C_R   0.936716 0.329583 0.052066 -0.163769
C7    C     C_R   0.009833 0.636325 0.848649 -0.224998
C8    C     C_R   0.990169 0.363681 0.151350 -0.224999
C9    C     C_R   0.223894 0.447085 0.828865 0.049620
C10   C     C_R   0.776106 0.552918 0.171135 0.049619
C11   C     C_R   0.302609 0.508198 0.920667 0.045985
C12   C     C_R   0.956115 0.206095 0.501187 0.972098
C13   C     C_R   0.697393 0.491807 0.079333 0.045986
C14   C     C_R   0.211771 0.609820 0.983896 0.136725
C15   C     C_R   0.788231 0.390187 0.016103 0.136727
C16   C     C_R   0.468781 0.475528 0.950785 0.074998
C17   C     C_R   0.531221 0.524478 0.049214 0.074998
C18   C     C_3   0.487706 0.364962 0.385858 -0.134946
C19   C     C_3   0.373547 0.217265 0.357394 -0.852254
C20   C     C_3   0.512296 0.635040 0.614142 -0.134955
C21   C     C_3   0.626444 0.782745 0.642598 -0.852247
C22   C     C_R   0.422045 0.595481 0.115834 -0.186641
C23   C     C_R   0.577956 0.404526 0.884166 -0.186642
C24   C     C_R   0.268877 0.646347 0.082397 -0.193619
C25   C     C_R   0.731125 0.353661 0.917602 -0.193619
C26   C     C_2   0.067435 0.957884 0.502355 -0.341217
C27   C     C_2   0.932565 0.042116 0.497645 -0.341215
C28   C     C_R   0.062614 0.511200 0.682152 0.894984
H1    H     H_    0.193709 0.711798 0.134021 0.169681
H2    H     H_    0.804551 0.990998 0.488717 0.182903
H3    H     H_    0.373420 0.143500 0.419562 0.260500
H4    H     H_    0.244675 0.245020 0.334639 0.281384
H5    H     H_    0.422902 0.147483 0.293321 0.232889
H6    H     H_    0.486416 0.439040 0.323648 0.172521
H7    H     H_    0.610910 0.318178 0.397269 0.229722
H8    H     H_    0.755328 0.754998 0.665341 0.281392
H9    H     H_    0.626546 0.856508 0.580427 0.260494
H10   H     H_    0.577098 0.852525 0.706678 0.232889
H11   H     H_    0.389089 0.681816 0.602734 0.229727
H12   H     H_    0.806293 0.288211 0.865978 0.169681
H13   H     H_    0.513601 0.560968 0.676354 0.172518
H14   H     H_    0.095108 0.304461 0.181210 0.163828
H15   H     H_    0.904894 0.695546 0.818788 0.163830
H16   H     H_    0.994236 0.750158 0.995026 0.164902
H17   H     H_    0.005767 0.249852 0.004972 0.164902
H18   H     H_    0.453591 0.613356 0.194263 0.178577
H19   H     H_    0.546410 0.386650 0.805737 0.178576
H20   H     H_    0.195449 0.009002 0.511284 0.182900
I1    I     I_    0.752654 0.791712 0.233432 -0.452284
I2    I     I_    0.247348 0.208291 0.766570 -0.452285
N1    N     N_2   0.440860 0.456490 0.474790 -0.025188
N2    N     N_2   0.559140 0.543510 0.525210 -0.025190
O1    O     O_R   0.891570 0.738930 0.506190 -0.596063
O2    O     O_R   0.108430 0.261070 0.493810 -0.596059
O3    O     O_R   0.174650 0.711050 0.490030 -0.641310
O4    O     O_R   0.825350 0.288950 0.509970 -0.641312
O5    O     O_R   0.909850 0.521900 0.644940 -0.620863
O6    O     O_R   0.090150 0.478100 0.355060 -0.620862
O7    O     O_R   0.192930 0.494020 0.628780 -0.624434
O8    O     O_R   0.807070 0.505980 0.371220 -0.624435
Zn1   Zn    Zn3+2 0.810990 0.518620 0.510790 0.943387
Zn2   Zn    Zn3+2 0.189010 0.481380 0.489210 0.943390

loop_
_geom_bond_atom_site_label_1
_geom_bond_atom_site_label_2
_ccdc_geom_bond_type
O6    Zn2   S    
C2    C4    S    
C2    O6    A    
O5    Zn1   S    
C3    C9    A    
C6    H17   S    
C26   H20   S    
C18   H6    S    
C11   C16   A    
C17   C22   A    
C13   C17   A    
C4    C8    A    
C19   H3    S    
C23   C25   A    
C20   H13   S    
C1    O3    A    
C20   N2    S    
C21   H8    S    
C28   O5    A    
C27   H2    S    
C9    C11   A    
C5    C14   A    
C12   O4    A    
N1    Zn2   S    
C19   H4    S    
C3    C28   S    
C22   H18   S    
C5    H16   S    
C8    H14   S    
C18   N1    S    
C16   C23   A    
C3    C7    A    
N2    Zn1   S    
C13   C15   A    
C25   H12   S    
C26   C27   D    
C1    C26   S    
C11   C14   A    
C22   C24   A    
C15   C25   A    
C23   H19   S    
C21   H10   S    
C12   C27   S    
C4    C10   A    
N1    N2    D    
O3    Zn2   S    
C2    O8    A    
C21   H9    S    
C20   C21   S    
C18   C19   S    
C18   H7    S    
C28   O7    A    
C14   C24   A    
C7    H15   S    
C5    C7    A    
C20   H11   S    
C1    O1    A    
C24   H1    S    
C16   C17   A    
O7    Zn2   S    
C6    C8    A    
O2    Zn2   S    
C6    C15   A    
O4    Zn1   S    
C10   I1    S    
O1    Zn1   S    
C12   O2    A    
C9    I2    S    
C19   H5    S    
O8    Zn1   S    
C10   C13   A    
