data_mof_unit_12920.cif
_audit_creation_date              2012-12-11T15:10:40-0500
_audit_creation_method            fapswitch 2.2
_symmetry_space_group_name_H-M    P1
_symmetry_Int_Tables_number       1
_space_group_crystal_system       triclinic
_cell_length_a                    20.968765
_cell_length_b                    7.23063
_cell_length_c                    18.309865
_cell_angle_alpha                 89.999538
_cell_angle_beta                  93.780695
_cell_angle_gamma                 89.999928
_cell_volume                      2770.05228552

loop_
_atom_site_label
_atom_site_type_symbol
_atom_type_description
_atom_site_fract_x
_atom_site_fract_y
_atom_site_fract_z
_atom_type_partial_charge
O1    O     O_R   0.448880 0.506250 0.415280 -0.522037
O2    O     O_R   0.551120 0.006250 0.584720 -0.522039
O3    O     O_R   0.434830 0.174000 0.557310 -0.517434
O4    O     O_R   0.565170 0.674000 0.442690 -0.517432
C1    C     C_R   0.417186 0.344513 0.579943 0.692959
C2    C     C_R   0.582814 0.844514 0.420057 0.692963
O5    O     O_R   0.441680 0.176440 0.414130 -0.539592
O6    O     O_R   0.558320 0.676440 0.585870 -0.539592
O7    O     O_R   0.558020 0.007570 0.440520 -0.525454
O8    O     O_R   0.441980 0.507570 0.559480 -0.525453
C3    C     C_R   0.427943 0.344609 0.388016 0.761514
C4    C     C_R   0.572057 0.844607 0.611984 0.761514
O9    O     O_3   0.538160 0.339670 0.508820 -0.365185
O10   O     O_3   0.461840 0.839670 0.491180 -0.365185
V1    V     V_3+5 0.492920 0.064260 0.498360 1.423750
V2    V     V_3+5 0.507080 0.564260 0.501640 1.423754
C5    C     C_R   0.879099 0.983345 0.683917 0.237524
C6    C     C_R   0.120899 0.483305 0.316085 0.237523
C7    C     C_R   0.890196 0.941541 0.816409 -0.221821
C8    C     C_R   0.109804 0.441535 0.183591 -0.221826
C9    C     C_R   0.584190 0.838620 0.748409 0.196348
C10   C     C_R   0.415812 0.338653 0.251591 0.196350
C11   C     C_R   0.621585 0.799349 0.813548 0.208204
C12   C     C_R   0.378418 0.299394 0.186450 0.208199
C13   C     C_R   0.688501 0.777366 0.811862 0.306444
C14   C     C_R   0.311502 0.277398 0.188134 0.306451
C15   C     C_R   0.719416 0.837699 0.749087 -0.063582
C16   C     C_R   0.280585 0.337705 0.250911 -0.063580
C17   C     C_R   0.681339 0.852334 0.681927 -0.081766
C18   C     C_R   0.318661 0.352327 0.318072 -0.081771
C19   C     C_R   0.786301 0.882825 0.749945 0.046311
C20   C     C_R   0.213699 0.382820 0.250054 0.046319
C21   C     C_R   0.815119 0.913680 0.682723 -0.104032
C22   C     C_R   0.184880 0.413651 0.317277 -0.104033
C23   C     C_R   0.778738 0.878678 0.616011 0.356869
C24   C     C_R   0.221261 0.378636 0.383988 0.356864
C25   C     C_R   0.711995 0.863050 0.616327 -0.150825
C26   C     C_R   0.288005 0.363018 0.383672 -0.150828
C27   C     C_R   0.824090 0.912783 0.815820 -0.155370
C28   C     C_R   0.175910 0.412791 0.184179 -0.155383
C29   C     C_R   0.918714 0.973559 0.749870 0.348263
C30   C     C_R   0.081284 0.473530 0.250131 0.348256
C31   C     C_R   0.613420 0.847896 0.681377 -0.153396
C32   C     C_R   0.386580 0.347902 0.318623 -0.153398
H1    H     H_    0.802811 0.914576 0.867738 0.194699
H2    H     H_    0.197190 0.414602 0.132261 0.194699
H3    H     H_    0.683743 0.852620 0.565018 0.089107
H4    H     H_    0.316256 0.352579 0.434981 0.089109
C33   C     C_1   0.864368 0.939082 0.131920 -0.087516
C34   C     C_1   0.135632 0.439084 0.868080 -0.087510
C35   C     C_1   0.821401 0.925015 0.175537 0.070645
C36   C     C_1   0.178598 0.425016 0.824463 0.070649
C37   C     C_1   0.770656 0.905851 0.227411 0.046205
C38   C     C_1   0.229344 0.405851 0.772588 0.046208
C39   C     C_1   0.727912 0.889172 0.271184 0.020535
C40   C     C_1   0.272088 0.389171 0.728816 0.020539
C41   C     C_1   0.677255 0.869961 0.323152 -0.005158
C42   C     C_1   0.322745 0.369959 0.676847 -0.005157
C43   C     C_1   0.634597 0.855813 0.367154 -0.214210
C44   C     C_1   0.365402 0.355811 0.632846 -0.214211
O11   O     O_R   0.058070 0.289240 0.940580 -0.514179
O12   O     O_R   0.941930 0.789240 0.059420 -0.514181
O13   O     O_R   0.058330 0.616740 0.085880 -0.527791
O14   O     O_R   0.941670 0.116740 0.914120 -0.527785
C45   C     C_R   0.071581 0.448889 0.112436 0.811336
C46   C     C_R   0.928419 0.948890 0.887564 0.811335
O15   O     O_R   0.065180 0.619040 0.942700 -0.524357
O16   O     O_R   0.934820 0.119040 0.057300 -0.524355
O17   O     O_R   0.948870 0.787780 0.915270 -0.507580
O18   O     O_R   0.051130 0.287780 0.084730 -0.507580
C47   C     C_R   0.083257 0.450365 0.920255 0.736999
C48   C     C_R   0.916743 0.950364 0.079744 0.736993
O19   O     O_3   0.961870 0.453310 0.991210 -0.365653
O20   O     O_3   0.038130 0.953310 0.008790 -0.365658
V3    V     V_3+5 0.007070 0.728770 0.001630 1.641184
V4    V     V_3+5 0.992930 0.228770 0.998370 1.641196
S1    S     S_3+6 0.003335 0.005593 0.750946 0.071285
O21   O     O_2   0.028097 0.970166 0.677119 -0.267001
O22   O     O_2   0.018816 0.200928 0.773891 -0.318221
O23   O     O_3   0.040857 0.859781 0.811020 -0.514331
H5    H     H_    0.085643 0.903961 0.816243 0.348608
S2    S     S_3+6 0.996663 0.505554 0.249054 0.071282
O24   O     O_2   0.971901 0.470110 0.322881 -0.266996
O25   O     O_2   0.981179 0.700892 0.226114 -0.318221
O26   O     O_3   0.959143 0.359749 0.188977 -0.514332
H6    H     H_    0.914356 0.403923 0.183756 0.348608
N1    N     N_2   0.810819 0.843508 0.550798 -0.461191
H7    H     H_    0.845548 0.742682 0.556710 0.279405
C49   C     C_3   0.775966 0.845561 0.479951 -0.369550
H8    H     H_    0.810299 0.839806 0.436364 0.232570
H9    H     H_    0.748010 0.975550 0.472775 0.193775
H10   H     H_    0.744024 0.723176 0.474000 0.159367
N2    N     N_2   0.189180 0.343443 0.449199 -0.461195
H11   H     H_    0.154454 0.242610 0.443284 0.279403
C50   C     C_3   0.224032 0.345490 0.520047 -0.369546
H12   H     H_    0.189699 0.339718 0.563633 0.232572
H13   H     H_    0.251985 0.475484 0.527226 0.193778
H14   H     H_    0.255978 0.223111 0.525996 0.159363
S3    S     S_3+6 0.902678 0.127425 0.610492 0.152304
O27   O     O_2   0.844717 0.216757 0.572777 -0.302642
O28   O     O_2   0.946436 0.278980 0.639307 -0.228601
O29   O     O_3   0.940375 0.003594 0.548408 -0.402738
H15   H     H_    0.948622 0.880710 0.570898 0.367323
S4    S     S_3+6 0.097317 0.627361 0.389514 0.152305
O30   O     O_2   0.155276 0.716692 0.427233 -0.302642
O31   O     O_2   0.053556 0.778918 0.360704 -0.228603
O32   O     O_3   0.059621 0.503508 0.451593 -0.402729
H16   H     H_    0.051377 0.380627 0.429099 0.367324
N3    N     N_2   0.517120 0.871030 0.750310 -0.518043
H17   H     H_    0.503095 0.938985 0.796113 0.283534
C51   C     C_3   0.474772 0.721936 0.725477 -0.498235
H18   H     H_    0.444086 0.680274 0.769852 0.180161
H19   H     H_    0.501587 0.597883 0.708811 0.189676
H20   H     H_    0.443408 0.770585 0.678176 0.208746
N4    N     N_2   0.482881 0.371073 0.249691 -0.518041
H21   H     H_    0.496907 0.439040 0.203891 0.283534
C52   C     C_3   0.525231 0.221980 0.274523 -0.498241
H22   H     H_    0.555919 0.180331 0.230148 0.180162
H23   H     H_    0.498418 0.097921 0.291187 0.189675
H24   H     H_    0.556594 0.270626 0.321826 0.208745
S5    S     S_3+6 0.726795 0.620557 0.876321 -0.014844
O33   O     O_2   0.741146 0.717126 0.948226 -0.337269
O34   O     O_2   0.683189 0.460258 0.888691 -0.330107
O35   O     O_3   0.795071 0.535727 0.846274 -0.484889
H25   H     H_    0.781723 0.464396 0.801658 0.343322
S6    S     S_3+6 0.273213 0.120602 0.123669 -0.014850
O36   O     O_2   0.258860 0.217189 0.051767 -0.337269
O37   O     O_2   0.316821 0.960314 0.111293 -0.330110
O38   O     O_3   0.204937 0.035752 0.153712 -0.484898
H26   H     H_    0.218288 0.964383 0.198317 0.343324
N5    N     N_2   0.591707 0.783351 0.881117 -0.505029
H27   H     H_    0.619301 0.819598 0.927601 0.302396
C53   C     C_3   0.550463 0.625035 0.889940 -0.394184
H28   H     H_    0.568030 0.543008 0.938476 0.216389
H29   H     H_    0.548700 0.532507 0.841354 0.200889
H30   H     H_    0.501463 0.674037 0.898933 0.175170
N6    N     N_2   0.408297 0.283419 0.118880 -0.505027
H31   H     H_    0.380703 0.319674 0.072397 0.302399
C54   C     C_3   0.449545 0.125114 0.110053 -0.394187
H32   H     H_    0.431981 0.043098 0.061514 0.216389
H33   H     H_    0.451309 0.032573 0.158636 0.200891
H34   H     H_    0.498544 0.174127 0.101064 0.175168

loop_
_geom_bond_atom_site_label_1
_geom_bond_atom_site_label_2
_ccdc_geom_bond_type
N1    H7    S    
O13   C45   A    
N2    H11   S    
C15   C17   A    
C51   H18   S    
O1    C3    A    
O2    C4    A    
C2    O7    A    
S4    O31   D    
C50   H14   S    
S1    O21   D    
O5    C3    A    
N6    C54   S    
S6    O36   D    
C23   C25   A    
C12   C14   A    
C4    C31   S    
C52   H23   S    
C29   S1    S    
C8    C28   A    
C54   H34   S    
C41   C43   T    
C46   O17   A    
C42   C44   T    
C45   O18   A    
C18   C26   A    
C7    C46   S    
C14   S6    S    
S5    O35   S    
N3    C51   S    
C9    C31   A    
C23   N1    S    
C24   N2    S    
C10   C32   A    
C50   H12   S    
C40   C42   S    
C16   C18   A    
C33   C35   T    
C33   C48   S    
C30   S2    S    
C53   H30   S    
C34   C36   T    
O32   H16   S    
C19   C21   A    
C25   H3    S    
C26   H4    S    
O16   C48   A    
C27   H1    S    
O11   C47   A    
O5    V1    S    
O6    V2    S    
C17   C31   A    
C18   C32   A    
C5    C21   A    
S4    O30   D    
C36   C38   S    
C37   C39   T    
O11   V4    S    
C38   C40   T    
O20   V3    S    
C11   N5    S    
C8    C45   S    
C16   C20   A    
O4    C2    A    
C52   H24   S    
S6    O38   S    
N4    C52   S    
O26   H6    S    
C15   C19   A    
C35   C37   S    
C20   C22   A    
O4    V2    S    
C28   H2    S    
C34   C47   S    
C39   C41   S    
C5    S3    S    
C8    C30   A    
S3    O27   D    
O6    C4    A    
S3    O29   S    
O14   V4    S    
S1    O22   D    
O12   C48   A    
C3    C32   S    
C51   H19   S    
O1    V2    S    
C6    S4    S    
C49   H10   S    
O2    V1    S    
C6    C22   A    
S5    O33   D    
C7    C27   A    
C10   N4    S    
S3    O28   D    
S2    O25   D    
C9    C11   A    
O18   V4    S    
C53   H28   S    
O19   V4    S    
C10   C12   A    
O12   V3    S    
C49   H9    S    
N5    H27   S    
O3    C1    A    
O3    V1    S    
O38   H26   S    
S1    O23   S    
S6    O37   D    
C1    C44   S    
C2    C43   S    
O23   H5    S    
N5    C53   S    
C9    N3    S    
C54   H32   S    
C50   H13   S    
C12   N6    S    
O16   V4    S    
S2    O26   S    
N6    H31   S    
C14   C16   A    
C6    C30   A    
O7    V1    S    
C1    O8    A    
O8    V2    S    
C52   H22   S    
C54   H33   S    
O13   V3    S    
C24   C26   A    
C21   C23   A    
C22   C24   A    
C19   C27   A    
O17   V3    S    
C51   H20   S    
O15   C47   A    
C20   C28   A    
O29   H15   S    
C5    C29   A    
S5    O34   D    
C7    C29   A    
C11   C13   A    
O15   V3    S    
N2    C50   S    
S2    O24   D    
O9    V2    S    
C17   C25   A    
C53   H29   S    
N1    C49   S    
O10   V1    S    
C49   H8    S    
N3    H17   S    
C13   S5    S    
S4    O32   S    
N4    H21   S    
O14   C46   A    
O35   H25   S    
C13   C15   A    
