data_mof_unit_49818.cif
_audit_creation_date              2012-10-26T19:17:56-0400
_audit_creation_method            fapswitch 2.2
_symmetry_space_group_name_H-M    P1
_symmetry_Int_Tables_number       1
_space_group_crystal_system       triclinic
_cell_length_a                    10.869071
_cell_length_b                    12.305016
_cell_length_c                    13.19263
_cell_angle_alpha                 116.570976
_cell_angle_beta                  77.696372
_cell_angle_gamma                 100.742486
_cell_volume                      1533.43548952

loop_
_atom_site_label
_atom_site_type_symbol
_atom_type_description
_atom_site_fract_x
_atom_site_fract_y
_atom_site_fract_z
_atom_type_partial_charge
C1    C     C_R   0.517289 0.854934 0.285839 0.603293
C2    C     C_R   0.245333 0.329262 0.373470 -0.120324
C3    C     C_R   0.321453 0.267422 0.269978 -0.096598
C4    C     C_R   0.736773 0.001171 0.503715 0.568857
C5    C     C_R   0.321984 0.140929 0.225615 -0.103027
C6    C     C_R   0.246889 0.076114 0.285048 -0.054044
C7    C     C_R   0.172447 0.138041 0.390378 0.055573
C8    C     C_R   0.583581 0.283764 0.000751 -0.142759
C9    C     C_R   0.487298 0.228572 0.833577 0.005698
C10   C     C_R   0.456948 0.816487 0.101397 -0.152427
C11   C     C_R   0.418518 0.735154 0.996969 -0.151247
C12   C     C_R   0.677442 0.741666 0.741371 -0.096236
C13   C     C_R   0.431990 0.611321 0.953726 -0.121599
C14   C     C_R   0.494237 0.567944 0.010350 -0.013816
C15   C     C_R   0.544413 0.654467 0.110915 0.042611
C16   C     C_R   0.482389 0.145286 0.713359 0.533820
C17   C     C_R   0.509497 0.442254 0.971001 0.014986
C18   C     C_R   0.575950 0.407377 0.031660 -0.009703
C19   C     C_R   0.642065 0.496331 0.116961 -0.099639
C20   C     C_R   0.630079 0.619138 0.153718 0.345624
C21   C     C_R   0.466339 0.350305 0.870889 -0.113009
C22   C     C_R   0.537025 0.194431 0.903037 -0.138987
C23   C     C_R   0.041407 0.937241 0.550237 -0.149152
C24   C     C_R   0.512797 0.775746 0.162780 0.031888
C25   C     C_R   0.714723 0.354789 0.343139 -0.164398
C26   C     C_R   0.325170 0.758865 0.642831 0.047826
C27   C     C_R   0.287860 0.662880 0.675279 -0.172675
C28   C     C_R   0.263009 0.999955 0.497950 0.538111
C29   C     C_R   0.354536 0.560288 0.623423 -0.148989
C30   C     C_R   0.460254 0.552993 0.538422 -0.004674
C31   C     C_R   0.495741 0.654588 0.509698 0.170637
C32   C     C_R   0.532416 0.449506 0.480670 -0.010282
C33   C     C_R   0.642178 0.453794 0.401649 0.014114
C34   C     C_R   0.129471 0.001936 0.497599 -0.002026
C35   C     C_R   0.678750 0.556825 0.380941 -0.171946
C36   C     C_R   0.603693 0.651934 0.429721 -0.070356
C37   C     C_R   0.501262 0.341257 0.497156 0.057303
C38   C     C_R   0.678257 0.250803 0.362444 0.040968
C39   C     C_R   0.665174 0.864779 0.776169 -0.098411
C40   C     C_R   0.740632 0.928549 0.715850 -0.054915
C41   C     C_R   0.827165 0.868519 0.618590 0.047986
C42   C     C_R   0.840536 0.745183 0.585806 -0.100767
C43   C     C_R   0.765773 0.682193 0.646849 -0.111177
C44   C     C_R   0.087317 0.069132 0.450472 -0.031510
C45   C     C_R   0.958223 0.068207 0.456667 -0.139056
C46   C     C_R   0.869977 0.001954 0.507743 0.010288
C47   C     C_R   0.912028 0.936358 0.556842 -0.027796
C48   C     C_R   0.171436 0.265121 0.433840 -0.110793
Cu1   Cu    Cu3+1 0.529370 0.098270 0.475420 0.941540
Cu2   Cu    Cu3+1 0.470630 0.901730 0.524580 0.941790
F1    F     F_    0.712353 0.704039 0.220943 -0.678733
H1    H     H_    0.619080 0.692484 0.787977 0.125096
H2    H     H_    0.394185 0.552813 0.875423 0.102315
H3    H     H_    0.373067 0.767425 0.951549 0.117321
H4    H     H_    0.597883 0.910619 0.850578 0.095537
H5    H     H_    0.734015 0.174007 0.318320 0.127327
H6    H     H_    0.765886 0.563742 0.325257 0.144132
H7    H     H_    0.798707 0.357735 0.282622 0.090887
H8    H     H_    0.420051 0.330204 0.556136 0.119423
H9    H     H_    0.272851 0.838056 0.683698 0.126318
H10   H     H_    0.322097 0.488726 0.651806 0.093419
H11   H     H_    0.207002 0.668040 0.740814 0.104017
H12   H     H_    0.379246 0.317396 0.223788 0.123041
H13   H     H_    0.633735 0.722826 0.403212 0.249308
H14   H     H_    0.732494 0.024542 0.744677 0.100049
H15   H     H_    0.908365 0.697573 0.512432 0.109521
H16   H     H_    0.775822 0.586994 0.620378 0.119886
H17   H     H_    0.073359 0.888846 0.589653 0.130457
H18   H     H_    0.926936 0.117503 0.417755 0.135483
H19   H     H_    0.112807 0.314191 0.513954 0.103294
H20   H     H_    0.243591 0.426965 0.406891 0.123835
H21   H     H_    0.379440 0.093216 0.144450 0.094345
H22   H     H_    0.245166 0.977792 0.248973 0.099949
H23   H     H_    0.549841 0.100223 0.876739 0.110402
H24   H     H_    0.707874 0.469851 0.150527 0.119222
H25   H     H_    0.630843 0.256704 0.049123 0.105877
H26   H     H_    0.423492 0.371134 0.816004 0.102764
H27   H     H_    0.438071 0.910517 0.136620 0.115577
N1    N     N_R   0.573890 0.246290 0.438210 -0.233822
N2    N     N_R   0.426890 0.754320 0.561170 -0.240203
O1    O     O_R   0.536940 0.972510 0.318130 -0.505888
O2    O     O_R   0.487330 0.806530 0.359650 -0.495674
O3    O     O_R   0.705160 0.082990 0.479250 -0.510531
O4    O     O_R   0.655550 0.917010 0.520760 -0.510779
O5    O     O_R   0.512670 0.193470 0.640350 -0.508393
O6    O     O_R   0.463060 0.027490 0.681870 -0.513336
O7    O     O_R   0.344450 0.082990 0.479240 -0.501761
O8    O     O_R   0.294840 0.917010 0.520750 -0.520255

loop_
_geom_bond_atom_site_label_1
_geom_bond_atom_site_label_2
_ccdc_geom_bond_type
C27   C29   A    
C41   C42   A    
Cu1   O7    S    
C19   C20   A    
C26   N2    A    
C10   H27   S    
Cu2   O4    S    
C31   N2    A    
C4    C46   S    
C45   C46   A    
C37   N1    A    
C26   C27   A    
C9    C16   S    
C20   F1    S    
C30   C31   A    
C9    C22   A    
C38   N1    A    
C1    O1    A    
C8    H25   S    
C18   C19   A    
Cu1   O1    S    
C12   C43   A    
C39   H4    S    
C35   C36   A    
C28   O8    A    
C8    C22   A    
Cu2   O8    S    
C28   C34   S    
C13   C14   A    
C16   O6    A    
C14   C17   A    
C12   H1    S    
C13   H2    S    
C15   C20   A    
C29   H10   S    
C23   C47   A    
C45   H18   S    
Cu1   O5    S    
C34   C44   A    
C39   C40   A    
C2    C48   A    
C1    O2    A    
C7    C44   S    
C8    C18   A    
Cu1   N1    S    
C23   H17   S    
C29   C30   A    
C27   H11   S    
C25   C38   A    
C4    O4    A    
C23   C34   A    
C28   O7    A    
C17   C18   A    
C41   C47   S    
C32   C37   A    
C37   H8    S    
C11   H3    S    
C40   C41   A    
C40   H14   S    
C16   O5    A    
C42   C43   A    
C22   H23   S    
C2    H20   S    
C44   C45   A    
Cu2   O2    S    
C6    H22   S    
C46   C47   A    
C15   C24   A    
C31   C36   A    
C48   H19   S    
C3    C5    A    
Cu2   N2    S    
C6    C7    A    
C3    H12   S    
C5    H21   S    
C35   H6    S    
C10   C24   A    
C7    C48   A    
Cu1   O3    S    
C12   C39   A    
C19   H24   S    
C2    C3    A    
C32   C33   A    
C30   C32   A    
C11   C13   A    
C9    C21   A    
C5    C6    A    
C4    O3    A    
C33   C35   A    
C17   C21   A    
C10   C11   A    
Cu2   O6    S    
C38   H5    S    
C1    C24   S    
C43   H16   S    
Cu1   Cu2   S    
C25   H7    S    
C21   H26   S    
C42   H15   S    
C14   C15   A    
C36   H13   S    
C26   H9    S    
C25   C33   A    
