data_mof_unit_34145.cif
_audit_creation_date              2012-12-10T16:41:51-0500
_audit_creation_method            fapswitch 2.2
_symmetry_space_group_name_H-M    P1
_symmetry_Int_Tables_number       1
_space_group_crystal_system       triclinic
_cell_length_a                    10.89235
_cell_length_b                    8.684642
_cell_length_c                    7.456368
_cell_angle_alpha                 102.797808
_cell_angle_beta                  95.346482
_cell_angle_gamma                 92.454812
_cell_volume                      683.364186432

loop_
_atom_site_label
_atom_site_type_symbol
_atom_type_description
_atom_site_fract_x
_atom_site_fract_y
_atom_site_fract_z
_atom_type_partial_charge
C1    C     C_R   0.496168 0.199736 0.453339 0.880529
C2    C     C_2   0.505445 0.968061 0.573026 -0.373358
C3    C     C_R   0.264596 0.496361 0.498649 0.833789
C4    C     C_R   0.503698 0.800259 0.546661 0.889564
C5    C     C_R   0.734485 0.496893 0.499310 0.861240
C6    C     C_2   0.920848 0.484519 0.348076 -0.173063
C7    C     C_2   0.865135 0.477879 0.498047 -0.361361
C8    C     C_2   0.051482 0.452900 0.337703 0.129002
C9    C     C_2   0.131226 0.502197 0.494297 -0.373494
C10   C     C_2   0.494310 0.031941 0.426981 -0.372435
Cu1   Cu    Cu3+1 0.513740 0.517380 0.684380 0.943612
Cu2   Cu    Cu3+1 0.486260 0.482620 0.315620 0.938121
H1    H     H_    0.868315 0.509633 0.228096 0.164858
H2    H     H_    0.913971 0.449889 0.619293 0.157315
H3    H     H_    0.098668 0.559365 0.624274 0.140941
H4    H     H_    0.483812 0.960602 0.286119 0.179235
H5    H     H_    0.515931 0.039405 0.713888 0.179270
H6    H     H_    0.403135 0.377313 0.947887 0.222616
H7    H     H_    0.596781 0.622738 0.052177 0.222381
N1    N     N_2   0.465540 0.456420 0.038510 -0.222094
N2    N     N_2   0.534460 0.543580 0.961490 -0.218611
O1    O     O_R   0.508930 0.286130 0.619780 -0.583889
O2    O     O_R   0.485720 0.256780 0.308360 -0.590381
O3    O     O_R   0.333540 0.514670 0.655670 -0.586980
O4    O     O_R   0.310330 0.485320 0.344250 -0.589982
O5    O     O_R   0.514280 0.743220 0.691640 -0.585963
O6    O     O_R   0.491070 0.713870 0.380220 -0.582628
O7    O     O_R   0.689670 0.514680 0.655750 -0.587334
O8    O     O_R   0.666460 0.485330 0.344330 -0.587480
C11   C     C_3   0.092474 0.370582 0.150999 -0.340415
C12   C     C_3   0.987465 0.293261 0.001150 -0.389593
C13   C     C_3   0.038700 0.198878 0.829274 -0.855219
H8    H     H_    0.099837 0.277115 0.771543 0.253027
H9    H     H_    0.091867 0.101096 0.863783 0.254946
H10   H     H_    0.961202 0.147269 0.722314 0.249189
H11   H     H_    0.926537 0.212391 0.055719 0.236106
H12   H     H_    0.931734 0.385742 0.958461 0.217226
H13   H     H_    0.145844 0.458369 0.095633 0.214444
H14   H     H_    0.152926 0.275259 0.174220 0.206867

loop_
_geom_bond_atom_site_label_1
_geom_bond_atom_site_label_2
_ccdc_geom_bond_type
C4    O5    A    
Cu1   Cu2   S    
C6    C7    D    
C3    C9    S    
Cu2   O8    S    
C5    O7    A    
Cu1   O1    S    
C2    C4    S    
C12   C13   S    
Cu2   O4    S    
C8    C11   S    
C13   H8    S    
Cu2   N1    S    
C9    H3    S    
C1    O1    A    
C10   H4    S    
C2    H5    S    
Cu2   O2    S    
C3    O3    A    
Cu1   O7    S    
H7    N2    S    
C11   H14   S    
C1    O2    A    
C5    O8    A    
C11   C12   S    
Cu2   O6    S    
C2    C10   D    
C13   H10   S    
Cu1   O3    S    
C3    O4    A    
C4    O6    A    
N1    N2    D    
C11   H13   S    
H6    N1    S    
C5    C7    S    
C12   H11   S    
C6    C8    S    
Cu1   O5    S    
Cu1   N2    S    
C7    H2    S    
C1    C10   S    
C12   H12   S    
C8    C9    D    
C6    H1    S    
C13   H9    S    
