data_mof_unit_6799.cif
_audit_creation_date              2012-12-10T18:00:17-0500
_audit_creation_method            fapswitch 2.2
_symmetry_space_group_name_H-M    P1
_symmetry_Int_Tables_number       1
_space_group_crystal_system       triclinic
_cell_length_a                    10.75406
_cell_length_b                    9.661231
_cell_length_c                    10.609201
_cell_angle_alpha                 89.182668
_cell_angle_beta                  92.067924
_cell_angle_gamma                 89.705952
_cell_volume                      1101.42149786

loop_
_atom_site_label
_atom_site_type_symbol
_atom_type_description
_atom_site_fract_x
_atom_site_fract_y
_atom_site_fract_z
_atom_type_partial_charge
C1    C     C_R   0.871266 0.499004 0.499873 -0.106334
C2    C     C_R   0.129009 0.500723 0.499309 -0.097354
C3    C     C_R   0.262958 0.500282 0.499345 0.901831
C4    C     C_R   0.737127 0.499667 0.500157 0.841087
C5    C     C_R   0.500227 0.500839 0.259637 0.778797
C6    C     C_R   0.499560 0.499153 0.740331 0.802045
C7    C     C_3   0.516752 0.630667 0.038456 -0.155307
C8    C     C_3   0.482733 0.369305 0.961423 -0.141624
C9    C     C_3   0.608992 0.547440 0.960327 -0.178024
C10   C     C_3   0.390506 0.452517 0.039576 -0.164023
C11   C     C_3   0.406715 0.580993 0.953250 -0.165698
C12   C     C_3   0.592764 0.418949 0.046605 -0.168535
C13   C     C_3   0.499055 0.497843 0.877378 0.029767
C14   C     C_3   0.500471 0.502120 0.122534 0.029016
C15   C     C_R   0.429460 0.077530 0.413216 0.252165
C16   C     C_R   0.567757 0.925075 0.589392 0.240086
C17   C     C_R   0.568996 0.071395 0.588372 0.216955
C18   C     C_R   0.431127 0.929814 0.410930 0.164255
C19   C     C_R   0.061743 0.454395 0.392548 0.115311
C20   C     C_R   0.938686 0.544776 0.607038 0.089395
C21   C     C_R   0.931961 0.453813 0.392358 0.069487
C22   C     C_R   0.069059 0.546283 0.606462 0.072963
Cu1   Cu    Cu3+1 0.500000 0.640660 0.500000 0.934571
Cu2   Cu    Cu3+1 0.500000 0.359340 0.500000 0.951631
H1    H     H_    0.330621 0.647457 0.912292 0.143612
H2    H     H_    0.668763 0.352135 0.087181 0.139555
H3    H     H_    0.531944 0.737966 0.071243 0.130374
H4    H     H_    0.467546 0.262015 0.928601 0.127157
H5    H     H_    0.698382 0.586356 0.924985 0.141971
H6    H     H_    0.301104 0.413606 0.074887 0.139628
N1    N     N_R   0.500000 0.852070 0.500000 -0.215516
N2    N     N_R   0.500000 0.147930 0.500000 -0.213097
O1    O     O_R   0.319640 0.618740 0.499990 -0.587486
O2    O     O_R   0.680360 0.381260 0.500010 -0.606692
O3    O     O_R   0.680360 0.618740 0.500010 -0.580504
O4    O     O_R   0.319640 0.381260 0.499990 -0.547774
O5    O     O_R   0.499970 0.618770 0.316850 -0.602959
O6    O     O_R   0.500030 0.381230 0.683150 -0.603186
O7    O     O_R   0.500030 0.618770 0.683150 -0.590563
O8    O     O_R   0.499970 0.381230 0.316850 -0.552860
N3    N     N_3   0.352582 0.154071 0.323757 -0.503180
H7    H     H_    0.260506 0.122515 0.333185 0.212013
H8    H     H_    0.379697 0.129741 0.233001 0.207250
N4    N     N_3   0.635066 0.857851 0.692022 -0.575810
H9    H     H_    0.687735 0.775482 0.661654 0.276637
H10   H     H_    0.573475 0.828573 0.761226 0.234993
N5    N     N_3   0.639372 0.135269 0.688612 -0.572643
H11   H     H_    0.696004 0.213464 0.655643 0.262584
H12   H     H_    0.579484 0.169421 0.756734 0.230113
N6    N     N_3   0.360600 0.866591 0.310598 -0.625057
H13   H     H_    0.304372 0.788171 0.343979 0.268916
H14   H     H_    0.420780 0.831552 0.243119 0.234892
N7    N     N_3   0.126203 0.411009 0.283639 -0.600346
H15   H     H_    0.097599 0.474434 0.207222 0.224478
H16   H     H_    0.099941 0.309477 0.263343 0.238651
N8    N     N_3   0.873791 0.586117 0.716369 -0.629413
H17   H     H_    0.901500 0.521532 0.792218 0.212262
H18   H     H_    0.898435 0.687757 0.738011 0.221971
N9    N     N_3   0.863406 0.410445 0.281359 -0.613658
H19   H     H_    0.809720 0.324567 0.304615 0.233345
H20   H     H_    0.803818 0.491034 0.251007 0.205643
N10   N     N_3   0.141777 0.591018 0.714381 -0.610039
H21   H     H_    0.117472 0.693191 0.733754 0.222145
H22   H     H_    0.121234 0.528315 0.791887 0.210130

loop_
_geom_bond_atom_site_label_1
_geom_bond_atom_site_label_2
_ccdc_geom_bond_type
C2    C22   A    
C15   C18   A    
Cu2   O6    S    
Cu1   Cu2   S    
Cu2   N2    S    
C1    C21   A    
N10   H21   S    
C5    O5    A    
N8    H18   S    
C22   N10   S    
C11   C13   S    
N3    H7    S    
C10   H6    S    
N6    H14   S    
N5    H11   S    
C9    H5    S    
C8    C12   S    
C1    C4    S    
C19   N7    S    
C6    O6    A    
C2    C3    S    
C4    O3    A    
N9    H19   S    
N5    H12   S    
N7    H15   S    
N4    H9    S    
C16   N1    A    
C7    C11   S    
N3    H8    S    
C18   N6    S    
C5    C14   S    
Cu2   O4    S    
C3    O4    A    
Cu1   O7    S    
C19   C21   A    
C12   C14   S    
C21   N9    S    
Cu1   O3    S    
C20   N8    S    
N7    H16   S    
C8    H4    S    
C9    C12   S    
C4    O2    A    
N9    H20   S    
C10   C11   S    
C3    O1    A    
N10   H22   S    
C8    C13   S    
C15   N2    A    
C7    H3    S    
N8    H17   S    
C15   N3    S    
C8    C10   S    
C10   C14   S    
C5    O8    A    
C12   H2    S    
C7    C9    S    
C17   N2    A    
C11   H1    S    
C6    O7    A    
Cu2   O8    S    
C1    C20   A    
C9    C13   S    
C18   N1    A    
N4    H10   S    
N6    H13   S    
C2    C19   A    
Cu1   O5    S    
C16   N4    S    
C7    C14   S    
Cu2   O2    S    
Cu1   O1    S    
C17   N5    S    
C20   C22   A    
C16   C17   A    
C6    C13   S    
Cu1   N1    S    
