data_mof_unit_52061.cif
_audit_creation_date              2012-12-10T18:25:44-0500
_audit_creation_method            fapswitch 2.2
_symmetry_space_group_name_H-M    P1
_symmetry_Int_Tables_number       1
_space_group_crystal_system       triclinic
_cell_length_a                    23.508136
_cell_length_b                    15.873399
_cell_length_c                    14.633944
_cell_angle_alpha                 89.794571
_cell_angle_beta                  90.050057
_cell_angle_gamma                 89.823613
_cell_volume                      5460.65195559

loop_
_atom_site_label
_atom_site_type_symbol
_atom_type_description
_atom_site_fract_x
_atom_site_fract_y
_atom_site_fract_z
_atom_type_partial_charge
C1    C     C_R   0.499909 0.339452 0.500193 0.820353
C2    C     C_R   0.499325 0.660408 0.499861 0.841419
C3    C     C_R   0.239910 0.576311 0.540099 0.257983
C4    C     C_R   0.764880 0.442548 0.489103 0.269013
C5    C     C_R   0.299943 0.573423 0.542176 -0.053390
C6    C     C_R   0.705088 0.434181 0.490515 -0.069449
C7    C     C_R   0.328336 0.504545 0.500485 -0.172453
C8    C     C_R   0.671184 0.507131 0.500309 -0.144884
C9    C     C_R   0.297017 0.438679 0.459399 0.166956
C10   C     C_R   0.696055 0.587300 0.510420 0.165571
C11   C     C_R   0.237015 0.441304 0.459066 0.047045
C12   C     C_R   0.756036 0.595314 0.512900 0.026344
C13   C     C_R   0.208911 0.510705 0.499331 0.251596
C14   C     C_R   0.789998 0.522258 0.501087 0.259354
C15   C     C_3   0.549268 0.970753 0.518115 0.035743
C16   C     C_3   0.442520 0.028291 0.484654 0.036744
C17   C     C_3   0.531969 0.027300 0.435776 0.049384
C18   C     C_3   0.459861 0.971664 0.566967 0.052506
C19   C     C_1   0.498481 0.249880 0.500926 -0.184947
C20   C     C_1   0.497393 0.749725 0.499564 -0.197231
C21   C     C_3   0.513359 0.025799 0.582952 0.257849
C22   C     C_3   0.478449 0.973282 0.419799 0.257181
C23   C     C_R   0.390857 0.500780 0.500063 0.830795
C24   C     C_R   0.608998 0.500992 0.500054 0.881006
C25   C     C_3   0.496259 0.082667 0.501656 -0.041765
C26   C     C_3   0.495539 0.916563 0.500999 -0.041963
C27   C     C_1   0.497271 0.174437 0.501733 -0.069462
C28   C     C_1   0.496003 0.825016 0.499814 -0.064767
C29   C     C_3   0.488067 0.579047 0.968732 -0.232627
C30   C     C_3   0.511563 0.421684 0.031063 -0.231925
C31   C     C_3   0.449813 0.523874 0.030089 0.340481
C32   C     C_3   0.549804 0.476866 0.969722 0.340820
C33   C     C_3   0.539803 0.554745 0.030602 -0.195736
C34   C     C_3   0.459827 0.445991 0.969222 -0.197825
C35   C     C_3   0.500296 0.500114 0.091723 -0.013758
C36   C     C_3   0.499325 0.500599 0.908146 -0.011645
C37   C     C_1   0.500063 0.500070 0.194249 0.135235
C38   C     C_1   0.499747 0.500276 0.805710 0.129728
C39   C     C_R   0.879715 0.555152 0.428835 0.519255
C40   C     C_R   0.119375 0.495156 0.577697 0.556912
C41   C     C_R   0.879183 0.498905 0.580203 0.543221
C42   C     C_R   0.119951 0.544252 0.423479 0.517309
C43   C     C_R   0.939525 0.500144 0.584489 -0.045495
C44   C     C_R   0.059698 0.551781 0.422694 -0.043457
C45   C     C_R   0.969480 0.527439 0.505187 -0.038643
C46   C     C_R   0.029722 0.525999 0.502582 -0.042704
C47   C     C_R   0.939223 0.555570 0.427816 -0.031819
C48   C     C_R   0.059961 0.498464 0.580202 -0.043334
C49   C     C_R   0.971300 0.474897 0.663423 0.081462
C50   C     C_R   0.028008 0.583013 0.346225 0.078342
C51   C     C_R   0.030772 0.474484 0.659236 -0.200425
C52   C     C_R   0.968512 0.583598 0.350419 -0.204346
Cu1   Cu    Cu3+1 0.500010 0.500000 0.590220 0.957272
Cu2   Cu    Cu3+1 0.499990 0.500000 0.409780 0.969676
H1    H     H_    0.477321 0.643341 0.943964 0.139129
H2    H     H_    0.522294 0.357345 0.055683 0.140103
H3    H     H_    0.426381 0.402242 0.944877 0.141410
H4    H     H_    0.573233 0.598535 0.054912 0.142034
H5    H     H_    0.054722 0.455195 0.719115 0.181801
H6    H     H_    0.944640 0.606995 0.292184 0.182096
N1    N     N_R   0.851153 0.527347 0.504080 -0.426040
N2    N     N_R   0.147777 0.515646 0.499642 -0.423326
N3    N     N_1   0.499980 0.500000 0.274190 -0.157171
N4    N     N_1   0.500020 0.500000 0.725810 -0.160094
O1    O     O_R   0.500010 0.379080 0.576170 -0.573346
O2    O     O_R   0.499990 0.620920 0.423830 -0.565339
O3    O     O_R   0.500000 0.379080 0.423800 -0.574991
O4    O     O_R   0.500000 0.620920 0.576200 -0.576042
O5    O     O_R   0.417890 0.499980 0.576200 -0.579306
O6    O     O_R   0.582110 0.500020 0.423800 -0.575804
O7    O     O_R   0.417870 0.499970 0.423830 -0.581967
O8    O     O_R   0.582130 0.500030 0.576170 -0.577394
O9    O     O_2   0.850315 0.581010 0.354484 -0.573434
O10   O     O_2   0.148843 0.470231 0.652356 -0.564948
O11   O     O_2   0.848001 0.469526 0.650492 -0.575971
O12   O     O_2   0.151151 0.564281 0.349479 -0.584436
C53   C     C_3   0.945218 0.449956 0.754645 -0.341481
C54   C     C_3   0.923734 0.527599 0.806782 -0.308065
C55   C     C_3   0.892459 0.502123 0.893847 -0.825393
H7    H     H_    0.854565 0.463566 0.876838 0.268318
H8    H     H_    0.921080 0.465370 0.939531 0.245973
H9    H     H_    0.878118 0.559460 0.930588 0.239811
H10   H     H_    0.960593 0.567819 0.825340 0.204631
H11   H     H_    0.894685 0.566101 0.763757 0.237629
H12   H     H_    0.911912 0.401417 0.745730 0.240102
H13   H     H_    0.977411 0.418182 0.798749 0.164781
C56   C     C_3   0.054343 0.618679 0.259524 -0.338553
C57   C     C_3   0.078253 0.707341 0.275790 -0.303297
C58   C     C_3   0.110447 0.739339 0.192194 -0.832942
H14   H     H_    0.147279 0.697551 0.177436 0.270078
H15   H     H_    0.081891 0.741484 0.131703 0.246689
H16   H     H_    0.126497 0.803869 0.205470 0.236397
H17   H     H_    0.042534 0.751279 0.290620 0.201644
H18   H     H_    0.107312 0.708055 0.335591 0.241731
H19   H     H_    0.086358 0.574785 0.230786 0.238205
H20   H     H_    0.021853 0.624062 0.204452 0.163739
N5    N     N_2   0.394925 0.549922 0.064774 -0.427430
H21   H     H_    0.397843 0.596867 0.113034 0.248078
C59   C     C_3   0.352494 0.567209 0.995608 -0.687729
H22   H     H_    0.311231 0.581717 0.028969 0.234171
H23   H     H_    0.346522 0.511451 0.951027 0.234986
H24   H     H_    0.365373 0.622225 0.953389 0.213689
N6    N     N_2   0.604604 0.450794 0.934685 -0.430148
H25   H     H_    0.601601 0.403243 0.887136 0.246318
C60   C     C_3   0.647486 0.434758 0.003451 -0.687486
H26   H     H_    0.688485 0.419384 0.969694 0.231122
H27   H     H_    0.634794 0.380707 0.047296 0.217198
H28   H     H_    0.653883 0.491457 0.046450 0.236858
N7    N     N_2   0.209351 0.645561 0.578152 -0.412052
H29   H     H_    0.223099 0.667561 0.640431 0.255854
C61   C     C_3   0.191596 0.710753 0.514579 -0.696100
H30   H     H_    0.145058 0.720856 0.521250 0.233224
H31   H     H_    0.201212 0.693766 0.442562 0.252536
H32   H     H_    0.213731 0.770690 0.530432 0.205055
N8    N     N_2   0.801116 0.370807 0.479944 -0.411510
H33   H     H_    0.789041 0.318387 0.516742 0.261464
C62   C     C_3   0.818081 0.351824 0.387239 -0.690302
H34   H     H_    0.848266 0.297896 0.387686 0.223415
H35   H     H_    0.839733 0.406561 0.355594 0.261367
H36   H     H_    0.780505 0.334938 0.345165 0.214449
C63   C     C_3   0.333262 0.646656 0.582710 -0.372507
C64   C     C_3   0.343360 0.634869 0.685766 -0.307369
C65   C     C_3   0.378976 0.706670 0.724383 -0.872743
H37   H     H_    0.421001 0.709391 0.689893 0.268294
H38   H     H_    0.356522 0.767659 0.714604 0.252944
H39   H     H_    0.386018 0.696429 0.798621 0.235605
H40   H     H_    0.302198 0.632756 0.722737 0.205888
H41   H     H_    0.365684 0.574473 0.699449 0.247612
H42   H     H_    0.374640 0.654459 0.547249 0.185003
H43   H     H_    0.310605 0.707097 0.570295 0.197113
C66   C     C_3   0.677739 0.347579 0.485123 -0.407468
C67   C     C_3   0.669150 0.311101 0.581316 -0.321096
C68   C     C_3   0.654449 0.217777 0.577790 -0.905641
H44   H     H_    0.690152 0.181569 0.547259 0.254614
H45   H     H_    0.615527 0.207720 0.536485 0.258557
H46   H     H_    0.646989 0.194042 0.648188 0.243715
H47   H     H_    0.708527 0.318561 0.622601 0.228334
H48   H     H_    0.634239 0.345627 0.616235 0.231764
H49   H     H_    0.636210 0.350433 0.449011 0.189712
H50   H     H_    0.703984 0.304146 0.443445 0.210114
N9    N     N_2   0.325613 0.369627 0.417244 -0.435037
H51   H     H_    0.355672 0.386568 0.369485 0.275337
C69   C     C_3   0.345030 0.304361 0.479099 -0.687811
H52   H     H_    0.365757 0.253579 0.439258 0.220379
H53   H     H_    0.308740 0.276878 0.516990 0.232194
H54   H     H_    0.376325 0.329724 0.528595 0.219993
N10   N     N_2   0.659554 0.659191 0.514935 -0.436790
H55   H     H_    0.668239 0.706749 0.468946 0.243906
C70   C     C_3   0.645172 0.688094 0.605703 -0.669124
H56   H     H_    0.679884 0.727380 0.633844 0.218137
H57   H     H_    0.636894 0.634115 0.652328 0.251028
H58   H     H_    0.606130 0.727360 0.602115 0.221439
C71   C     C_3   0.203189 0.371329 0.413365 -0.348219
C72   C     C_3   0.178325 0.309264 0.483292 -0.335616
C73   C     C_3   0.153026 0.232352 0.436206 -0.871265
H59   H     H_    0.186412 0.198066 0.397462 0.258638
H60   H     H_    0.134976 0.189025 0.488309 0.248250
H61   H     H_    0.118522 0.251905 0.388667 0.258125
H62   H     H_    0.211765 0.287944 0.531714 0.226149
H63   H     H_    0.144227 0.340134 0.523282 0.235637
H64   H     H_    0.230196 0.335991 0.364403 0.228624
H65   H     H_    0.168377 0.398320 0.371170 0.205569
C74   C     C_3   0.784023 0.680114 0.531252 -0.366297
C75   C     C_3   0.804346 0.686896 0.630725 -0.337166
C76   C     C_3   0.826578 0.774890 0.651727 -0.882673
H66   H     H_    0.862117 0.791193 0.604975 0.259727
H67   H     H_    0.792035 0.822125 0.644098 0.260062
H68   H     H_    0.842427 0.776882 0.723187 0.247445
H69   H     H_    0.769010 0.671869 0.678342 0.230443
H70   H     H_    0.839209 0.641576 0.643784 0.230107
H71   H     H_    0.820461 0.689872 0.484405 0.215772
H72   H     H_    0.754789 0.733251 0.516619 0.196248
C77   C     C_3   0.571128 0.066859 0.363818 -0.381163
C78   C     C_3   0.598585 0.000667 0.301808 -0.328798
C79   C     C_3   0.637880 0.041959 0.232023 -0.869594
H73   H     H_    0.613548 0.086527 0.188113 0.254422
H74   H     H_    0.672537 0.076484 0.267281 0.253559
H75   H     H_    0.657178 0.992792 0.187945 0.246089
H76   H     H_    0.623797 0.955288 0.343094 0.217794
H77   H     H_    0.565231 0.965144 0.264716 0.252364
H78   H     H_    0.546203 0.112133 0.321832 0.194494
H79   H     H_    0.604488 0.103839 0.399122 0.186925
C80   C     C_3   0.420802 0.931505 0.638679 -0.387079
C81   C     C_3   0.393444 0.997211 0.701420 -0.325601
C82   C     C_3   0.353691 0.955556 0.770266 -0.879300
H80   H     H_    0.318694 0.922509 0.734216 0.251609
H81   H     H_    0.377528 0.909668 0.813278 0.257359
H82   H     H_    0.334859 0.004339 0.815343 0.248402
H83   H     H_    0.426852 0.031864 0.739336 0.252618
H84   H     H_    0.368643 0.043447 0.660609 0.218132
H85   H     H_    0.387447 0.894741 0.603076 0.185497
H86   H     H_    0.445760 0.885877 0.680165 0.195308
C83   C     C_3   0.606420 0.927744 0.538616 -0.372310
C84   C     C_3   0.655290 0.990460 0.549135 -0.357432
C85   C     C_3   0.709139 0.946195 0.582360 -0.878104
H87   H     H_    0.701823 0.916947 0.650409 0.251656
H88   H     H_    0.722132 0.896693 0.533045 0.254781
H89   H     H_    0.744125 0.992673 0.588485 0.248571
H90   H     H_    0.664667 0.020856 0.482604 0.223688
H91   H     H_    0.643622 0.040093 0.598779 0.233849
H92   H     H_    0.601687 0.890202 0.602318 0.202119
H93   H     H_    0.616509 0.882906 0.482813 0.191361
C86   C     C_3   0.384972 0.069940 0.464241 -0.378387
C87   C     C_3   0.336385 0.006352 0.454962 -0.355422
C88   C     C_3   0.282679 0.049083 0.418563 -0.861756
H94   H     H_    0.269254 0.100605 0.465092 0.259557
H95   H     H_    0.290394 0.075501 0.349294 0.253667
H96   H     H_    0.247777 0.002297 0.414128 0.243281
H97   H     H_    0.348606 0.954543 0.408132 0.224166
H98   H     H_    0.326357 0.978595 0.522597 0.220031
H99   H     H_    0.374794 0.114860 0.519885 0.188672
H100  H     H_    0.389275 0.106979 0.400139 0.202962
N11   N     N_2   0.460600 0.937416 0.333372 -0.429249
H101  H     H_    0.435155 0.885005 0.340176 0.251559
C89   C     C_3   0.440813 0.995368 0.263717 -0.721002
H102  H     H_    0.444433 0.964792 0.195890 0.231905
H103  H     H_    0.466428 0.053742 0.262535 0.233955
H104  H     H_    0.395507 0.011756 0.275097 0.229020
N12   N     N_2   0.531001 0.061369 0.669616 -0.429826
H105  H     H_    0.556276 0.113947 0.663273 0.254818
C90   C     C_3   0.550566 0.003266 0.739302 -0.726586
H106  H     H_    0.547109 0.033924 0.807107 0.232298
H107  H     H_    0.595768 0.986329 0.727964 0.228345
H108  H     H_    0.524690 0.945162 0.740575 0.234624

loop_
_geom_bond_atom_site_label_1
_geom_bond_atom_site_label_2
_ccdc_geom_bond_type
C69   H54   S    
C56   C57   S    
C7    C9    A    
C76   H66   S    
C78   H77   S    
C73   H60   S    
C18   C21   S    
C23   O5    A    
C4    N8    S    
C75   H70   S    
N10   H55   S    
C18   C26   S    
C41   N1    A    
C63   H43   S    
C80   C81   S    
Cu1   O5    S    
C80   H86   S    
N5    H21   S    
C83   H92   S    
C65   H37   S    
C79   H74   S    
C88   H94   S    
C60   H27   S    
C29   C36   S    
C33   H4    S    
C30   C35   S    
C32   C36   S    
C75   C76   S    
N10   C70   S    
C90   H108  S    
C2    O4    A    
N7    C61   S    
Cu1   N4    S    
C82   H81   S    
C41   O11   S    
Cu2   N3    S    
C67   H48   S    
N8    H33   S    
C29   C33   S    
C40   N2    A    
C81   C82   S    
C40   C48   A    
C64   H40   S    
Cu1   O4    S    
C78   C79   S    
C15   C26   S    
C66   H50   S    
C52   H6    S    
C33   C35   S    
C74   C75   S    
N9    H51   S    
C54   H10   S    
N6    C60   S    
C48   C51   A    
C84   H91   S    
C13   N2    S    
C84   H90   S    
Cu1   Cu2   S    
C44   C46   A    
C67   C68   S    
C49   C51   A    
C56   H19   S    
C87   H97   S    
C34   H3    S    
C1    O1    A    
C58   H15   S    
C16   C86   S    
Cu1   O1    S    
C42   N2    A    
C34   C36   S    
C3    C13   A    
C53   C54   S    
C10   N10   S    
C85   H89   S    
C45   C47   A    
C84   C85   S    
C53   H12   S    
C76   H67   S    
C77   C78   S    
C73   H61   S    
C4    C14   A    
C41   C43   A    
C70   H57   S    
C86   H99   S    
C75   H69   S    
C42   C44   A    
C19   C27   T    
C37   N3    T    
C17   C77   S    
C79   H75   S    
C38   N4    T    
C64   C65   S    
N11   C89   S    
C39   N1    A    
C60   H28   S    
C46   C48   A    
C1    C19   S    
C30   C34   S    
C62   H34   S    
C24   O6    A    
C23   O7    A    
C66   H49   S    
C55   H7    S    
C4    C6    A    
N5    C59   S    
C89   H104  S    
N12   H105  S    
C5    C7    A    
C9    N9    S    
C54   C55   S    
C43   C49   A    
C82   H82   S    
C6    C8    A    
Cu2   O3    S    
C29   H1    S    
N8    C62   S    
C67   H47   S    
N11   H101  S    
C14   N1    S    
C2    C20   S    
C83   H93   S    
C65   H39   S    
C71   H64   S    
N9    C69   S    
C89   H102  S    
C72   H63   S    
C90   H106  S    
N12   C90   S    
C1    O3    A    
C9    C11   A    
C50   C52   A    
C59   H22   S    
Cu2   O6    S    
C29   C31   S    
C56   H20   S    
C72   C73   S    
C31   C34   S    
C45   C46   A    
C61   H31   S    
C57   C58   S    
C58   H16   S    
C32   N6    S    
C74   H72   S    
C43   C45   A    
C63   C64   S    
C10   C12   A    
C50   C56   S    
C68   H46   S    
C70   H58   S    
C39   O9    S    
C16   C18   S    
C59   H23   S    
C12   C14   A    
C77   H79   S    
C76   H68   S    
C22   C26   S    
C68   H44   S    
C31   C35   S    
C86   H100  S    
C62   H36   S    
C51   H5    S    
C66   C67   S    
C3    C5    A    
N6    H25   S    
C74   H71   S    
C24   O8    A    
C39   C47   A    
C88   H95   S    
C88   H96   S    
C44   C50   A    
C16   C25   S    
C69   H53   S    
C21   C25   S    
C57   H17   S    
C5    C63   S    
C16   C22   S    
C61   H30   S    
C35   C37   S    
C42   O12   S    
Cu2   O7    S    
C63   H42   S    
C6    C66   S    
C2    O2    A    
C80   H85   S    
C53   H13   S    
C55   H9    S    
C55   H8    S    
C15   C17   S    
C47   C52   A    
Cu2   O2    S    
C25   C27   S    
C20   C28   T    
C60   H26   S    
C26   C28   S    
C17   C22   S    
C71   H65   S    
C17   C25   S    
C32   C33   S    
C49   C53   S    
C62   H35   S    
C58   H14   S    
C72   H62   S    
C90   H107  S    
C79   H73   S    
C70   H56   S    
C12   C74   S    
C30   C32   S    
C11   C13   A    
C82   H80   S    
C30   H2    S    
C18   C80   S    
C3    N7    S    
C7    C23   S    
C36   C38   S    
C8    C24   S    
C40   O10   S    
C61   H32   S    
C81   H84   S    
C31   N5    S    
C64   H41   S    
C89   H103  S    
C65   H38   S    
C11   C71   S    
C77   H78   S    
C85   H87   S    
C15   C83   S    
C54   H11   S    
C15   C21   S    
C59   H24   S    
C87   C88   S    
C8    C10   A    
C83   C84   S    
C21   N12   S    
C22   N11   S    
C87   H98   S    
C73   H59   S    
C68   H45   S    
C57   H18   S    
C81   H83   S    
C86   C87   S    
C71   C72   S    
N7    H29   S    
Cu1   O8    S    
C78   H76   S    
C69   H52   S    
C85   H88   S    
