data_mof_unit_47277.cif
_audit_creation_date              2012-12-10T17:28:32-0500
_audit_creation_method            fapswitch 2.2
_symmetry_space_group_name_H-M    P1
_symmetry_Int_Tables_number       1
_space_group_crystal_system       triclinic
_cell_length_a                    10.461535
_cell_length_b                    11.983121
_cell_length_c                    12.90487
_cell_angle_alpha                 92.936496
_cell_angle_beta                  90.110792
_cell_angle_gamma                 86.587115
_cell_volume                      1612.78755718

loop_
_atom_site_label
_atom_site_type_symbol
_atom_type_description
_atom_site_fract_x
_atom_site_fract_y
_atom_site_fract_z
_atom_type_partial_charge
C1    C     C_R   0.497729 0.521706 0.700456 0.905136
C2    C     C_R   0.503051 0.562156 0.132130 -0.275002
C3    C     C_R   0.499218 0.446520 0.974456 0.179407
C4    C     C_R   0.500779 0.553483 0.025544 0.179405
C5    C     C_R   0.597070 0.926356 0.395857 -0.314263
C6    C     C_R   0.402929 0.073644 0.604142 -0.314254
C7    C     C_R   0.562188 0.817405 0.406887 0.007038
C8    C     C_R   0.437812 0.182595 0.593113 0.007035
C9    C     C_R   0.420621 0.874142 0.545493 0.244948
C10   C     C_R   0.579378 0.125858 0.454506 0.244942
C11   C     C_R   0.454742 0.986882 0.537875 0.046923
C12   C     C_R   0.502273 0.478293 0.299544 0.905143
C13   C     C_R   0.545257 0.013118 0.462124 0.046923
C14   C     C_R   0.739469 0.503043 0.517910 0.914660
C15   C     C_R   0.260531 0.496957 0.482091 0.914667
C16   C     C_R   0.906125 0.310997 0.588188 -0.100907
C17   C     C_R   0.093875 0.688999 0.411801 -0.100902
C18   C     C_R   0.967930 0.205484 0.570660 -0.170198
C19   C     C_R   0.032061 0.794515 0.429312 -0.170196
C20   C     C_R   0.069370 0.191193 0.500746 -0.156747
C21   C     C_R   0.930615 0.808813 0.499223 -0.156755
C22   C     C_R   0.116504 0.283813 0.455102 0.210269
C23   C     C_R   0.503064 0.465602 0.188318 -0.054846
C24   C     C_R   0.883489 0.716195 0.544883 0.210280
C25   C     C_R   0.064445 0.393433 0.483662 0.033544
C26   C     C_R   0.935555 0.606571 0.516336 0.033542
C27   C     C_R   0.949133 0.404553 0.538972 0.062949
C28   C     C_R   0.050869 0.595448 0.461027 0.062953
C29   C     C_R   0.123418 0.492370 0.460854 -0.218529
C30   C     C_R   0.876583 0.507632 0.539147 -0.218527
C31   C     C_R   0.496937 0.534400 0.811681 -0.054848
C32   C     C_R   0.499795 0.650188 0.969393 -0.201282
C33   C     C_R   0.500201 0.349815 0.030607 -0.201278
C34   C     C_R   0.497836 0.640649 0.862147 -0.142273
C35   C     C_R   0.502162 0.359353 0.137852 -0.142273
C36   C     C_R   0.496948 0.437846 0.867869 -0.275004
H1    H     H_    0.890305 0.892352 0.519609 0.163239
H2    H     H_    0.495635 0.355439 0.829018 0.160136
H3    H     H_    0.502062 0.284169 0.180936 0.200043
H4    H     H_    0.497935 0.715833 0.819063 0.200041
H5    H     H_    0.500874 0.732522 0.008233 0.151558
H6    H     H_    0.499121 0.267481 0.991767 0.151558
H7    H     H_    0.390327 0.248794 0.641221 0.164821
H8    H     H_    0.609674 0.751206 0.358779 0.164821
H9    H     H_    0.109671 0.107659 0.480345 0.163244
H10   H     H_    0.666646 0.940548 0.336922 0.184410
H11   H     H_    0.333353 0.059453 0.663077 0.184411
H12   H     H_    0.824013 0.319312 0.639615 0.152056
H13   H     H_    0.175990 0.680679 0.360376 0.152054
H14   H     H_    0.932669 0.133815 0.606897 0.160315
H15   H     H_    0.067318 0.866181 0.393062 0.160309
H16   H     H_    0.504366 0.644563 0.170980 0.160135
I1    I     I_    0.240920 0.247955 0.325975 -0.373142
I2    I     I_    0.759068 0.752066 0.674005 -0.373136
I3    I     I_    0.713704 0.172888 0.343875 -0.356522
I4    I     I_    0.286291 0.827112 0.656120 -0.356510
N1    N     N_R   0.523130 0.207800 0.519340 -0.113786
N2    N     N_R   0.476870 0.792200 0.480660 -0.113785
O1    O     O_R   0.506170 0.421700 0.658830 -0.658722
O2    O     O_R   0.493830 0.578300 0.341170 -0.658721
O3    O     O_R   0.491330 0.609310 0.646410 -0.579943
O4    O     O_R   0.508670 0.390690 0.353590 -0.579941
O5    O     O_R   0.690650 0.406190 0.506220 -0.592590
O6    O     O_R   0.309350 0.593810 0.493780 -0.592591
O7    O     O_R   0.675800 0.593810 0.493800 -0.610368
O8    O     O_R   0.324200 0.406190 0.506200 -0.610368
Zn1   Zn    Zn3+2 0.509910 0.374730 0.508290 0.977646
Zn2   Zn    Zn3+2 0.490090 0.625270 0.491710 0.977646

loop_
_geom_bond_atom_site_label_1
_geom_bond_atom_site_label_2
_ccdc_geom_bond_type
C35   H3    S    
C15   O6    A    
C15   C29   S    
C8    N1    A    
C25   C27   A    
C12   O4    A    
C5    H10   S    
C7    N2    A    
C5    C13   A    
C20   H9    S    
C12   C23   S    
C8    H7    S    
C32   H5    S    
O7    Zn2   S    
O1    Zn1   S    
C16   H12   S    
C16   C27   A    
C36   H2    S    
O8    Zn1   S    
C31   C34   A    
C9    I4    S    
C7    H8    S    
C27   C30   A    
C10   I3    S    
C9    C11   A    
O3    Zn2   S    
C18   H14   S    
C4    C32   A    
C2    H16   S    
C3    C36   A    
N1    Zn1   S    
C34   H4    S    
C2    C4    A    
O6    Zn2   S    
N2    Zn2   S    
C28   C29   A    
C17   C19   A    
C14   O7    A    
C24   C26   A    
C26   C30   A    
C22   I1    S    
C23   C35   A    
C1    O1    A    
C25   C29   A    
O5    Zn1   S    
C11   C13   A    
O4    Zn1   S    
C6    H11   S    
C14   O5    A    
C6    C11   A    
C24   I2    S    
C3    C4    A    
C12   O2    A    
C19   H15   S    
C1    C31   S    
C10   N1    A    
C21   H1    S    
O2    Zn2   S    
C18   C20   A    
C16   C18   A    
C9    N2    A    
C21   C24   A    
C17   H13   S    
C2    C23   A    
C5    C7    A    
C33   H6    S    
C3    C33   A    
C31   C36   A    
C6    C8    A    
C33   C35   A    
C32   C34   A    
C14   C30   S    
C15   O8    A    
C26   C28   A    
C10   C13   A    
C17   C28   A    
C20   C22   A    
C19   C21   A    
C22   C25   A    
C1    O3    A    
