data_mof_unit_54882.cif
_audit_creation_date              2012-12-11T17:00:23-0500
_audit_creation_method            fapswitch 2.2
_symmetry_space_group_name_H-M    P1
_symmetry_Int_Tables_number       1
_space_group_crystal_system       triclinic
_cell_length_a                    6.980881
_cell_length_b                    13.705109
_cell_length_c                    20.189637
_cell_angle_alpha                 102.981085
_cell_angle_beta                  90.112
_cell_angle_gamma                 90.326769
_cell_volume                      1882.21309209

loop_
_atom_site_label
_atom_site_type_symbol
_atom_type_description
_atom_site_fract_x
_atom_site_fract_y
_atom_site_fract_z
_atom_type_partial_charge
O1    O     O_R   0.506770 0.599700 0.449550 -0.541404
O2    O     O_R   0.179980 0.595740 0.587960 -0.545390
O3    O     O_R   0.004580 0.400300 0.550450 -0.540846
C1    C     C_R   0.348389 0.618332 0.614722 0.708109
O4    O     O_R   0.177380 0.611700 0.452380 -0.533478
O5    O     O_R   0.001970 0.416370 0.413900 -0.548166
C2    C     C_R   0.345665 0.636936 0.434819 0.755099
O6    O     O_R   0.509390 0.583630 0.586100 -0.539053
O7    O     O_3   0.337530 0.435890 0.487530 -0.374245
V1    V     V_3+5 0.064660 0.511890 0.502310 1.436866
O8    O     O_R   0.671950 0.404260 0.412040 -0.527626
C3    C     C_R   0.840284 0.384367 0.384403 0.715060
O9    O     O_R   0.674540 0.388300 0.547620 -0.543460
C4    C     C_R   0.843314 0.362116 0.564318 0.687982
V2    V     V_3+5 0.564030 0.488110 0.497690 1.442045
O10   O     O_3   0.841030 0.564110 0.512470 -0.373693
C5    C     C_R   0.894579 0.112998 0.609909 -0.164485
H1    H     H_    0.889638 0.163365 0.516727 0.103135
H2    H     H_    0.921979 0.988454 0.692529 0.122199
H3    H     H_    0.915605 0.035602 0.583814 0.117849
C6    C     C_R   0.852796 0.285419 0.604002 -0.026267
C7    C     C_R   0.832685 0.312884 0.931623 -0.249873
C8    C     C_R   0.811488 0.389184 0.897006 0.032487
C9    C     C_R   0.819114 0.366860 0.825688 -0.153167
C10   C     C_R   0.848039 0.267529 0.787871 0.038470
C11   C     C_R   0.867636 0.190384 0.824317 0.068795
C12   C     C_R   0.856983 0.241977 0.715209 0.081338
C13   C     C_R   0.884115 0.140185 0.681125 0.147363
C14   C     C_R   0.901485 0.066124 0.718174 -0.204772
C15   C     C_R   0.893535 0.090652 0.788566 -0.196737
C16   C     C_R   0.841253 0.313724 0.674882 -0.214026
C17   C     C_R   0.879570 0.185320 0.571609 -0.177738
C18   C     C_R   0.859535 0.214405 0.896125 -0.061801
H4    H     H_    0.822282 0.392353 0.696611 0.090607
H5    H     H_    0.825092 0.329846 0.986711 0.108524
H6    H     H_    0.801535 0.428507 0.801344 0.140344
H7    H     H_    0.908065 0.030379 0.814829 0.103619
C19   C     C_R   0.700767 0.195550 0.222547 -0.020003
C20   C     C_R   0.863587 0.190612 0.181906 -0.120001
C21   C     C_R   0.014062 0.257205 0.207185 -0.110016
H8    H     H_    0.131018 0.265856 0.174272 0.208797
C22   C     C_R   0.009142 0.317457 0.273734 -0.194272
H9    H     H_    0.123801 0.369277 0.291547 0.143943
C23   C     C_R   0.849607 0.317200 0.315788 -0.088957
C24   C     C_R   0.692686 0.258752 0.287792 -0.013913
C25   C     C_3   0.496949 0.295928 0.276378 0.059598
C26   C     C_3   0.503363 0.225520 0.205974 0.326702
H10   H     H_    0.390499 0.275804 0.312007 0.123911
C27   C     C_R   0.503296 0.683120 0.728543 0.073766
C28   C     C_R   0.352309 0.685261 0.683504 -0.097669
C29   C     C_R   0.197432 0.749024 0.707462 -0.185704
H11   H     H_    0.077461 0.753467 0.674365 0.141580
C30   C     C_R   0.200856 0.812376 0.772898 -0.217642
H12   H     H_    0.084647 0.864285 0.787980 0.124367
C31   C     C_R   0.357635 0.812910 0.816870 -0.117319
C32   C     C_R   0.506334 0.744710 0.793910 0.197472
C33   C     C_3   0.716624 0.764414 0.788856 -0.241091
C34   C     C_3   0.710889 0.697861 0.717508 -0.512816
H13   H     H_    0.749373 0.844294 0.790088 0.114220
H14   H     H_    0.790922 0.626335 0.710575 0.164655
H15   H     H_    0.736071 0.739851 0.677140 0.179511
C35   C     C_R   0.287403 0.884185 0.386622 -0.198677
H16   H     H_    0.230204 0.002141 0.301788 0.120866
H17   H     H_    0.256354 0.961421 0.410747 0.109483
C36   C     C_R   0.349934 0.714308 0.395323 -0.052982
C37   C     C_R   0.363047 0.677672 0.064854 -0.106975
C38   C     C_R   0.362004 0.601334 0.101822 -0.031942
C39   C     C_R   0.359217 0.626698 0.173175 -0.151962
C40   C     C_R   0.345012 0.726821 0.209934 0.059949
C41   C     C_R   0.329479 0.802590 0.172438 0.038817
C42   C     C_R   0.338660 0.754131 0.282799 0.086533
C43   C     C_R   0.299786 0.855017 0.315584 0.115561
C44   C     C_R   0.268136 0.926058 0.277235 -0.189061
C45   C     C_R   0.283247 0.900339 0.207053 -0.205576
C46   C     C_R   0.367099 0.685062 0.324459 -0.285281
C47   C     C_R   0.310250 0.814188 0.426843 0.199046
C48   C     C_R   0.354053 0.779216 0.100806 -0.105648
H18   H     H_    0.398854 0.607494 0.303538 0.127084
H19   H     H_    0.362310 0.565908 0.198823 0.147087
H20   H     H_    0.249853 0.956894 0.179666 0.128234
O11   O     O_R   0.203450 0.916320 0.913910 -0.539258
O12   O     O_R   0.535520 0.888300 0.047620 -0.517772
O13   O     O_R   0.710860 0.083650 0.086100 -0.562603
C49   C     C_R   0.366022 0.861045 0.063870 0.769841
O14   O     O_R   0.532860 0.904250 0.912040 -0.516988
O15   O     O_R   0.708190 0.099710 0.949550 -0.549988
C50   C     C_R   0.364752 0.883226 0.884582 0.770513
O16   O     O_R   0.206120 0.900260 0.050460 -0.543940
O17   O     O_3   0.375280 0.064080 0.012470 -0.398472
V3    V     V_3+5 0.648180 0.988110 0.997690 1.516329
O18   O     O_R   0.038220 0.111740 0.952370 -0.544671
C51   C     C_R   0.869498 0.137284 0.935413 0.680705
O19   O     O_R   0.040880 0.095790 0.087940 -0.536788
C52   C     C_R   0.872141 0.120262 0.114082 0.687053
V4    V     V_3+5 0.148800 0.011950 0.002300 1.471048
O20   O     O_3   0.871820 0.935920 0.987530 -0.332630
N1    N     N_3   0.496474 0.403464 0.276406 -0.668979
H21   H     H_    0.380885 0.418442 0.247484 0.247030
H22   H     H_    0.619471 0.423985 0.253179 0.239434
N2    N     N_3   0.492125 0.276515 0.149169 -0.610229
H23   H     H_    0.478614 0.223939 0.103222 0.262323
H24   H     H_    0.616787 0.317901 0.146067 0.221283
N3    N     N_3   0.367904 0.142097 0.198382 -0.672742
H25   H     H_    0.405343 0.088387 0.155042 0.239100
H26   H     H_    0.381638 0.108885 0.239926 0.199520
C53   C     C_2   0.834653 0.721164 0.837504 0.551155
H27   H     H_    0.932539 0.659889 0.818935 0.045237
O21   O     O_2   0.825115 0.756034 0.898466 -0.468677
N4    N     N_3   0.289092 0.843191 0.499447 -0.682211
H28   H     H_    0.423033 0.836160 0.521116 0.213280
H29   H     H_    0.251661 0.918705 0.514457 0.225580
C54   C     C_2   0.356126 0.649934 0.989011 0.418629
H30   H     H_    0.289009 0.580329 0.962891 0.035749
O22   O     O_2   0.425846 0.703538 0.954570 -0.502173
C55   C     C_2   0.367604 0.493598 0.066910 0.330303
H31   H     H_    0.425269 0.469966 0.016076 0.035617
O23   O     O_2   0.305582 0.429501 0.094627 -0.531094
C56   C     C_2   0.778453 0.492067 0.936567 0.357623
H32   H     H_    0.787898 0.509022 0.991663 0.044681
O24   O     O_2   0.737412 0.558882 0.908304 -0.510157

loop_
_geom_bond_atom_site_label_1
_geom_bond_atom_site_label_2
_ccdc_geom_bond_type
C31   C32   A    
O19   C52   A    
C44   C45   A    
V4    O20   S    
C1    O6    A    
C8    C56   S    
C54   O22   D    
N1    H21   S    
C30   H12   S    
C7    H5    S    
C6    C16   A    
C9    H6    S    
C36   C47   A    
C4    C6    S    
C13   C14   A    
N4    H29   S    
O5    C3    A    
C19   C20   A    
O11   V4    S    
C33   H13   S    
C53   H27   S    
C34   H14   S    
C55   H31   S    
C5    H3    S    
C32   C33   S    
C40   C42   A    
C38   C55   S    
C56   H32   S    
C19   C24   A    
C35   H17   S    
N3    H25   S    
O8    V2    S    
C39   C40   A    
C55   O23   D    
C41   C45   A    
C8    C9    A    
O1    V2    S    
O7    V1    S    
C39   H19   S    
C21   C22   A    
C33   C53   S    
O16   V4    S    
O19   V4    S    
C45   H20   S    
O9    C4    A    
C41   C48   A    
C35   C47   A    
C22   C23   A    
C7    C18   A    
C54   H30   S    
N1    H22   S    
C30   C31   A    
C6    C17   A    
C25   H10   S    
C26   N3    S    
O14   C50   A    
C12   C16   A    
C29   H11   S    
C9    C10   A    
O15   V3    S    
C18   C51   S    
C20   C21   A    
O4    C2    A    
C47   N4    S    
H16   C44   S    
C48   C49   S    
C10   C11   A    
C24   C25   S    
O13   C52   A    
C26   N2    S    
C38   C39   A    
C15   H7    S    
C1    C28   S    
C29   C30   A    
O17   V4    S    
O2    C1    A    
C20   C52   S    
C14   C15   A    
C2    C36   S    
C11   C18   A    
O14   V3    S    
N2    H24   S    
C28   C29   A    
C16   H4    S    
C35   C43   A    
N3    H26   S    
C19   C26   S    
O11   C50   A    
O3    C4    A    
C21   H8    S    
C25   N1    S    
C11   C15   A    
O6    V2    S    
O12   C49   A    
O9    V2    S    
H1    C17   S    
C22   H9    S    
O2    V1    S    
O18   C51   A    
C23   C24   A    
O13   V3    S    
C25   C26   S    
O1    C2    A    
C5    C13   A    
C49   O16   A    
C43   C44   A    
C36   C46   A    
O5    V1    S    
O8    C3    A    
V3    O20   S    
C10   C12   A    
C27   C32   A    
O12   V3    S    
O7    V2    S    
C42   C43   A    
C3    C23   S    
O3    V1    S    
V1    O10   S    
N4    H28   S    
C42   C46   A    
C33   C34   S    
C53   O21   D    
C34   H15   S    
N2    H23   S    
C37   C38   A    
C37   C48   A    
C31   C50   S    
C40   C41   A    
C46   H18   S    
C56   O24   D    
C27   C34   S    
O18   V4    S    
O4    V1    S    
C27   C28   A    
C12   C13   A    
C5    C17   A    
C7    C8    A    
O15   C51   A    
C37   C54   S    
O17   V3    S    
V2    O10   S    
H2    C14   S    
