data_mof_unit_48542.cif
_audit_creation_date              2012-12-10T20:42:43-0500
_audit_creation_method            fapswitch 2.2
_symmetry_space_group_name_H-M    P1
_symmetry_Int_Tables_number       1
_space_group_crystal_system       triclinic
_cell_length_a                    8.913034
_cell_length_b                    10.677101
_cell_length_c                    9.875156
_cell_angle_alpha                 90.06398
_cell_angle_beta                  89.992143
_cell_angle_gamma                 89.989887
_cell_volume                      939.772208195

loop_
_atom_site_label
_atom_site_type_symbol
_atom_type_description
_atom_site_fract_x
_atom_site_fract_y
_atom_site_fract_z
_atom_type_partial_charge
C1    C     C_R   0.495060 0.259974 0.499988 0.872410
C2    C     C_R   0.440922 0.401338 0.928619 0.214487
C3    C     C_3   0.282979 0.355861 0.922706 -0.508171
C4    C     C_R   0.218719 0.499898 0.499990 0.932349
C5    C     C_3   0.282870 0.355887 0.076573 -0.510431
C6    C     C_R   0.495199 0.740067 0.500050 0.871672
C7    C     C_R   0.781281 0.500005 0.500015 0.936386
C8    C     C_1   0.065403 0.499863 0.500009 -0.207236
C9    C     C_1   0.934618 0.499909 0.500009 -0.204727
C10   C     C_R   0.468057 0.064135 0.622853 0.125482
C11   C     C_R   0.470176 0.128668 0.500444 -0.100166
C12   C     C_R   0.443025 0.935148 0.378861 -0.228523
C13   C     C_R   0.442926 0.064666 0.378798 -0.228050
C14   C     C_R   0.470386 0.871445 0.500574 -0.100284
C15   C     C_R   0.468112 0.936348 0.622941 0.142277
C16   C     C_3   0.572124 0.929562 0.741500 -0.496067
C17   C     C_3   0.572156 0.071549 0.741299 -0.473524
C18   C     C_R   0.440917 0.401302 0.071034 0.216393
C19   C     C_R   0.570807 0.591588 0.072037 -0.130315
C20   C     C_R   0.570985 0.591497 0.928133 -0.130690
H1    H     H_    0.204938 0.426054 0.121147 0.226514
H2    H     H_    0.205088 0.425994 0.878204 0.225955
H3    H     H_    0.432569 0.113462 0.283139 0.166932
H4    H     H_    0.275014 0.260405 0.878225 0.197879
H5    H     H_    0.274653 0.260432 0.120732 0.194369
H6    H     H_    0.432635 0.886096 0.283220 0.171173
H7    H     H_    0.516817 0.888965 0.832295 0.201611
H8    H     H_    0.682906 0.888089 0.715373 0.201363
H9    H     H_    0.517092 0.112782 0.832001 0.200307
H10   H     H_    0.682936 0.112782 0.714870 0.206019
H11   H     H_    0.625659 0.666803 0.126267 0.148233
H12   H     H_    0.626344 0.666395 0.874066 0.145670
N1    N     N_R   0.499010 0.499140 0.142800 -0.105363
N2    N     N_R   0.499010 0.499180 0.857150 -0.104239
O1    O     O_R   0.500020 0.316790 0.614690 -0.618503
O2    O     O_R   0.500000 0.316760 0.385350 -0.623337
O3    O     O_R   0.285350 0.500020 0.614650 -0.617646
O4    O     O_R   0.285340 0.499980 0.385310 -0.617656
O5    O     O_R   0.500000 0.683240 0.614650 -0.621401
O6    O     O_R   0.499980 0.683210 0.385310 -0.629398
O7    O     O_R   0.714660 0.500020 0.614690 -0.615344
O8    O     O_R   0.714650 0.499980 0.385350 -0.611129
Zn1   Zn    Zn3+2 0.500010 0.500020 0.653130 0.942170
Zn2   Zn    Zn3+2 0.499990 0.499980 0.346870 0.942549

loop_
_geom_bond_atom_site_label_1
_geom_bond_atom_site_label_2
_ccdc_geom_bond_type
O3    Zn1   S    
C16   H8    S    
C2    C18   A    
C11   C13   A    
C19   C20   A    
C1    C11   S    
C4    C8    S    
C20   N2    A    
O1    Zn1   S    
C2    N2    A    
C16   H7    S    
C2    C3    S    
C19   H11   S    
C4    O3    A    
O4    Zn2   S    
C17   H10   S    
O7    Zn1   S    
C13   H3    S    
C3    H4    S    
O8    Zn2   S    
C5    H5    S    
C12   C14   A    
C10   C15   A    
C7    O7    A    
C20   H12   S    
C18   N1    A    
C6    O6    A    
O2    Zn2   S    
C6    C14   S    
C10   C11   A    
C10   C17   S    
C15   C16   S    
O6    Zn2   S    
C17   H9    S    
C12   C13   A    
C1    O1    A    
C19   N1    A    
C7    O8    A    
C4    O4    A    
C7    C9    S    
C6    O5    A    
C16   C17   S    
C3    H2    S    
O5    Zn1   S    
C5    C18   S    
C14   C15   A    
N1    Zn2   S    
N2    Zn1   S    
C1    O2    A    
C12   H6    S    
C8    C9    T    
C3    C5    S    
C5    H1    S    
