data_mof_unit_19305.cif
_audit_creation_date              2012-12-10T19:07:35-0500
_audit_creation_method            fapswitch 2.2
_symmetry_space_group_name_H-M    P1
_symmetry_Int_Tables_number       1
_space_group_crystal_system       triclinic
_cell_length_a                    10.82933
_cell_length_b                    10.900565
_cell_length_c                    9.565303
_cell_angle_alpha                 89.438761
_cell_angle_beta                  90.639443
_cell_angle_gamma                 90.455337
_cell_volume                      1128.98482117

loop_
_atom_site_label
_atom_site_type_symbol
_atom_type_description
_atom_site_fract_x
_atom_site_fract_y
_atom_site_fract_z
_atom_type_partial_charge
C1    C     C_R   0.500323 0.262646 0.500459 0.839579
C2    C     C_R   0.938677 0.467476 0.623560 0.147627
C3    C     C_3   0.932302 0.547327 0.748794 -0.504390
C4    C     C_3   0.072670 0.550794 0.749411 -0.215795
C5    C     C_R   0.469959 0.059750 0.615977 0.083972
C6    C     C_R   0.501377 0.129805 0.499639 -0.052842
C7    C     C_R   0.532574 0.065950 0.377704 -0.172658
C8    C     C_R   0.531083 0.936981 0.375919 -0.148708
C9    C     C_R   0.498983 0.869572 0.496993 -0.077040
C10   C     C_R   0.468162 0.935700 0.614282 0.014557
C11   C     C_3   0.424970 0.922904 0.761292 -0.308854
C12   C     C_R   0.262439 0.494634 0.499529 0.840713
C13   C     C_3   0.430056 0.065684 0.765259 -0.169628
C14   C     C_R   0.536075 0.602174 0.073179 0.300396
C15   C     C_R   0.450534 0.405100 0.074664 -0.084495
C16   C     C_R   0.449535 0.405972 0.926103 0.016310
C17   C     C_R   0.535743 0.602328 0.925857 0.300279
C18   C     C_3   0.659026 0.663245 0.922176 -0.513991
C19   C     C_3   0.659047 0.663798 0.080526 -0.479958
C20   C     C_R   0.499246 0.737138 0.499237 0.810841
C21   C     C_R   0.737529 0.489829 0.500023 0.790003
C22   C     C_R   0.065610 0.469833 0.624229 0.060031
C23   C     C_R   0.129975 0.473732 0.499250 -0.155288
C24   C     C_R   0.065525 0.445384 0.375376 -0.134870
C25   C     C_R   0.935634 0.436172 0.374169 -0.030794
C26   C     C_R   0.870508 0.464494 0.498777 -0.186391
Cu1   Cu    Cu3+1 0.499990 0.499980 0.640670 0.998978
Cu2   Cu    Cu3+1 0.500010 0.500020 0.359330 0.961677
H1    H     H_    0.115958 0.431842 0.279662 0.198282
H2    H     H_    0.493919 0.877644 0.830624 0.148458
H3    H     H_    0.411414 0.327344 0.129990 0.185448
H4    H     H_    0.408368 0.330685 0.870902 0.151931
H5    H     H_    0.728380 0.601715 0.879454 0.221889
H6    H     H_    0.657439 0.756244 0.874341 0.200240
H7    H     H_    0.731672 0.604816 0.128166 0.234083
H8    H     H_    0.653861 0.757574 0.124025 0.198264
H9    H     H_    0.890694 0.638150 0.724633 0.188943
H10   H     H_    0.893016 0.495886 0.839007 0.239461
H11   H     H_    0.111644 0.642864 0.725384 0.164615
H12   H     H_    0.559291 0.115629 0.284861 0.168613
H13   H     H_    0.555883 0.890924 0.280803 0.165734
N1    N     N_R   0.500790 0.500930 0.147930 -0.211348
N2    N     N_R   0.500790 0.500890 0.852020 -0.201571
O1    O     O_R   0.500000 0.319640 0.618810 -0.560655
O2    O     O_R   0.500010 0.319680 0.381230 -0.610989
O3    O     O_R   0.319650 0.499970 0.618810 -0.578397
O4    O     O_R   0.319660 0.500010 0.381230 -0.581330
O5    O     O_R   0.499990 0.680320 0.618770 -0.590060
O6    O     O_R   0.500000 0.680360 0.381190 -0.576916
O7    O     O_R   0.680340 0.499990 0.618770 -0.561781
O8    O     O_R   0.680350 0.500030 0.381190 -0.611412
C27   C     C_2   0.307066 0.128362 0.784028 0.870063
O9    O     O_2   0.257217 0.125026 0.898127 -0.523497
O10   O     O_R   0.249528 0.187975 0.670981 -0.749922
H14   H     H_    0.165895 0.222084 0.695608 0.361037
C28   C     C_2   0.531171 0.112882 0.861554 0.793432
O11   O     O_2   0.622775 0.164323 0.814337 -0.572013
O12   O     O_R   0.520565 0.095630 0.005540 -0.754083
H15   H     H_    0.595129 0.129758 0.057327 0.320660
C29   C     C_2   0.872905 0.394907 0.243744 0.394702
H16   H     H_    0.783372 0.349861 0.247396 0.092298
O13   O     O_2   0.922228 0.407793 0.130319 -0.531256
C30   C     C_2   0.128648 0.491042 0.877837 0.967412
O14   O     O_2   0.118564 0.380422 0.897842 -0.557298
O15   O     O_R   0.188532 0.564406 0.976802 -0.708973
H17   H     H_    0.217337 0.515995 0.061833 0.327091
C31   C     C_2   0.298195 0.865006 0.769098 0.925882
O16   O     O_2   0.274320 0.794914 0.865600 -0.549321
O17   O     O_R   0.208109 0.893012 0.667919 -0.742467
H18   H     H_    0.125070 0.854033 0.688895 0.325489

loop_
_geom_bond_atom_site_label_1
_geom_bond_atom_site_label_2
_ccdc_geom_bond_type
Cu1   O5    S    
C2    C22   A    
C23   C24   A    
C17   N2    A    
Cu2   O4    S    
C15   H3    S    
C20   O6    A    
C25   C29   S    
C28   O12   S    
C16   H4    S    
C13   C27   S    
C4    C22   S    
Cu2   O6    S    
C1    C6    S    
C9    C20   S    
C5    C13   S    
C4    C30   S    
Cu1   O7    S    
C14   N1    A    
C7    H12   S    
C13   C28   S    
C30   O15   S    
C17   C18   S    
O12   H15   S    
C24   C25   A    
C5    C10   A    
C2    C26   A    
C19   H7    S    
C24   H1    S    
C28   O11   D    
C8    H13   S    
C11   C13   S    
C14   C17   A    
C1    O2    A    
C20   O5    A    
C11   H2    S    
C12   O4    A    
C5    C6    A    
Cu1   O1    S    
Cu1   O3    S    
Cu2   N1    S    
C21   O7    A    
Cu2   O8    S    
C21   C26   S    
C27   O10   S    
C2    C3    S    
C6    C7    A    
C19   H8    S    
C18   H6    S    
O17   H18   S    
C18   H5    S    
Cu2   O2    S    
C16   N2    A    
C21   O8    A    
C10   C11   S    
C30   O14   D    
C15   N1    A    
Cu1   N2    S    
C7    C8    A    
C27   O9    D    
C3    H9    S    
C8    C9    A    
C29   O13   D    
O15   H17   S    
C9    C10   A    
Cu1   Cu2   S    
C22   C23   A    
C18   C19   S    
C12   C23   S    
C1    O1    A    
C25   C26   A    
O10   H14   S    
C4    H11   S    
C14   C19   S    
C15   C16   A    
C3    C4    S    
C31   O16   D    
C3    H10   S    
C11   C31   S    
C29   H16   S    
C31   O17   S    
C12   O3    A    
