data_mof_unit_40708.cif
_audit_creation_date              2012-12-10T19:45:04-0500
_audit_creation_method            fapswitch 2.2
_symmetry_space_group_name_H-M    P1
_symmetry_Int_Tables_number       1
_space_group_crystal_system       triclinic
_cell_length_a                    15.073769
_cell_length_b                    10.813021
_cell_length_c                    13.67421
_cell_angle_alpha                 90.147526
_cell_angle_beta                  89.977602
_cell_angle_gamma                 90.016481
_cell_volume                      2228.79259729

loop_
_atom_site_label
_atom_site_type_symbol
_atom_type_description
_atom_site_fract_x
_atom_site_fract_y
_atom_site_fract_z
_atom_type_partial_charge
C1    C     C_R   0.497736 0.262104 0.499683 0.795833
C2    C     C_R   0.502729 0.737813 0.500214 0.798465
C3    C     C_R   0.046094 0.466778 0.676403 -0.206794
C4    C     C_R   0.953791 0.522108 0.322745 -0.219670
C5    C     C_R   0.302873 0.248735 0.263829 -0.112308
C6    C     C_R   0.710585 0.748676 0.719268 -0.117290
C7    C     C_R   0.341633 0.191378 0.344826 -0.095471
C8    C     C_R   0.665623 0.805717 0.642164 -0.093033
C9    C     C_R   0.418625 0.119462 0.333284 0.113880
C10   C     C_R   0.590891 0.879904 0.660932 0.120557
C11   C     C_R   0.455022 0.103855 0.239387 -0.144165
C12   C     C_R   0.563508 0.898476 0.758090 -0.162466
C13   C     C_R   0.415935 0.161209 0.158624 -0.139496
C14   C     C_R   0.608307 0.840491 0.834884 -0.134184
C15   C     C_R   0.340197 0.234103 0.170911 -0.123759
C16   C     C_R   0.681494 0.765137 0.815432 -0.113149
C17   C     C_R   0.466695 0.932688 0.420958 -0.238826
C18   C     C_R   0.535397 0.067082 0.578210 -0.236362
C19   C     C_R   0.505235 0.871631 0.500382 -0.080154
C20   C     C_R   0.496387 0.128191 0.498978 -0.077855
C21   C     C_R   0.541943 0.939083 0.579212 0.000002
C22   C     C_R   0.461635 0.060636 0.419029 0.001584
C23   C     C_R   0.328439 0.499538 0.500007 0.812279
C24   C     C_R   0.671541 0.498841 0.499937 0.809966
C25   C     C_R   0.552953 0.418982 0.793138 0.036963
C26   C     C_R   0.446378 0.580249 0.206963 0.040058
C27   C     C_R   0.447639 0.582218 0.793178 0.059517
C28   C     C_R   0.554076 0.420214 0.206796 0.041302
C29   C     C_R   0.446488 0.585483 0.896572 -0.070214
C30   C     C_R   0.556341 0.418815 0.103465 -0.100351
C31   C     C_R   0.500792 0.501736 0.948211 0.012261
C32   C     C_R   0.501173 0.501385 0.051846 0.018416
C33   C     C_R   0.554622 0.417942 0.896129 -0.049691
C34   C     C_R   0.446046 0.583241 0.103956 -0.034381
C35   C     C_R   0.393449 0.670744 0.949039 0.432929
C36   C     C_R   0.612195 0.337531 0.050562 0.447032
C37   C     C_R   0.392058 0.666337 0.052520 -0.321119
C38   C     C_R   0.609103 0.335528 0.947730 -0.297304
C39   C     C_R   0.814685 0.509097 0.411338 -0.254159
C40   C     C_R   0.185258 0.483220 0.588097 -0.242632
C41   C     C_R   0.768316 0.496101 0.499689 -0.072835
C42   C     C_R   0.231621 0.497950 0.499919 -0.077006
C43   C     C_R   0.814579 0.480117 0.587712 -0.267100
C44   C     C_R   0.185313 0.510764 0.411562 -0.263419
C45   C     C_R   0.906972 0.479707 0.588347 0.108577
C46   C     C_R   0.092927 0.509136 0.410749 0.109002
C47   C     C_R   0.953469 0.494011 0.499512 0.065612
C48   C     C_R   0.046449 0.494649 0.499584 0.063230
C49   C     C_R   0.907075 0.508207 0.410650 0.110068
C50   C     C_R   0.092846 0.481384 0.588546 0.105830
C51   C     C_R   0.953601 0.465838 0.676296 -0.219790
C52   C     C_R   0.046272 0.522339 0.322739 -0.216027
Cu1   Cu    Cu3+1 0.500010 0.499980 0.597420 0.942636
Cu2   Cu    Cu3+1 0.499990 0.500020 0.402580 0.939635
H1    H     H_    0.779028 0.520743 0.343104 0.148797
H2    H     H_    0.220964 0.472896 0.656423 0.160133
H3    H     H_    0.438089 0.880323 0.360951 0.149762
H4    H     H_    0.564390 0.119580 0.637904 0.150157
H5    H     H_    0.594190 0.355434 0.752045 0.119621
H6    H     H_    0.404190 0.642451 0.248166 0.119324
H7    H     H_    0.407007 0.645566 0.751551 0.167393
H8    H     H_    0.595216 0.357495 0.248369 0.155525
H9    H     H_    0.348389 0.727254 0.093014 0.137575
H10   H     H_    0.650257 0.270137 0.908252 0.149005
H11   H     H_    0.778784 0.468262 0.655855 0.149673
H12   H     H_    0.221046 0.522802 0.343404 0.150929
H13   H     H_    0.918544 0.454793 0.744939 0.141160
H14   H     H_    0.081283 0.533361 0.254073 0.144163
H15   H     H_    0.081052 0.456361 0.745127 0.146949
H16   H     H_    0.918764 0.533387 0.254207 0.143051
H17   H     H_    0.310379 0.279094 0.108417 0.128127
H18   H     H_    0.716075 0.720280 0.874934 0.122545
H19   H     H_    0.243893 0.304548 0.273066 0.124583
H20   H     H_    0.768160 0.692009 0.704568 0.128360
H21   H     H_    0.312277 0.203808 0.416498 0.104107
H22   H     H_    0.688749 0.791793 0.567937 0.102260
H23   H     H_    0.514276 0.048704 0.229032 0.140383
H24   H     H_    0.507214 0.957026 0.774126 0.130446
H25   H     H_    0.444719 0.149835 0.086616 0.142378
H26   H     H_    0.586479 0.854059 0.909530 0.123144
N1    N     N_R   0.499960 0.499900 0.743810 -0.193355
N2    N     N_R   0.500040 0.500100 0.256190 -0.187972
O1    O     O_R   0.500000 0.319630 0.582270 -0.591816
O2    O     O_R   0.500000 0.680370 0.417730 -0.592263
O3    O     O_R   0.499990 0.319660 0.417730 -0.573427
O4    O     O_R   0.500010 0.680340 0.582270 -0.576067
O5    O     O_R   0.370260 0.499960 0.582280 -0.589698
O6    O     O_R   0.629740 0.500040 0.417720 -0.594802
O7    O     O_R   0.370250 0.499990 0.417740 -0.587793
O8    O     O_R   0.629750 0.500010 0.582260 -0.586626
O9    O     O_3   0.338883 0.751436 0.897938 -0.623804
C53   C     C_3   0.354853 0.875077 0.927209 0.044827
H27   H     H_    0.427169 0.893849 0.936027 0.129581
H28   H     H_    0.320245 0.894949 0.997335 0.149237
C54   C     C_3   0.318104 0.962463 0.849435 -0.318588
H29   H     H_    0.347403 0.939146 0.777111 0.220355
H30   H     H_    0.245017 0.950435 0.844261 0.225367
C55   C     C_3   0.338844 0.097307 0.873973 -0.936859
H31   H     H_    0.308508 0.123242 0.945171 0.253994
H32   H     H_    0.311310 0.158246 0.816233 0.262645
H33   H     H_    0.411703 0.112134 0.877839 0.252703
O10   O     O_3   0.666899 0.254773 0.098505 -0.625879
C56   C     C_3   0.747253 0.314178 0.124897 0.036650
H34   H     H_    0.769376 0.274242 0.195592 0.168094
H35   H     H_    0.740281 0.415877 0.137555 0.116381
C57   C     C_3   0.818869 0.289185 0.047831 -0.334179
H36   H     H_    0.826873 0.187729 0.037986 0.228592
H37   H     H_    0.798566 0.329825 0.976772 0.206306
C58   C     C_3   0.907733 0.345228 0.077843 -0.933907
H38   H     H_    0.901918 0.447336 0.084006 0.249452
H39   H     H_    0.958523 0.323270 0.021590 0.256695
H40   H     H_    0.929839 0.306736 0.149034 0.261975

loop_
_geom_bond_atom_site_label_1
_geom_bond_atom_site_label_2
_ccdc_geom_bond_type
Cu2   O6    S    
C13   H25   S    
C27   C29   A    
C34   C37   A    
C2    O2    A    
C54   H29   S    
C16   H18   S    
Cu2   O2    S    
C54   C55   S    
C39   C41   A    
C35   O9    S    
Cu1   Cu2   S    
C23   C42   S    
C4    C52   A    
Cu1   N1    S    
C35   C37   A    
C58   H39   S    
C9    C22   S    
C57   H36   S    
C45   C51   A    
C18   C21   A    
C46   C52   A    
C8    H22   S    
C36   O10   S    
C27   H7    S    
C44   H12   S    
C26   C34   A    
C39   H1    S    
C47   C48   A    
C40   H2    S    
C12   H24   S    
C23   O7    A    
Cu1   O4    S    
C14   H26   S    
C11   H23   S    
C52   H14   S    
C48   C50   A    
C26   N2    A    
C23   O5    A    
C25   N1    A    
C24   C41   S    
C41   C43   A    
C42   C44   A    
C4    H16   S    
C37   H9    S    
C3    C50   A    
C44   C46   A    
C6    H20   S    
C38   H10   S    
C45   C47   A    
C10   C21   S    
C1    O3    A    
C46   C48   A    
C31   C33   A    
C28   N2    A    
C27   N1    A    
Cu2   O7    S    
C47   C49   A    
C58   H40   S    
O9    C53   S    
C5    C7    A    
C3    C51   A    
C6    C8    A    
C53   C54   S    
C32   C34   A    
C24   O6    A    
C31   C32   A    
C43   H11   S    
C53   H28   S    
Cu1   O5    S    
C51   H13   S    
C9    C11   A    
C10   C12   A    
C8    C10   A    
C39   C49   A    
C12   C14   A    
C55   H32   S    
C13   C15   A    
C56   H35   S    
C14   C16   A    
Cu2   N2    S    
C7    C9    A    
C1    C20   S    
C3    H15   S    
C2    C19   S    
C33   C38   A    
C20   C22   A    
C40   C42   A    
C24   O8    A    
Cu2   O3    S    
C7    H21   S    
C54   H30   S    
C1    O1    A    
C55   H33   S    
C15   H17   S    
C29   C35   A    
C17   C22   A    
C30   C36   A    
C4    C49   A    
Cu1   O1    S    
C36   C38   A    
C43   C45   A    
C58   H38   S    
C30   C32   A    
C11   C13   A    
C57   H37   S    
C40   C50   A    
C28   C30   A    
C53   H27   S    
C17   C19   A    
C18   H4    S    
C2    O4    A    
C56   C57   S    
C18   C20   A    
C5    H19   S    
O10   C56   S    
C5    C15   A    
C6    C16   A    
C56   H34   S    
C29   C31   A    
C55   H31   S    
C17   H3    S    
Cu1   O8    S    
C25   H5    S    
C26   H6    S    
C25   C33   A    
C19   C21   A    
C57   C58   S    
C28   H8    S    
