data_mof_unit_32933.cif
_audit_creation_date              2012-12-11T16:07:24-0500
_audit_creation_method            fapswitch 2.2
_symmetry_space_group_name_H-M    P1
_symmetry_Int_Tables_number       1
_space_group_crystal_system       triclinic
_cell_length_a                    6.95647
_cell_length_b                    14.441471
_cell_length_c                    15.877777
_cell_angle_alpha                 90.126447
_cell_angle_beta                  90.279523
_cell_angle_gamma                 90.131344
_cell_volume                      1595.08073341

loop_
_atom_site_label
_atom_site_type_symbol
_atom_type_description
_atom_site_fract_x
_atom_site_fract_y
_atom_site_fract_z
_atom_type_partial_charge
O1    O     O_R   0.494320 0.415010 0.412140 -0.528164
O2    O     O_R   0.824010 0.404260 0.587250 -0.544705
O3    O     O_R   0.994320 0.584990 0.587860 -0.531080
C1    C     C_R   0.655106 0.382732 0.616996 0.695122
O4    O     O_R   0.824040 0.403870 0.412760 -0.539019
O5    O     O_R   0.994350 0.584590 0.412130 -0.529495
C2    C     C_R   0.654524 0.380460 0.384486 0.748338
O6    O     O_R   0.494300 0.415410 0.587870 -0.536983
O7    O     O_3   0.660800 0.559290 0.500000 -0.348084
V1    V     V_3+5 0.935650 0.489000 0.500000 1.485029
O8    O     O_R   0.324060 0.595740 0.412750 -0.540896
C3    C     C_R   0.154633 0.617268 0.382897 0.708457
O9    O     O_R   0.324040 0.596130 0.587240 -0.518385
C4    C     C_R   0.155588 0.616989 0.617506 0.750732
V2    V     V_3+5 0.435660 0.511000 0.500000 1.511674
O10   O     O_3   0.160640 0.440710 0.500000 -0.366150
C5    C     C_3   0.956827 0.715634 0.733166 0.158408
C6    C     C_3   0.055849 0.708770 0.820337 -0.153388
H1    H     H_    0.992360 0.676659 0.877288 0.140722
C7    C     C_3   0.118866 0.810823 0.812530 -0.105063
C8    C     C_3   0.016228 0.818923 0.726154 -0.228196
C9    C     C_3   0.204338 0.787255 0.684398 0.374453
C10   C     C_3   0.307831 0.781058 0.770075 -0.131128
C11   C     C_3   0.243541 0.677880 0.776764 -0.179340
C12   C     C_3   0.144249 0.685541 0.689726 -0.056234
H2    H     H_    0.923366 0.876819 0.704851 0.128914
H3    H     H_    0.451988 0.810239 0.784691 0.147033
H4    H     H_    0.328704 0.618266 0.799999 0.165479
C13   C     C_3   0.205228 0.855885 0.268713 -0.260081
H5    H     H_    0.353840 0.880722 0.256789 0.165184
H6    H     H_    0.119911 0.917638 0.287305 0.204456
C14   C     C_3   0.207079 0.784653 0.342162 -0.361040
H7    H     H_    0.110155 0.808917 0.393166 0.170952
H8    H     H_    0.354626 0.780909 0.369337 0.169914
H9    H     H_    0.394310 0.753159 0.142591 0.168099
H10   H     H_    0.425950 0.661223 0.258582 0.177585
C15   C     C_3   0.249907 0.728333 0.162318 -0.409563
C16   C     C_3   0.916610 0.773153 0.208594 0.213536
C17   C     C_3   0.120289 0.811646 0.187284 0.040186
H11   H     H_    0.853642 0.743883 0.149504 0.107654
C18   C     C_3   0.141325 0.687244 0.311190 0.025654
C19   C     C_3   0.273887 0.659836 0.236875 -0.305416
C20   C     C_3   0.930469 0.696511 0.276806 -0.047433
H12   H     H_    0.833878 0.714517 0.330085 0.150711
H13   H     H_    0.185352 0.691398 0.107446 0.161782
H14   H     H_    0.243641 0.587975 0.215344 0.180281
C21   C     C_3   0.435849 0.308652 0.725209 -0.318045
H15   H     H_    0.390514 0.379138 0.745111 0.167353
H16   H     H_    0.333162 0.285840 0.675247 0.144595
C22   C     C_3   0.423588 0.240433 0.800172 0.027443
H17   H     H_    0.311662 0.187650 0.785049 0.111084
H18   H     H_    0.740438 0.408273 0.788256 0.170051
H19   H     H_    0.749524 0.299631 0.894617 0.172791
C23   C     C_3   0.781758 0.339669 0.762022 -0.308480
C24   C     C_3   0.696941 0.214658 0.657685 -0.324599
C25   C     C_3   0.643186 0.313081 0.688710 0.061050
H20   H     H_    0.847425 0.214484 0.634200 0.157500
H21   H     H_    0.602327 0.194202 0.604117 0.166597
C26   C     C_3   0.620786 0.190707 0.814087 0.065171
C27   C     C_3   0.776328 0.265660 0.832938 -0.284326
C28   C     C_3   0.676595 0.142820 0.729863 -0.370856
H22   H     H_    0.565210 0.090672 0.712390 0.136012
H23   H     H_    0.814752 0.104952 0.737512 0.147495
H24   H     H_    0.931546 0.346162 0.738399 0.153804
H25   H     H_    0.919882 0.232243 0.837638 0.170085
C29   C     C_3   0.488053 0.336669 0.248000 -0.323629
H26   H     H_    0.343157 0.337947 0.277286 0.185835
H27   H     H_    0.517073 0.407802 0.224668 0.180114
C30   C     C_3   0.485142 0.268641 0.172651 -0.419574
H28   H     H_    0.527584 0.306233 0.114483 0.180909
H29   H     H_    0.335946 0.244252 0.161615 0.177584
C31   C     C_3   0.591504 0.210066 0.348598 -0.025324
C32   C     C_3   0.839066 0.300842 0.268113 -0.345552
C33   C     C_3   0.642307 0.308546 0.314304 -0.028363
H30   H     H_    0.953601 0.281058 0.313851 0.197947
H31   H     H_    0.881458 0.369090 0.242300 0.165649
C34   C     C_3   0.625221 0.186365 0.187727 -0.028238
C35   C     C_3   0.579420 0.138516 0.273969 0.226786
C36   C     C_3   0.831143 0.229444 0.195229 0.160272
H32   H     H_    0.864812 0.266499 0.135224 0.098336
H33   H     H_    0.711324 0.188298 0.390826 0.110014
H34   H     H_    0.691452 0.085094 0.285506 0.165605
O11   O     O_R   0.771990 0.083520 0.910980 -0.546005
O12   O     O_R   0.442180 0.095020 0.086060 -0.531295
O13   O     O_R   0.271950 0.914280 0.086680 -0.541400
C37   C     C_R   0.611976 0.117219 0.115311 0.751163
O14   O     O_R   0.442270 0.094630 0.911580 -0.533355
O15   O     O_R   0.272040 0.913890 0.910940 -0.544483
C38   C     C_R   0.611097 0.118674 0.883927 0.675191
O16   O     O_R   0.771900 0.083910 0.086710 -0.532394
O17   O     O_3   0.605520 0.939610 0.998840 -0.370295
V3    V     V_3+5 0.330640 0.009880 0.998810 1.446950
O18   O     O_R   0.942330 0.902710 0.911540 -0.542708
C39   C     C_R   0.110445 0.880855 0.882539 0.697681
O19   O     O_R   0.942240 0.903100 0.086030 -0.523847
C40   C     C_R   0.110970 0.881691 0.115828 0.709285
V4    V     V_3+5 0.830640 0.987830 0.998780 1.453265
O20   O     O_3   0.105630 0.058150 0.998800 -0.368860
O21   O     O_3   0.797430 0.845160 0.237139 -0.643450
H35   H     H_    0.663690 0.821415 0.234018 0.282269
I1    I     I_    0.816088 0.569221 0.225103 -0.573646
I2    I     I_    0.690618 0.649781 0.710821 -0.446134
I3    I     I_    0.320883 0.311978 0.911355 -0.523000
I4    I     I_    0.344541 0.206508 0.432124 -0.454904
O22   O     O_3   0.403999 0.090162 0.271451 -0.636831
H36   H     H_    0.300919 0.136127 0.263143 0.344840
O23   O     O_3   0.283611 0.827475 0.612453 -0.637732
H37   H     H_    0.310500 0.892733 0.628097 0.286363
O24   O     O_3   0.968409 0.160040 0.210841 -0.651697
H38   H     H_    0.053210 0.156333 0.160892 0.301421

loop_
_geom_bond_atom_site_label_1
_geom_bond_atom_site_label_2
_ccdc_geom_bond_type
C29   H27   S    
C24   C25   S    
C18   C19   S    
O18   C39   A    
C32   H30   S    
C32   C33   S    
C30   C34   S    
O19   C40   A    
C1    O6    A    
V4    O20   S    
V3    O20   S    
C21   H16   S    
C23   C27   S    
C34   C35   S    
C3    C18   S    
C35   O22   S    
C6    C11   S    
C22   C26   S    
C8    C9    S    
H9    C15   S    
O12   C37   A    
C13   C14   S    
O5    C3    A    
C16   C17   S    
O13   C40   A    
C29   C30   S    
V2    O10   S    
C29   C33   S    
C28   H23   S    
C6    H1    S    
C19   H14   S    
C15   C19   S    
C30   H29   S    
C31   C35   S    
O8    V2    S    
O13   V3    S    
C26   C38   S    
O15   V3    S    
C9    C12   S    
C14   C18   S    
O1    V2    S    
C10   H3    S    
C2    C33   S    
O7    V1    S    
O16   V4    S    
C31   H33   S    
C29   H26   S    
C26   C27   S    
O14   V3    S    
C1    C25   S    
C18   C20   S    
C30   H28   S    
C8    H2    S    
H18   C23   S    
C22   H17   S    
C21   C22   S    
O15   C39   A    
C34   C36   S    
O11   C38   A    
C23   C25   S    
C26   C28   S    
C36   O24   S    
C11   C12   S    
C31   C33   S    
C37   O16   A    
O17   V3    S    
O4    C2    A    
C31   I4    S    
C5    C8    S    
C14   H8    S    
O2    C1    A    
C5    I2    S    
C20   I1    S    
O5    V1    S    
C13   H5    S    
C35   H34   S    
C21   H15   S    
C7    C10   S    
C10   C11   S    
C13   C17   S    
H19   C27   S    
C5    C6    S    
C32   C36   S    
O17   V4    S    
O3    C4    A    
C27   H25   S    
O6    V2    S    
O9    V2    S    
C20   H12   S    
C32   H31   S    
C16   C20   S    
O23   H37   S    
C15   H13   S    
O2    V1    S    
O18   V4    S    
C7    C39   S    
O1    C2    A    
C11   H4    S    
C16   O21   S    
H10   C19   S    
C34   C37   S    
O8    C3    A    
O19   V4    S    
O22   H36   S    
O21   H35   S    
C5    C12   S    
C14   H7    S    
C24   H20   S    
O7    V2    S    
O4    V1    S    
C13   H6    S    
O3    V1    S    
V1    O10   S    
O24   H38   S    
C16   H11   S    
C23   H24   S    
C24   C28   S    
C6    C7    S    
C4    C12   S    
C28   H22   S    
C17   C40   S    
C36   H32   S    
C22   I3    S    
C7    C8    S    
C15   C17   S    
O11   V4    S    
C24   H21   S    
O14   C38   A    
C9    C10   S    
O12   V3    S    
O9    C4    A    
C9    O23   S    
C21   C25   S    
