data_mof_unit_18421.cif
_audit_creation_date              2012-12-10T19:06:24-0500
_audit_creation_method            fapswitch 2.2
_symmetry_space_group_name_H-M    P1
_symmetry_Int_Tables_number       1
_space_group_crystal_system       triclinic
_cell_length_a                    23.510352
_cell_length_b                    10.818595
_cell_length_c                    9.537383
_cell_angle_alpha                 89.935161
_cell_angle_beta                  89.908775
_cell_angle_gamma                 90.497041
_cell_volume                      2425.72766138

loop_
_atom_site_label
_atom_site_type_symbol
_atom_type_description
_atom_site_fract_x
_atom_site_fract_y
_atom_site_fract_z
_atom_type_partial_charge
C1    C     C_R   0.501567 0.262301 0.499820 0.841092
C2    C     C_R   0.970796 0.275521 0.534226 -0.034035
C3    C     C_R   0.030208 0.281225 0.541800 -0.114974
C4    C     C_R   0.059918 0.392826 0.523745 -0.053725
C5    C     C_R   0.030027 0.502926 0.498832 -0.005379
C6    C     C_R   0.060290 0.615909 0.478230 -0.099141
C7    C     C_R   0.029094 0.726931 0.458558 -0.035775
C8    C     C_R   0.969662 0.721331 0.451844 -0.115752
C9    C     C_R   0.119448 0.395758 0.527006 0.551065
C10   C     C_R   0.120531 0.611424 0.474209 0.525090
C11   C     C_R   0.238932 0.513970 0.627303 -0.108416
C12   C     C_R   0.390917 0.500207 0.500143 0.806859
C13   C     C_R   0.298224 0.513401 0.627098 -0.214670
C14   C     C_R   0.328313 0.501097 0.500425 -0.031473
C15   C     C_R   0.298002 0.489986 0.374011 -0.194667
C16   C     C_R   0.238699 0.490825 0.374544 -0.087056
C17   C     C_R   0.209098 0.502706 0.501123 0.367909
C18   C     C_R   0.760191 0.451440 0.380818 -0.104849
C19   C     C_R   0.700887 0.451895 0.382433 -0.206049
C20   C     C_R   0.671506 0.499986 0.498295 -0.034875
C21   C     C_R   0.702352 0.548487 0.611814 -0.220574
C22   C     C_R   0.761654 0.548636 0.609676 -0.088776
C23   C     C_R   0.501209 0.737479 0.499991 0.822890
C24   C     C_R   0.790692 0.499906 0.494337 0.361237
C25   C     C_R   0.496844 0.063183 0.622833 0.000566
C26   C     C_R   0.507397 0.129068 0.499611 -0.163483
C27   C     C_R   0.525426 0.064243 0.378553 0.480178
C28   C     C_R   0.525770 0.934217 0.381406 -0.251142
C29   C     C_R   0.506593 0.870302 0.500792 -0.117571
C30   C     C_R   0.495960 0.936316 0.623185 -0.020869
C31   C     C_3   0.447773 0.929780 0.726665 -0.022613
C32   C     C_3   0.449049 0.071297 0.726236 -0.364826
C33   C     C_R   0.530307 0.587188 0.073464 0.271249
C34   C     C_R   0.609023 0.500200 0.499709 0.791559
C35   C     C_R   0.465162 0.423041 0.075363 -0.182596
C36   C     C_R   0.463735 0.424428 0.924691 0.568228
C37   C     C_R   0.530658 0.586434 0.926292 0.164546
C38   C     C_3   0.593331 0.606975 0.920785 -0.501556
C39   C     C_3   0.592929 0.609145 0.079732 -0.474458
C40   C     C_R   0.880401 0.606979 0.467832 0.550568
C41   C     C_R   0.879357 0.390985 0.518865 0.523514
C42   C     C_R   0.939595 0.386554 0.514691 -0.098127
C43   C     C_R   0.969845 0.499605 0.494568 -0.005467
C44   C     C_R   0.939943 0.609787 0.470296 -0.052408
Cu1   Cu    Cu3+1 0.500000 0.499980 0.640670 0.984180
Cu2   Cu    Cu3+1 0.500000 0.500020 0.359330 0.979743
H1    H     H_    0.678041 0.413231 0.294052 0.158946
H2    H     H_    0.680751 0.588176 0.700891 0.148656
H3    H     H_    0.785111 0.586493 0.697541 0.144699
H4    H     H_    0.539731 0.883513 0.289980 0.161860
H5    H     H_    0.410713 0.115616 0.680864 0.221873
H6    H     H_    0.463569 0.112826 0.826719 0.201710
H7    H     H_    0.439374 0.358201 0.134347 0.151218
H8    H     H_    0.053594 0.196286 0.556801 0.223305
H9    H     H_    0.616300 0.525911 0.878214 0.220122
H10   H     H_    0.604829 0.697576 0.873002 0.194255
H11   H     H_    0.616380 0.530491 0.126273 0.218202
H12   H     H_    0.603668 0.701363 0.124184 0.194811
H13   H     H_    0.946283 0.806309 0.437058 0.222662
H14   H     H_    0.216103 0.523491 0.725339 0.139442
H15   H     H_    0.320426 0.523204 0.725860 0.161468
H16   H     H_    0.320029 0.480299 0.274849 0.154949
H17   H     H_    0.215674 0.482067 0.276767 0.140070
H18   H     H_    0.782508 0.413580 0.291463 0.142035
N1    N     N_R   0.851644 0.499150 0.492737 -0.460454
N2    N     N_R   0.148188 0.503460 0.501553 -0.462506
N3    N     N_R   0.500360 0.500930 0.147930 -0.199739
N4    N     N_R   0.500360 0.500890 0.852020 -0.222191
O1    O     O_R   0.500000 0.319640 0.618810 -0.540126
O2    O     O_2   0.848338 0.290091 0.553323 -0.550269
O3    O     O_2   0.148618 0.291359 0.553441 -0.522112
O4    O     O_2   0.151624 0.712251 0.439924 -0.540192
O5    O     O_R   0.500010 0.319680 0.381230 -0.545317
O6    O     O_R   0.417880 0.499940 0.618820 -0.549762
O7    O     O_R   0.417880 0.499980 0.381240 -0.584926
O8    O     O_R   0.499990 0.680320 0.618770 -0.606236
O9    O     O_R   0.500000 0.680360 0.381190 -0.568570
O10   O     O_R   0.582120 0.500020 0.618760 -0.588259
O11   O     O_R   0.582120 0.500060 0.381180 -0.583171
O12   O     O_2   0.851248 0.711464 0.441727 -0.527917
C45   C     C_2   0.944038 0.150682 0.537992 0.496579
H19   H     H_    0.907406 0.129200 0.473376 0.123518
O13   O     O_2   0.963898 0.068794 0.610803 -0.531543
O14   O     O_3   0.545654 0.128474 0.262497 -0.572412
C46   C     C_3   0.511860 0.101161 0.144116 -0.242465
H20   H     H_    0.521236 0.170876 0.061708 0.176474
H21   H     H_    0.465498 0.106285 0.167789 0.170834
H22   H     H_    0.522730 0.009390 0.100144 0.166249
C47   C     C_2   0.393884 0.872232 0.668038 0.429351
H23   H     H_    0.374667 0.792497 0.719309 0.089899
O15   O     O_2   0.372073 0.912434 0.561319 -0.535202
C48   C     C_2   0.465653 0.874958 0.864943 0.264846
H24   H     H_    0.508847 0.842917 0.879744 0.086186
O16   O     O_2   0.432167 0.869080 0.962762 -0.551265
O17   O     O_3   0.429663 0.343815 0.847884 -0.561755
C49   C     C_3   0.375762 0.324976 0.910099 -0.382447
H25   H     H_    0.346067 0.290906 0.828248 0.213964
H26   H     H_    0.357618 0.411906 0.953079 0.155115
H27   H     H_    0.378023 0.252254 0.992140 0.173453
C50   C     C_2   0.055874 0.851722 0.453932 0.499545
H28   H     H_    0.092523 0.873525 0.518347 0.127457
O18   O     O_2   0.035994 0.933249 0.380634 -0.530092

loop_
_geom_bond_atom_site_label_1
_geom_bond_atom_site_label_2
_ccdc_geom_bond_type
C37   N4    A    
Cu2   O11   S    
C12   O6    A    
C35   H7    S    
C41   C42   A    
C19   C20   A    
C23   O8    A    
C45   H19   S    
C7    C8    A    
Cu1   Cu2   S    
C26   C27   A    
C29   C30   A    
Cu1   O8    S    
C18   C24   A    
C5    C6    A    
C23   C29   S    
C28   C29   A    
C8    H13   S    
C30   C31   S    
C3    H8    S    
C19   H1    S    
C15   C16   A    
C39   H11   S    
C49   H27   S    
C18   C19   A    
C9    N2    A    
C32   H6    S    
C28   H4    S    
C11   C17   A    
C38   H9    S    
O17   C49   S    
C16   C17   A    
C31   C47   S    
C49   H26   S    
C40   O12   S    
Cu1   O10   S    
C16   H17   S    
C47   O15   D    
C21   H2    S    
C20   C34   S    
C25   C32   S    
C46   H21   S    
C5    C43   A    
C21   C22   A    
C50   O18   D    
Cu2   O7    S    
C45   O13   D    
C10   N2    A    
C7    C50   S    
Cu1   O1    S    
C9    O3    S    
O14   C46   S    
C41   N1    A    
C25   C26   A    
C46   H20   S    
C39   H12   S    
C33   C37   A    
Cu1   O6    S    
C35   C36   A    
C43   C44   A    
C32   H5    S    
C37   C38   S    
C34   O11   A    
C31   C32   S    
C35   N3    A    
C49   H25   S    
Cu1   N4    S    
C48   O16   D    
C17   N2    S    
C38   H10   S    
C33   C39   S    
C23   O9    A    
C24   N1    S    
C22   H3    S    
C12   C14   S    
C40   N1    A    
C1    C26   S    
C22   C24   A    
C42   C43   A    
C3    C4    A    
C33   N3    A    
C46   H22   S    
C25   C30   A    
C27   O14   S    
C8    C44   A    
C4    C5    A    
C6    C10   A    
Cu2   O9    S    
C36   N4    A    
C6    C7    A    
C1    O5    A    
C2    C3    A    
C4    C9    A    
Cu2   N3    S    
C34   O10   A    
C11   C13   A    
C36   O17   S    
C18   H18   S    
C38   C39   S    
C2    C42   A    
C48   H24   S    
C15   H16   S    
C1    O1    A    
C40   C44   A    
C13   H15   S    
C20   C21   A    
C31   C48   S    
C12   O7    A    
C27   C28   A    
C14   C15   A    
C2    C45   S    
C50   H28   S    
C47   H23   S    
C13   C14   A    
Cu2   O5    S    
C11   H14   S    
C41   O2    S    
C10   O4    S    
