data_mof_unit_19788.cif
_audit_creation_date              2012-12-11T14:56:07-0500
_audit_creation_method            fapswitch 2.2
_symmetry_space_group_name_H-M    P1
_symmetry_Int_Tables_number       1
_space_group_crystal_system       triclinic
_cell_length_a                    28.194014
_cell_length_b                    17.244156
_cell_length_c                    18.128853
_cell_angle_alpha                 90.480269
_cell_angle_beta                  138.11849
_cell_angle_gamma                 89.561915
_cell_volume                      5883.88662359

loop_
_atom_site_label
_atom_site_type_symbol
_atom_type_description
_atom_site_fract_x
_atom_site_fract_y
_atom_site_fract_z
_atom_type_partial_charge
C1    C     C_R   0.668403 0.922260 0.817177 -0.096832
C2    C     C_3   0.221651 0.659705 0.043689 0.597595
C3    C     C_3   0.668685 0.738429 0.941074 -0.298294
C4    C     C_3   0.165924 0.763167 0.939465 -0.293694
C5    C     C_3   0.834064 0.236811 0.060556 -0.293732
C6    C     C_3   0.796573 0.808920 0.093072 -0.289077
C7    C     C_3   0.203336 0.191279 0.907219 -0.289271
C8    C     C_3   0.204961 0.741057 0.057054 -0.286997
C9    C     C_3   0.795037 0.258913 0.942971 -0.286950
C10   C     C_3   0.756452 0.784961 0.975903 -0.274225
C11   C     C_3   0.243760 0.215292 0.024535 -0.274013
C12   C     C_3   0.746389 0.288271 0.023565 -0.285064
C13   C     C_3   0.262621 0.293649 0.012977 0.579282
C14   C     C_3   0.253597 0.711728 0.976438 -0.285103
C15   C     C_3   0.290532 0.238023 0.940311 -0.288040
C16   C     C_3   0.709247 0.761772 0.059400 -0.288263
C17   C     C_3   0.274555 0.769904 0.103277 -0.026638
C18   C     C_3   0.725438 0.230080 0.896739 -0.026523
C19   C     C_3   0.687732 0.817644 0.930380 -0.012870
C20   C     C_3   0.312285 0.182333 0.069639 -0.012907
C21   C     C_3   0.816420 0.317705 0.071293 -0.014444
C22   C     C_3   0.183571 0.682281 0.928717 -0.014461
C23   C     C_3   0.222456 0.270463 0.896801 -0.027695
C24   C     C_3   0.737653 0.706474 0.987296 0.579385
C25   C     C_3   0.777520 0.729603 0.103328 -0.027785
C26   C     C_3   0.236134 0.791830 0.987908 0.576426
C27   C     C_3   0.763848 0.208160 0.012104 0.576399
C28   C     C_3   0.727223 0.841425 0.046097 0.594717
C29   C     C_3   0.272490 0.158503 0.953772 0.594512
C30   C     C_R   0.615769 0.844284 0.364524 0.128911
C31   C     C_R   0.384213 0.155741 0.635442 0.128943
C32   C     C_R   0.345967 0.808501 0.559499 0.135154
C33   C     C_R   0.331623 0.077711 0.182828 -0.096868
C34   C     C_R   0.654183 0.191632 0.440827 0.135149
C35   C     C_R   0.216404 0.256412 0.621282 0.107607
C36   C     C_R   0.783598 0.743588 0.378733 0.107698
C37   C     C_R   0.781304 0.257306 0.365144 0.110554
C38   C     C_R   0.218664 0.742727 0.634813 0.110568
C39   C     C_R   0.391499 0.257491 0.736348 -0.210633
C40   C     C_R   0.608492 0.742524 0.263638 -0.210626
C41   C     C_R   0.635118 0.285097 0.321819 -0.210486
C42   C     C_R   0.365064 0.715101 0.678598 -0.210442
C43   C     C_R   0.759648 0.872778 0.398368 -0.172811
C44   C     C_R   0.312995 0.898118 0.197664 -0.065077
C45   C     C_R   0.240353 0.127226 0.601635 -0.172956
C46   C     C_R   0.234420 0.863347 0.588804 -0.193590
C47   C     C_R   0.765557 0.136710 0.411206 -0.193569
C48   C     C_R   0.418266 0.221720 0.704356 -0.142610
C49   C     C_R   0.581717 0.778303 0.295612 -0.142624
C50   C     C_R   0.622139 0.260011 0.377701 -0.161451
C51   C     C_R   0.378094 0.740193 0.622786 -0.161337
C52   C     C_R   0.803966 0.821584 0.412077 -0.136458
C53   C     C_R   0.196037 0.178416 0.587936 -0.136453
C54   C     C_R   0.198448 0.820243 0.599653 -0.111447
C55   C     C_R   0.687002 0.101876 0.802346 -0.065077
C56   C     C_R   0.801498 0.179783 0.400272 -0.111463
C57   C     C_R   0.333755 0.116875 0.619620 -0.252218
C58   C     C_R   0.666234 0.883142 0.380358 -0.252244
C59   C     C_R   0.695365 0.145767 0.440839 -0.261405
C60   C     C_R   0.304715 0.854338 0.559361 -0.261378
C61   C     C_R   0.713242 0.722214 0.311307 -0.277051
C62   C     C_R   0.286759 0.277788 0.688705 -0.277147
C63   C     C_R   0.285603 0.717744 0.689241 -0.247600
C64   C     C_R   0.714399 0.282327 0.310825 -0.247572
C65   C     C_R   0.303518 0.154992 0.644730 0.177344
C66   C     C_R   0.186400 0.397753 0.802839 -0.077861
C67   C     C_R   0.696479 0.845018 0.355264 0.177392
C68   C     C_R   0.712527 0.173350 0.391389 0.176247
C69   C     C_R   0.287519 0.826753 0.608763 0.176262
C70   C     C_R   0.670539 0.771312 0.303847 0.191741
C71   C     C_R   0.329458 0.228696 0.696152 0.191721
C72   C     C_R   0.316169 0.755241 0.665555 0.186146
C73   C     C_R   0.683904 0.244886 0.334660 0.186129
C74   C     C_R   0.356876 0.077233 0.486190 -0.109784
C75   C     C_R   0.643105 0.922792 0.513776 -0.109762
C76   C     C_R   0.662809 0.095208 0.556040 -0.148006
C77   C     C_R   0.813584 0.602279 0.197222 -0.077661
C78   C     C_R   0.337238 0.904830 0.444084 -0.147900
C79   C     C_R   0.826018 0.603690 0.406867 -0.109936
C80   C     C_R   0.173983 0.396310 0.593139 -0.109918
C81   C     C_R   0.174857 0.603784 0.598708 -0.106025
C82   C     C_R   0.825140 0.396227 0.401280 -0.106029
C83   C     C_R   0.421036 0.812707 0.533696 -0.126445
C84   C     C_R   0.579009 0.187331 0.466418 -0.126516
C85   C     C_R   0.558505 0.831777 0.423642 -0.103804
C86   C     C_R   0.441488 0.168234 0.576344 -0.103796
C87   C     C_R   0.907141 0.302665 0.489461 -0.111464
C88   C     C_R   0.833807 0.422816 0.183544 -0.103176
C89   C     C_R   0.092844 0.697335 0.510509 -0.111379
C90   C     C_R   0.091909 0.303097 0.505074 -0.138755
C91   C     C_R   0.908092 0.696903 0.494932 -0.138802
C92   C     C_R   0.603732 0.193631 0.713945 -0.135127
C93   C     C_R   0.396266 0.806365 0.286062 -0.135176
C94   C     C_R   0.413772 0.171286 0.272187 -0.114487
C95   C     C_R   0.586258 0.828677 0.727813 -0.114362
C96   C     C_R   0.082260 0.669847 0.725419 -0.118857
C97   C     C_R   0.917738 0.330150 0.274582 -0.118888
C98   C     C_R   0.898385 0.692420 0.285189 -0.109052
C99   C     C_R   0.166193 0.577186 0.816456 -0.103275
C100  C     C_R   0.101590 0.307619 0.714887 -0.109348
C101  C     C_R   0.643763 0.860976 0.829619 0.139168
C102  C     C_R   0.356281 0.138968 0.170382 0.139055
C103  C     C_R   0.326151 0.822749 0.193252 0.125085
C104  C     C_R   0.673844 0.177241 0.806761 0.125089
C105  C     C_R   0.171820 0.323440 0.807593 0.123983
C106  C     C_R   0.828146 0.676627 0.192537 0.123759
C107  C     C_R   0.860205 0.361906 0.172184 0.149011
C108  C     C_R   0.139791 0.638089 0.827817 0.148953
C109  C     C_R   0.393840 0.134186 0.568708 0.058494
C110  C     C_3   0.778351 0.340272 0.956324 0.597502
C111  C     C_R   0.606143 0.865838 0.431260 0.058481
C112  C     C_R   0.637781 0.163585 0.495417 0.072993
C113  C     C_R   0.362308 0.836490 0.504799 0.072968
C114  C     C_R   0.837489 0.683192 0.428425 0.065616
C115  C     C_R   0.162512 0.316808 0.571586 0.065634
C116  C     C_R   0.164138 0.683492 0.582226 0.050802
C117  C     C_R   0.835846 0.316520 0.417738 0.050819
C118  C     C_3   0.707785 0.311021 0.907227 -0.285865
C119  C     C_3   0.292211 0.688971 0.092779 -0.285710
C120  C     C_3   0.331401 0.261417 0.058791 -0.298282
Cl1   Cl    Cl    0.790503 0.429150 0.923032 -0.557386
Cl2   Cl    Cl    0.209508 0.570817 0.076979 -0.557419
Cl3   Cl    Cl    0.256199 0.383600 0.054174 -0.594415
Cl4   Cl    Cl    0.744461 0.616658 0.946373 -0.594017
Cl5   Cl    Cl    0.245716 0.879410 0.948570 -0.599921
Cl6   Cl    Cl    0.754246 0.120581 0.051423 -0.600241
Cl7   Cl    Cl    0.717779 0.931998 0.081779 -0.569852
Cl8   Cl    Cl    0.281561 0.067821 0.917781 -0.569776
H1    H     H_    0.716398 0.955089 0.882067 0.138742
H2    H     H_    0.220912 0.069807 0.565287 0.119407
H3    H     H_    0.213743 0.919600 0.549364 0.119838
H4    H     H_    0.786215 0.080443 0.450604 0.119849
H5    H     H_    0.413591 0.312604 0.779584 0.127539
H6    H     H_    0.586401 0.687409 0.220405 0.127539
H7    H     H_    0.612698 0.339869 0.278222 0.127625
H8    H     H_    0.387528 0.660365 0.722284 0.127592
H9    H     H_    0.312358 0.045122 0.454672 0.088466
H10   H     H_    0.687599 0.954936 0.545255 0.088483
H11   H     H_    0.714278 0.069284 0.606326 0.091605
H12   H     H_    0.283623 0.044888 0.117936 0.138907
H13   H     H_    0.285770 0.930746 0.393823 0.091573
H14   H     H_    0.775147 0.574983 0.345415 0.081500
H15   H     H_    0.224853 0.425017 0.654591 0.081514
H16   H     H_    0.225377 0.574310 0.660861 0.081869
H17   H     H_    0.774626 0.425713 0.339130 0.081851
H18   H     H_    0.448778 0.758221 0.569080 0.090335
H19   H     H_    0.551259 0.241815 0.431031 0.090383
H20   H     H_    0.521856 0.785597 0.369215 0.095958
H21   H     H_    0.478138 0.214413 0.630771 0.095950
H22   H     H_    0.932111 0.247020 0.508803 0.088635
H23   H     H_    0.261510 0.925334 0.144339 0.101113
H24   H     H_    0.067864 0.752975 0.491158 0.088605
H25   H     H_    0.067370 0.247526 0.486086 0.091409
H26   H     H_    0.932632 0.752473 0.513922 0.091403
H27   H     H_    0.579224 0.250397 0.685665 0.101129
H28   H     H_    0.420775 0.749600 0.314345 0.101156
H29   H     H_    0.439166 0.225235 0.288370 0.103236
H30   H     H_    0.560869 0.774722 0.711620 0.103060
H31   H     H_    0.052454 0.721264 0.705846 0.107983
H32   H     H_    0.947543 0.278731 0.294156 0.107968
H33   H     H_    0.924908 0.747825 0.312248 0.096121
H34   H     H_    0.738488 0.074660 0.855675 0.101071
H35   H     H_    0.075071 0.252214 0.687854 0.096252
H36   H     H_    0.186991 0.753842 0.093390 0.168685
H37   H     H_    0.813011 0.246114 0.906644 0.168662
H38   H     H_    0.775099 0.794306 0.940120 0.170443
H39   H     H_    0.225297 0.206135 0.060626 0.170500
H40   H     H_    0.726996 0.299878 0.058034 0.166130
H41   H     H_    0.272987 0.700137 0.941960 0.166156
H42   H     H_    0.307545 0.248225 0.902262 0.168396
H43   H     H_    0.692051 0.751385 0.097147 0.168336
H44   H     H_    0.655820 0.341324 0.843734 0.164522
H45   H     H_    0.238273 0.423765 0.856684 0.099667
H46   H     H_    0.344179 0.658671 0.156263 0.164591
H47   H     H_    0.384215 0.289899 0.121329 0.158989
H48   H     H_    0.615955 0.709774 0.878387 0.158938
H49   H     H_    0.113879 0.793325 0.876024 0.161459
H50   H     H_    0.886106 0.206648 0.124004 0.161435
H51   H     H_    0.849207 0.837739 0.156104 0.164154
H52   H     H_    0.150626 0.162607 0.844372 0.164138
H53   H     H_    0.689347 0.937127 0.426144 0.113127
H54   H     H_    0.310643 0.062891 0.573833 0.113129
H55   H     H_    0.282028 0.908691 0.514902 0.111627
H56   H     H_    0.761717 0.576252 0.143376 0.099422
H57   H     H_    0.718001 0.091375 0.485202 0.111650
H58   H     H_    0.304976 0.336142 0.720988 0.116378
H59   H     H_    0.695025 0.663859 0.279028 0.116330
H60   H     H_    0.694754 0.339177 0.273539 0.111775
H61   H     H_    0.305252 0.660896 0.726535 0.111790
H62   H     H_    0.538864 0.749721 0.274456 0.119940
H63   H     H_    0.461113 0.250308 0.725502 0.119928
H64   H     H_    0.412046 0.704523 0.627782 0.120180
H65   H     H_    0.588276 0.295726 0.372862 0.120284
H66   H     H_    0.143684 0.158137 0.541815 0.118014
H67   H     H_    0.785840 0.455530 0.117954 0.139174
H68   H     H_    0.856320 0.841861 0.458201 0.117971
H69   H     H_    0.850019 0.156076 0.433604 0.120338
H70   H     H_    0.149895 0.843924 0.566235 0.120317
H71   H     H_    0.214165 0.544481 0.882050 0.139302
H72   H     H_    0.779087 0.930198 0.434712 0.119380
N1    N     N_R   0.625380 0.928280 0.709340 -0.056971
N2    N     N_R   0.613900 0.929750 0.547530 -0.044103
N3    N     N_R   0.613900 0.070250 0.547530 -0.039689
N4    N     N_R   0.386100 0.929750 0.452470 -0.039694
N5    N     N_R   0.886100 0.570250 0.452470 -0.039406
N6    N     N_R   0.113900 0.429750 0.547530 -0.039396
N7    N     N_R   0.113900 0.570250 0.547530 -0.039593
N8    N     N_R   0.886100 0.429750 0.452470 -0.039598
N9    N     N_R   0.437800 0.869550 0.507970 -0.040028
N10   N     N_R   0.562200 0.130450 0.492030 -0.040023
N11   N     N_R   0.562200 0.869550 0.492030 -0.044247
N12   N     N_R   0.374620 0.071720 0.290660 -0.056997
N13   N     N_R   0.437800 0.130450 0.507970 -0.044245
N14   N     N_R   0.937800 0.369550 0.507970 -0.039337
N15   N     N_R   0.062200 0.630450 0.492030 -0.039335
N16   N     N_R   0.062200 0.369550 0.492030 -0.040056
N17   N     N_R   0.937800 0.630450 0.507970 -0.040068
N18   N     N_R   0.573690 0.128980 0.653840 -0.045079
N19   N     N_R   0.426310 0.871020 0.346160 -0.045089
N20   N     N_R   0.426310 0.128980 0.346160 -0.048659
N21   N     N_R   0.573690 0.871020 0.653840 -0.048662
N22   N     N_R   0.073690 0.628980 0.653840 -0.050119
N23   N     N_R   0.374620 0.928280 0.290660 -0.047845
N24   N     N_R   0.926310 0.371020 0.346160 -0.050117
N25   N     N_R   0.926310 0.628980 0.346160 -0.044498
N26   N     N_R   0.073690 0.371020 0.653840 -0.044515
N27   N     N_R   0.625380 0.071720 0.709340 -0.047829
N28   N     N_R   0.125380 0.428280 0.709340 -0.047193
N29   N     N_R   0.874620 0.571720 0.290660 -0.047149
N30   N     N_R   0.874620 0.428280 0.290660 -0.057658
N31   N     N_R   0.125380 0.571720 0.709340 -0.057650
N32   N     N_R   0.386100 0.070250 0.452470 -0.044101
Ni1   Ni    Ni4+2 0.616560 1.000000 0.627280 0.223728
Ni2   Ni    Ni4+2 0.383440 1.000000 0.372720 0.223707
Ni3   Ni    Ni4+2 0.116560 0.500000 0.627280 0.215022
Ni4   Ni    Ni4+2 0.883440 0.500000 0.372720 0.215016
Ni5   Ni    Ni4+2 0.497990 0.870580 0.500000 0.230770
Ni6   Ni    Ni4+2 0.502010 0.129420 0.500000 0.230771
Ni7   Ni    Ni4+2 0.997990 0.370580 0.500000 0.219827
Ni8   Ni    Ni4+2 0.002010 0.629420 0.500000 0.219833

loop_
_geom_bond_atom_site_label_1
_geom_bond_atom_site_label_2
_ccdc_geom_bond_type
C61   C70   A    
C16   C28   S    
C80   N6    A    
C84   C112  A    
C93   H28   S    
C7    C29   S    
C6    H51   S    
C35   C53   A    
C95   H30   S    
C34   C112  S    
C83   C113  A    
C88   N30   A    
C52   H68   S    
C85   H20   S    
N1    N21   A    
N2    N11   A    
C4    C8    S    
C1    N1    A    
C9    C18   S    
C93   C103  A    
C74   C109  A    
C82   N8    A    
C21   C110  S    
C76   N3    A    
N7    Ni3   S    
C22   C108  S    
C7    C11   S    
C99   C108  A    
N5    N17   A    
C100  C105  A    
C95   N21   A    
C40   C70   A    
C58   H53   S    
C17   C26   S    
N10   Ni6   S    
C77   C106  A    
N9    Ni5   S    
C35   C62   A    
C87   C117  A    
C1    H1    S    
C27   Cl6   S    
C110  Cl1   S    
C13   Cl3   S    
C33   N12   A    
C84   N10   A    
C43   C52   A    
C84   H19   S    
C6    C25   S    
C20   C102  S    
C33   H12   S    
C40   C49   A    
C23   C105  S    
C12   H40   S    
C61   H59   S    
C77   H56   S    
C4    C22   S    
C15   C120  S    
C13   C23   S    
C42   H8    S    
C55   N27   A    
C19   C101  S    
C46   C69   A    
N4    Ni2   S    
N15   Ni8   S    
C5    C27   S    
C37   C56   A    
C44   C103  A    
C89   H24   S    
C6    C28   S    
C29   Cl8   S    
C48   H63   S    
C87   H22   S    
C90   N16   A    
N4    N9    A    
C7    H52   S    
C64   C73   A    
N11   Ni5   S    
N3    N10   A    
C35   C115  S    
C43   H72   S    
C32   C113  S    
C100  H35   S    
C4    H49   S    
C36   C52   A    
C28   Cl7   S    
C10   H38   S    
C42   C51   A    
C62   H58   S    
C98   N25   A    
N18   Ni6   S    
C60   H55   S    
C15   C23   S    
C96   C108  A    
C89   C116  A    
C36   C114  S    
C45   H2    S    
C24   Cl4   S    
C11   H39   S    
C53   H66   S    
C88   H67   S    
C110  C118  S    
C3    C24   S    
C14   H41   S    
C85   N11   A    
N7    N15   A    
C57   H54   S    
C81   H16   S    
C75   N2    A    
C25   C106  S    
C15   C29   S    
C20   C29   S    
C2    Cl2   S    
C4    C26   S    
N27   Ni1   S    
C74   H9    S    
C11   C20   S    
C34   C50   A    
C44   H23   S    
C41   C73   A    
C12   C27   S    
C33   C102  A    
C97   H32   S    
C86   C109  A    
C24   C25   S    
C91   H26   S    
C74   N32   A    
N13   Ni6   S    
C8    H36   S    
C86   H21   S    
C46   H3    S    
C88   C107  A    
C63   H61   S    
C49   H62   S    
N12   N20   A    
C10   C24   S    
C68   C73   A    
C79   N5    A    
C40   H6    S    
C55   C104  A    
C45   C53   A    
N25   N29   A    
C15   H42   S    
N21   Ni5   S    
C37   C64   A    
C26   Cl5   S    
C97   C107  A    
C91   N17   A    
C69   C72   A    
C92   N18   A    
C3    C16   S    
C77   N29   A    
C32   C51   A    
C5    C9    S    
N23   Ni2   S    
N24   N30   A    
C59   C68   A    
C83   H18   S    
C38   C116  S    
C58   C67   A    
C120  H47   S    
N1    Ni1   S    
C30   C111  S    
C38   C54   A    
C80   C115  A    
C118  H44   S    
C10   C19   S    
C76   C112  A    
C80   H15   S    
C3    C19   S    
C46   C54   A    
N32   Ni2   S    
C31   C109  S    
C37   C117  S    
C66   H45   S    
C44   N23   A    
C18   C104  S    
C90   C115  A    
C14   C26   S    
C90   H25   S    
C100  N26   A    
C19   C28   S    
C47   C56   A    
N17   Ni8   S    
C64   H60   S    
N13   N32   A    
C12   C21   S    
C41   H7    S    
C12   C118  S    
C98   H33   S    
C21   C107  S    
C30   C49   A    
N22   N31   A    
C94   H29   S    
C96   N22   A    
C31   C48   A    
C45   C65   A    
C34   C59   A    
C83   N9    A    
C78   C113  A    
C94   N20   A    
C32   C60   A    
C66   C105  A    
C99   H71   S    
C36   C61   A    
C1    C101  A    
C41   C50   A    
C20   C120  S    
C13   C120  S    
C56   H69   S    
C39   H5    S    
C76   H11   S    
N6    N16   A    
C16   C25   S    
N8    Ni4   S    
N8    N14   A    
N26   Ni7   S    
N16   Ni7   S    
C75   C111  A    
N5    Ni4   S    
C2    C8    S    
C18   C27   S    
C55   H34   S    
C57   C65   A    
C85   C111  A    
C75   H10   S    
C98   C106  A    
C6    C10   S    
C99   N31   A    
C2    C119  S    
C97   N24   A    
N24   Ni7   S    
N3    Ni1   S    
C18   C118  S    
C9    C110  S    
N20   Ni6   S    
C81   N7    A    
N26   N28   A    
C8    C17   S    
C54   H70   S    
C91   C114  A    
C89   N15   A    
C47   H4    S    
C93   N19   A    
C67   C70   A    
N30   Ni4   S    
C31   C57   A    
N29   Ni4   S    
C9    H37   S    
N14   Ni7   S    
C17   C103  S    
C86   N13   A    
C119  H46   S    
C65   C71   A    
C2    C22   S    
N2    Ni1   S    
C11   C13   S    
C16   H43   S    
C14   C22   S    
C47   C68   A    
C7    C23   S    
C60   C69   A    
N12   Ni2   S    
N19   Ni5   S    
C30   C58   A    
C81   C116  A    
N22   Ni8   S    
C63   C72   A    
C50   H65   S    
C87   N14   A    
C62   C71   A    
C59   H57   S    
C92   H27   S    
C78   H13   S    
C5    H50   S    
C17   C119  S    
N19   N23   A    
C79   H14   S    
C3    H48   S    
C78   N4    A    
C96   H31   S    
C5    C21   S    
C82   H17   S    
C94   C102  A    
C43   C67   A    
C14   C119  S    
C92   C104  A    
C79   C114  A    
C66   N28   A    
C38   C63   A    
N25   Ni8   S    
C39   C71   A    
N6    Ni3   S    
N31   Ni3   S    
N18   N27   A    
C82   C117  A    
C42   C72   A    
C51   H64   S    
C95   C101  A    
C39   C48   A    
N28   Ni3   S    
