data_mof_unit_36621.cif
_audit_creation_date              2012-12-11T15:10:51-0500
_audit_creation_method            fapswitch 2.2
_symmetry_space_group_name_H-M    P1
_symmetry_Int_Tables_number       1
_space_group_crystal_system       triclinic
_cell_length_a                    21.150761
_cell_length_b                    7.239433
_cell_length_c                    18.260981
_cell_angle_alpha                 89.992845
_cell_angle_beta                  93.413503
_cell_angle_gamma                 89.995098
_cell_volume                      2791.15176205

loop_
_atom_site_label
_atom_site_type_symbol
_atom_type_description
_atom_site_fract_x
_atom_site_fract_y
_atom_site_fract_z
_atom_type_partial_charge
O1    O     O_R   0.448880 0.506250 0.415280 -0.529278
O2    O     O_R   0.551120 0.006250 0.584720 -0.529296
O3    O     O_R   0.434830 0.174000 0.557310 -0.521001
O4    O     O_R   0.565170 0.674000 0.442690 -0.520998
C1    C     C_R   0.416986 0.344579 0.579647 0.696517
C2    C     C_R   0.583014 0.844581 0.420353 0.696539
O5    O     O_R   0.441680 0.176440 0.414130 -0.530482
O6    O     O_R   0.558320 0.676440 0.585870 -0.530485
O7    O     O_R   0.558020 0.007570 0.440520 -0.519347
O8    O     O_R   0.441980 0.507570 0.559480 -0.519323
C3    C     C_R   0.428061 0.344809 0.388312 0.675469
C4    C     C_R   0.571943 0.844776 0.611687 0.675440
O9    O     O_3   0.538160 0.339670 0.508820 -0.364324
O10   O     O_3   0.461840 0.839670 0.491180 -0.364301
V1    V     V_3+5 0.492920 0.064260 0.498360 1.420913
V2    V     V_3+5 0.507080 0.564260 0.501640 1.420955
C5    C     C_R   0.875729 0.986840 0.688292 -0.159845
C6    C     C_R   0.124172 0.485292 0.311774 -0.159811
H1    H     H_    0.963583 0.014137 0.752069 0.107323
H2    H     H_    0.036312 0.512537 0.247998 0.107288
H3    H     H_    0.795793 0.987129 0.571039 0.126170
H4    H     H_    0.204066 0.484895 0.429065 0.126167
H5    H     H_    0.897625 0.018407 0.637593 0.114033
H6    H     H_    0.102229 0.516128 0.362509 0.114029
C7    C     C_R   0.887131 0.942933 0.819802 -0.036221
C8    C     C_R   0.112862 0.442747 0.180196 -0.036141
C9    C     C_R   0.582676 0.810979 0.745779 -0.159297
C10   C     C_R   0.417396 0.312058 0.254180 -0.159363
C11   C     C_R   0.617479 0.806529 0.812751 -0.119898
C12   C     C_R   0.382620 0.308039 0.187187 -0.119872
C13   C     C_R   0.682498 0.839407 0.816595 -0.156718
C14   C     C_R   0.317575 0.340516 0.183357 -0.156710
C15   C     C_R   0.714810 0.878532 0.752765 0.077200
C16   C     C_R   0.285207 0.378773 0.247224 0.077188
C17   C     C_R   0.678453 0.885008 0.683931 0.068948
C18   C     C_R   0.321532 0.384759 0.316084 0.068942
C19   C     C_R   0.781878 0.911076 0.754978 0.073470
C20   C     C_R   0.218116 0.410931 0.245024 0.073486
C21   C     C_R   0.810488 0.951325 0.688310 0.137728
C22   C     C_R   0.189446 0.450256 0.311736 0.137707
C23   C     C_R   0.773965 0.956844 0.621908 -0.198297
C24   C     C_R   0.225939 0.455308 0.378163 -0.198276
C25   C     C_R   0.709149 0.923829 0.619609 -0.191062
C26   C     C_R   0.290781 0.422706 0.380446 -0.190963
C27   C     C_R   0.821826 0.906096 0.820721 -0.213735
C28   C     C_R   0.178200 0.406418 0.179253 -0.213697
C29   C     C_R   0.913488 0.983957 0.753420 -0.164885
C30   C     C_R   0.086439 0.482814 0.246625 -0.164941
C31   C     C_R   0.612061 0.850424 0.681014 -0.080422
C32   C     C_R   0.387951 0.350610 0.318984 -0.080344
H7    H     H_    0.532282 0.782966 0.744403 0.106399
H8    H     H_    0.467817 0.284437 0.255541 0.106365
H9    H     H_    0.593831 0.776243 0.862343 0.119877
H10   H     H_    0.406312 0.278438 0.137564 0.119875
H11   H     H_    0.683149 0.929398 0.566751 0.111229
H12   H     H_    0.316758 0.427891 0.433324 0.111070
C33   C     C_1   0.864609 0.938930 0.132200 -0.209033
C34   C     C_1   0.135391 0.438939 0.867800 -0.209033
C35   C     C_1   0.821794 0.924875 0.176007 -0.002965
C36   C     C_1   0.178206 0.424885 0.823992 -0.002964
C37   C     C_1   0.771261 0.905756 0.228171 -0.003948
C38   C     C_1   0.228738 0.405760 0.771829 -0.003947
C39   C     C_1   0.728706 0.889126 0.272181 -0.004217
C40   C     C_1   0.271294 0.389122 0.727819 -0.004216
C41   C     C_1   0.678151 0.870004 0.324313 -0.002369
C42   C     C_1   0.321849 0.369993 0.675688 -0.002365
C43   C     C_1   0.635296 0.855947 0.368064 -0.206415
C44   C     C_1   0.364704 0.355938 0.631936 -0.206416
O11   O     O_R   0.058070 0.289240 0.940580 -0.519973
O12   O     O_R   0.941930 0.789240 0.059420 -0.519977
O13   O     O_R   0.058330 0.616740 0.085880 -0.532176
O14   O     O_R   0.941670 0.116740 0.914120 -0.532190
C45   C     C_R   0.072010 0.448775 0.111732 0.684071
C46   C     C_R   0.927989 0.948809 0.888265 0.684064
O15   O     O_R   0.065180 0.619040 0.942700 -0.522122
O16   O     O_R   0.934820 0.119040 0.057300 -0.522119
O17   O     O_R   0.948870 0.787780 0.915270 -0.529712
O18   O     O_R   0.051130 0.287780 0.084730 -0.529709
C47   C     C_R   0.083169 0.450325 0.920178 0.705309
C48   C     C_R   0.916831 0.950322 0.079822 0.705337
O19   O     O_3   0.961870 0.453310 0.991210 -0.365496
O20   O     O_3   0.038130 0.953310 0.008790 -0.365484
V3    V     V_3+5 0.007070 0.728770 0.001630 1.415393
V4    V     V_3+5 0.992930 0.228770 0.998370 1.415402
H13   H     H_    0.803779 0.876747 0.873429 0.094424
H14   H     H_    0.196292 0.377757 0.126512 0.094355
H15   H     H_    0.706063 0.832973 0.870448 0.108750
H16   H     H_    0.294035 0.334478 0.129485 0.108750

loop_
_geom_bond_atom_site_label_1
_geom_bond_atom_site_label_2
_ccdc_geom_bond_type
C42   C44   T    
C39   C41   S    
C9    C11   A    
O1    C3    A    
O2    C4    A    
O16   V4    S    
C2    O7    A    
C4    C31   S    
O3    V1    S    
C21   C23   A    
O5    C3    A    
C12   H10   S    
C5    H5    S    
C6    H6    S    
H1    C29   S    
C33   C35   T    
O17   V3    S    
C34   C36   T    
C14   H16   S    
C8    C45   S    
C36   C38   S    
C7    C46   S    
C5    C21   A    
C37   C39   T    
C6    C22   A    
C38   C40   T    
C10   C32   A    
C41   C43   T    
C46   O17   A    
C17   C31   A    
C45   O18   A    
C13   C15   A    
C12   C14   A    
C17   C25   A    
C7    C29   A    
C8    C30   A    
O5    V1    S    
O6    V2    S    
C23   C25   A    
C33   C48   S    
C24   C26   A    
C1    C44   S    
C9    H7    S    
O13   V3    S    
C35   C37   S    
C13   H15   S    
O12   C48   A    
C5    C29   A    
O14   C46   A    
O13   C45   A    
C15   C19   A    
C14   C16   A    
O4    V2    S    
C27   H13   S    
O2    V1    S    
C26   H12   S    
O6    C4    A    
O1    V2    S    
O14   V4    S    
O12   V3    S    
H2    C30   S    
C34   C47   S    
H3    C23   S    
C25   H11   S    
C2    C43   S    
O11   C47   A    
O4    C2    A    
C19   C27   A    
C7    C27   A    
O19   V4    S    
C18   C32   A    
C16   C20   A    
O16   C48   A    
O3    C1    A    
C6    C30   A    
C10   C12   A    
O7    V1    S    
C1    O8    A    
C19   C21   A    
O11   V4    S    
O8    V2    S    
C20   C22   A    
C10   H8    S    
O15   V3    S    
H4    C24   S    
C11   H9    S    
C22   C24   A    
C15   C17   A    
C16   C18   A    
C20   C28   A    
C18   C26   A    
C8    C28   A    
O18   V4    S    
C11   C13   A    
O20   V3    S    
O9    V2    S    
C3    C32   S    
O10   V1    S    
O15   C47   A    
C9    C31   A    
C40   C42   S    
C28   H14   S    
