data_mof_unit_43925.cif
_audit_creation_date              2012-12-10T17:31:18-0500
_audit_creation_method            fapswitch 2.2
_symmetry_space_group_name_H-M    P1
_symmetry_Int_Tables_number       1
_space_group_crystal_system       triclinic
_cell_length_a                    19.288711
_cell_length_b                    18.924172
_cell_length_c                    12.366278
_cell_angle_alpha                 89.44599
_cell_angle_beta                  130.054548
_cell_angle_gamma                 90.954225
_cell_volume                      3454.6587157

loop_
_atom_site_label
_atom_site_type_symbol
_atom_type_description
_atom_site_fract_x
_atom_site_fract_y
_atom_site_fract_z
_atom_type_partial_charge
C1    C     C_R   0.605300 0.895344 0.645424 0.840870
C2    C     C_R   0.611844 0.102115 0.652918 0.868409
C3    C     C_R   0.105301 0.395345 0.645425 0.840878
C4    C     C_R   0.111841 0.602117 0.652914 0.868356
C5    C     C_R   0.262328 0.754310 0.076099 0.023538
C6    C     C_R   0.247869 0.234320 0.050343 0.012266
C7    C     C_R   0.762335 0.254305 0.076109 0.023537
C8    C     C_R   0.747867 0.734318 0.050341 0.012275
C9    C     C_R   0.686820 0.244487 0.071671 -0.098979
C10   C     C_R   0.681819 0.751367 0.064545 -0.129809
C11   C     C_R   0.186810 0.744494 0.071658 -0.098992
C12   C     C_R   0.181822 0.251369 0.064548 -0.129802
C13   C     C_R   0.609816 0.208757 0.954722 0.329487
C14   C     C_R   0.605397 0.790897 0.955913 0.314251
C15   C     C_R   0.109808 0.708761 0.954713 0.329491
C16   C     C_R   0.105398 0.290897 0.955914 0.314247
C17   C     C_R   0.601465 0.196301 0.836117 0.457838
C18   C     C_R   0.589289 0.803323 0.830524 0.455639
C19   C     C_R   0.101457 0.696303 0.836108 0.457845
C20   C     C_R   0.089290 0.303324 0.830525 0.455655
C21   C     C_R   0.333185 0.799851 0.178869 -0.251641
C22   C     C_R   0.317141 0.186845 0.147616 -0.183004
C23   C     C_R   0.833190 0.299849 0.178876 -0.251652
C24   C     C_R   0.817140 0.686845 0.147615 -0.183021
C25   C     C_R   0.259472 0.822398 0.274404 -0.266996
C26   C     C_R   0.261863 0.177350 0.274957 -0.256555
C27   C     C_R   0.759481 0.322390 0.274418 -0.267001
C28   C     C_R   0.761859 0.677346 0.274952 -0.256546
C29   C     C_R   0.679246 0.158678 0.746191 -0.256461
C30   C     C_R   0.654766 0.829264 0.715936 -0.230387
C31   C     C_R   0.179235 0.658686 0.746176 -0.256514
C32   C     C_R   0.154767 0.329265 0.715937 -0.230386
C33   C     C_R   0.686362 0.017101 0.293659 0.304598
C34   C     C_R   0.186361 0.517105 0.293658 0.304603
C35   C     C_R   0.343687 0.004970 0.625150 0.667029
C36   C     C_R   0.843687 0.504969 0.625151 0.667018
C37   C     C_R   0.314567 0.025444 0.698807 -0.445853
C38   C     C_R   0.814566 0.525442 0.698807 -0.445848
C39   C     C_R   0.387158 0.100363 0.345041 0.814000
C40   C     C_R   0.389141 0.897946 0.349159 0.794170
C41   C     C_R   0.887157 0.600363 0.345040 0.813985
C42   C     C_R   0.889142 0.397946 0.349160 0.794181
C43   C     C_R   0.376985 0.033273 0.844765 0.355183
C44   C     C_R   0.876985 0.533272 0.844765 0.355180
C45   C     C_R   0.466176 0.009373 0.922328 0.067506
C46   C     C_R   0.966176 0.509372 0.922328 0.067507
C47   C     C_R   0.496028 0.001311 0.844001 0.166037
C48   C     C_R   0.996028 0.501310 0.844001 0.166034
C49   C     C_R   0.529680 0.005404 0.074233 -0.097774
C50   C     C_R   0.029679 0.505404 0.074233 -0.097776
C51   C     C_R   0.623537 0.010616 0.144994 -0.128981
C52   C     C_R   0.123537 0.510617 0.144993 -0.128987
C53   C     C_R   0.652663 0.006312 0.065636 0.499671
C54   C     C_R   0.152662 0.506313 0.065636 0.499668
C55   C     C_R   0.589433 0.000283 0.918806 -0.206475
C56   C     C_R   0.089433 0.500283 0.918806 -0.206472
C57   C     C_R   0.503957 0.989025 0.157454 0.599754
C58   C     C_R   0.003957 0.489024 0.157454 0.599753
C59   C     C_R   0.655935 0.010824 0.370897 0.518634
C60   C     C_R   0.155935 0.510827 0.370896 0.518646
C61   C     C_R   0.689039 0.276530 0.177892 0.403783
C62   C     C_R   0.691904 0.723133 0.181068 0.433201
C63   C     C_R   0.189026 0.776542 0.177871 0.403789
C64   C     C_R   0.191908 0.223138 0.181074 0.433206
C65   C     C_R   0.327642 0.838072 0.268541 -0.126292
C66   C     C_R   0.322280 0.156714 0.256091 -0.135216
C67   C     C_R   0.827647 0.338069 0.268547 -0.126280
C68   C     C_R   0.822278 0.656713 0.256089 -0.135219
C69   C     C_R   0.753031 0.170147 0.749627 0.348813
C70   C     C_R   0.705104 0.799933 0.682168 0.309120
C71   C     C_R   0.253016 0.670162 0.749602 0.348805
C72   C     C_R   0.205105 0.299934 0.682168 0.309121
C73   C     C_R   0.335115 0.695801 0.872772 0.481688
C74   C     C_R   0.284604 0.263844 0.788164 0.494297
C75   C     C_R   0.835129 0.195791 0.872793 0.481647
C76   C     C_R   0.784603 0.763843 0.788163 0.494303
C77   C     C_R   0.339720 0.721142 0.982771 -0.246473
C78   C     C_R   0.305387 0.251923 0.918535 -0.162517
C79   C     C_R   0.839730 0.221137 0.982786 -0.246450
C80   C     C_R   0.805386 0.751922 0.918533 -0.162512
C81   C     C_R   0.761808 0.222656 0.971283 -0.046500
C82   C     C_R   0.739359 0.761566 0.934111 -0.072916
C83   C     C_R   0.261799 0.722661 0.971271 -0.046502
C84   C     C_R   0.239361 0.261568 0.934113 -0.072917
C85   C     C_R   0.680050 0.192287 0.849775 -0.151574
C86   C     C_R   0.660483 0.798646 0.826340 -0.179719
C87   C     C_R   0.180041 0.692292 0.849763 -0.151545
C88   C     C_R   0.160485 0.298647 0.826343 -0.179714
Cu1   Cu    Cu3+1 0.526340 0.000000 0.421010 1.024122
Cu2   Cu    Cu3+1 0.026340 0.500000 0.421010 1.024098
Cu3   Cu    Cu3+1 0.473640 0.000000 0.578990 1.038694
Cu4   Cu    Cu3+1 0.973640 0.500000 0.578990 1.038694
H1    H     H_    0.257545 0.849568 0.349021 0.198466
H2    H     H_    0.265779 0.154573 0.359509 0.199547
H3    H     H_    0.757556 0.349558 0.349039 0.198456
H4    H     H_    0.765774 0.654568 0.359502 0.199550
H5    H     H_    0.245844 0.042567 0.642551 0.176843
H6    H     H_    0.745843 0.542565 0.642550 0.176845
H7    H     H_    0.616974 0.997910 0.867023 0.194419
H8    H     H_    0.116974 0.497910 0.867023 0.194420
H9    H     H_    0.389236 0.811994 0.182114 0.187602
H10   H     H_    0.365182 0.169477 0.136658 0.206435
H11   H     H_    0.889239 0.311994 0.182116 0.187605
H12   H     H_    0.865182 0.669477 0.136658 0.206427
H13   H     H_    0.405607 0.738431 0.076470 0.209298
H14   H     H_    0.372022 0.232427 0.003453 0.239410
H15   H     H_    0.905616 0.238428 0.076484 0.209294
H16   H     H_    0.872020 0.732425 0.003451 0.239407
N1    N     N_R   0.566260 0.000000 0.302220 -0.283441
N2    N     N_R   0.066260 0.500000 0.302220 -0.283444
N3    N     N_R   0.434410 0.000000 0.697680 -0.211555
N4    N     N_R   0.934410 0.500000 0.697680 -0.211556
O1    O     O_R   0.608610 0.924520 0.551740 -0.526128
O2    O     O_R   0.608610 0.075480 0.551740 -0.503363
O3    O     O_R   0.108610 0.424520 0.551740 -0.526128
O4    O     O_R   0.108610 0.575480 0.551740 -0.503407
O5    O     O_R   0.564110 0.924510 0.685150 -0.576858
O6    O     O_R   0.564110 0.075490 0.685150 -0.569864
O7    O     O_R   0.064110 0.424510 0.685150 -0.576856
O8    O     O_R   0.064110 0.575490 0.685150 -0.569844
O9    O     O_R   0.435880 0.075470 0.314850 -0.606281
O10   O     O_R   0.435880 0.924530 0.314850 -0.578873
O11   O     O_R   0.935880 0.575470 0.314850 -0.606293
O12   O     O_R   0.935880 0.424530 0.314850 -0.578872
O13   O     O_R   0.391380 0.075460 0.448260 -0.526864
O14   O     O_R   0.391380 0.924540 0.448260 -0.523010
O15   O     O_R   0.891380 0.575460 0.448260 -0.526857
O16   O     O_R   0.891380 0.424540 0.448260 -0.523011
O17   O     O_3   0.743717 0.008821 0.130481 -0.548887
C89   C     C_3   0.772815 0.939514 0.139034 -0.240199
H17   H     H_    0.741948 0.918658 0.032620 0.131631
H18   H     H_    0.757983 0.903138 0.193495 0.177386
H19   H     H_    0.847295 0.940827 0.202086 0.187625
O18   O     O_3   0.243717 0.508823 0.130481 -0.548886
C90   C     C_3   0.272816 0.439515 0.139038 -0.240195
H20   H     H_    0.241949 0.418658 0.032625 0.131629
H21   H     H_    0.257985 0.403141 0.193502 0.177386
H22   H     H_    0.347296 0.440829 0.202090 0.187626
O19   O     O_3   0.777860 0.026145 0.364280 -0.548655
C91   C     C_3   0.800687 0.098554 0.394120 -0.234556
H23   H     H_    0.808066 0.114106 0.487350 0.186858
H24   H     H_    0.751113 0.132952 0.301846 0.174317
H25   H     H_    0.867377 0.107486 0.421582 0.174907
O20   O     O_3   0.277859 0.526153 0.364280 -0.548654
C92   C     C_3   0.300678 0.598564 0.394108 -0.234540
H26   H     H_    0.308030 0.614123 0.487310 0.186875
H27   H     H_    0.251114 0.632955 0.301815 0.174326
H28   H     H_    0.367380 0.607495 0.421608 0.174890
O21   O     O_3   0.441109 0.933998 0.108221 -0.560708
C93   C     C_3   0.352772 0.957400 0.042217 -0.154282
H29   H     H_    0.316976 0.917771 0.056707 0.156173
H30   H     H_    0.310986 0.957983 0.926256 0.170715
H31   H     H_    0.351374 0.007496 0.086612 0.198333
O22   O     O_3   0.941110 0.433997 0.108222 -0.560706
C94   C     C_3   0.852772 0.457398 0.042217 -0.154280
H32   H     H_    0.816976 0.417769 0.056707 0.156171
H33   H     H_    0.810987 0.457981 0.926256 0.170715
H34   H     H_    0.851374 0.507493 0.086612 0.198336
O23   O     O_3   0.285152 0.002288 0.478493 -0.553814
C95   C     C_3   0.201592 0.969408 0.421442 -0.345172
H35   H     H_    0.155747 0.007435 0.414767 0.165276
H36   H     H_    0.210386 0.921227 0.481532 0.163952
H37   H     H_    0.167927 0.952659 0.311740 0.211895
O24   O     O_3   0.785152 0.502287 0.478493 -0.553816
C96   C     C_3   0.701596 0.469399 0.421446 -0.345154
H38   H     H_    0.655746 0.507420 0.414771 0.165277
H39   H     H_    0.710397 0.421217 0.481537 0.163954
H40   H     H_    0.667932 0.452652 0.311744 0.211891
Cl1   Cl    Cl    0.348742 0.093966 0.916642 -0.702827
Cl2   Cl    Cl    0.848740 0.593964 0.916641 -0.702830
Cl3   Cl    Cl    0.522211 0.175680 0.948762 -0.515258
Cl4   Cl    Cl    0.526208 0.828732 0.965171 -0.509935
Cl5   Cl    Cl    0.022211 0.675677 0.948766 -0.515273
Cl6   Cl    Cl    0.026204 0.328728 0.965164 -0.509949
Cl7   Cl    Cl    0.601912 0.273299 0.188321 -0.645000
Cl8   Cl    Cl    0.614584 0.732333 0.209851 -0.664927
Cl9   Cl    Cl    0.101888 0.773326 0.188276 -0.645001
Cl10  Cl    Cl    0.114594 0.232343 0.209867 -0.664921
O25   O     O_3   0.748378 0.151227 0.637582 -0.545400
C97   C     C_3   0.708524 0.207336 0.539694 -0.209867
H41   H     H_    0.753548 0.255009 0.584588 0.168140
H42   H     H_    0.640405 0.220409 0.503672 0.155483
H43   H     H_    0.698746 0.190918 0.444990 0.204136
O26   O     O_3   0.683897 0.814067 0.553878 -0.592453
C98   C     C_3   0.598167 0.783735 0.443243 -0.192901
H44   H     H_    0.605089 0.726642 0.432821 0.170554
H45   H     H_    0.570990 0.811031 0.343499 0.252211
H46   H     H_    0.546194 0.789794 0.455313 0.108503
O27   O     O_3   0.248361 0.651260 0.637548 -0.545421
C99   C     C_3   0.208403 0.707342 0.539599 -0.209705
H47   H     H_    0.253278 0.755101 0.584498 0.167980
H48   H     H_    0.140209 0.720257 0.503434 0.155562
H49   H     H_    0.198772 0.690981 0.444996 0.204078
O28   O     O_3   0.183894 0.314066 0.553876 -0.592445
C100  C     C_3   0.098163 0.283734 0.443244 -0.192893
H50   H     H_    0.105086 0.226641 0.432820 0.170549
H51   H     H_    0.070984 0.311030 0.343500 0.252212
H52   H     H_    0.046192 0.289792 0.455320 0.108499
O29   O     O_3   0.411232 0.698553 0.884373 -0.500198
C101  C     C_3   0.449527 0.630704 0.920038 -0.206087
H53   H     H_    0.403641 0.591886 0.833947 0.162523
H54   H     H_    0.467665 0.611727 0.020877 0.163732
H55   H     H_    0.512863 0.633834 0.935418 0.186191
O30   O     O_3   0.348110 0.246582 0.774116 -0.511239
C102  C     C_3   0.308909 0.205931 0.650890 -0.052045
H56   H     H_    0.249523 0.173324 0.618061 0.117064
H57   H     H_    0.359863 0.168743 0.671348 0.223056
H58   H     H_    0.290734 0.240527 0.563259 0.178741
O31   O     O_3   0.911247 0.198538 0.884400 -0.500241
C103  C     C_3   0.949547 0.130690 0.920089 -0.206111
H59   H     H_    0.903664 0.091866 0.834012 0.162522
H60   H     H_    0.967687 0.111725 0.020935 0.163743
H61   H     H_    0.012882 0.133818 0.935468 0.186199
O32   O     O_3   0.848110 0.746581 0.774116 -0.511234
C104  C     C_3   0.808908 0.705929 0.650892 -0.052052
H62   H     H_    0.749523 0.673322 0.618064 0.117064
H63   H     H_    0.859863 0.668741 0.671350 0.223062
H64   H     H_    0.790733 0.740524 0.563259 0.178735
O33   O     O_3   0.515010 0.189439 0.706948 -0.542133
C105  C     C_3   0.492562 0.253193 0.631640 -0.325242
H65   H     H_    0.536256 0.262993 0.603461 0.146471
H66   H     H_    0.496677 0.298760 0.691982 0.177762
H67   H     H_    0.421569 0.249027 0.531702 0.186219
O34   O     O_3   0.501317 0.816816 0.709952 -0.516489
C106  C     C_3   0.460817 0.752773 0.635673 -0.277169
H68   H     H_    0.388206 0.762064 0.546140 0.183989
H69   H     H_    0.464060 0.711198 0.703150 0.183969
H70   H     H_    0.492381 0.733862 0.591445 0.128561
O35   O     O_3   0.015001 0.689437 0.706940 -0.542132
C107  C     C_3   0.992547 0.753191 0.631629 -0.325264
H71   H     H_    0.036239 0.762993 0.603447 0.146461
H72   H     H_    0.996660 0.798758 0.691969 0.177769
H73   H     H_    0.921555 0.749022 0.531692 0.186218
O36   O     O_3   0.001319 0.316814 0.709951 -0.516494
C108  C     C_3   0.960820 0.252767 0.635683 -0.277284
H74   H     H_    0.888210 0.262058 0.546143 0.183957
H75   H     H_    0.964059 0.211199 0.703165 0.183991
H76   H     H_    0.992387 0.233850 0.591466 0.128598
O37   O     O_3   0.715639 0.015931 0.516882 -0.522944
C109  C     C_3   0.780817 0.961913 0.579119 -0.147299
H77   H     H_    0.795112 0.944473 0.677587 0.172273
H78   H     H_    0.845246 0.983180 0.609666 0.164128
H79   H     H_    0.758729 0.914329 0.510862 0.178814
O38   O     O_3   0.215639 0.515939 0.516881 -0.522956
C110  C     C_3   0.280817 0.461921 0.579123 -0.147339
H80   H     H_    0.295112 0.444485 0.677593 0.172267
H81   H     H_    0.345245 0.483187 0.609666 0.164132
H82   H     H_    0.258728 0.414335 0.510872 0.178824

loop_
_geom_bond_atom_site_label_1
_geom_bond_atom_site_label_2
_ccdc_geom_bond_type
C28   H4    S    
C26   H2    S    
C90   H22   S    
C83   C87   A    
C25   H1    S    
C96   H38   S    
C39   O13   A    
Cu3   O14   S    
C94   H33   S    
Cu2   O11   S    
C14   C18   A    
C53   C55   A    
C27   H3    S    
O37   C109  S    
C61   Cl7   S    
C91   H25   S    
C35   N3    A    
C38   H6    S    
O34   C106  S    
C37   H5    S    
C92   H26   S    
C2    O6    A    
C42   O12   A    
C90   H20   S    
C32   C72   A    
C102  H56   S    
O26   C98   S    
C15   C19   A    
C34   O20   S    
C18   C86   A    
C74   O30   S    
C2    C29   S    
C9    C61   A    
O24   C96   S    
C28   C68   A    
Cu4   O7    S    
C91   H24   S    
C16   Cl6   S    
C5    C11   A    
C19   C87   A    
C104  H63   S    
C72   O28   S    
C12   C64   A    
C7    C23   A    
C98   H45   S    
Cu1   O10   S    
C77   C83   A    
C23   C67   A    
C54   O18   S    
Cu1   N1    S    
C64   Cl10  S    
C106  H70   S    
C49   C57   A    
O38   C110  S    
C107  H73   S    
C7    C9    A    
C25   C63   A    
Cu3   N3    S    
C26   C64   A    
C22   C66   A    
C9    C13   A    
C34   C52   A    
C58   O22   S    
C99   H49   S    
C92   H27   S    
C7    C81   A    
C11   C15   A    
C57   N1    A    
C12   C16   A    
C52   C54   A    
C101  H53   S    
C49   C51   A    
C93   H31   S    
C57   O21   S    
C36   N4    A    
C50   C52   A    
C108  H74   S    
Cu3   O5    S    
Cu2   O4    S    
C30   C86   A    
C27   C61   A    
C29   C85   A    
C17   O33   S    
C97   H43   S    
C42   O16   A    
C100  H52   S    
C21   H9    S    
C31   C71   A    
O28   C100  S    
C40   O14   A    
O29   C101  S    
C33   C59   A    
C110  H80   S    
C94   H34   S    
C34   C60   A    
C108  H75   S    
C10   C62   A    
C1    O1    A    
Cu4   O16   S    
C105  H66   S    
C105  H65   S    
C30   C70   A    
C97   H42   S    
O31   C103  S    
C41   C68   S    
C29   C69   A    
C45   C47   A    
C43   Cl1   S    
C106  H69   S    
C23   H11   S    
C60   O38   S    
C6    C84   A    
C15   Cl5   S    
C79   H15   S    
C26   C66   A    
C95   H37   S    
C84   C88   A    
C31   C87   A    
C91   H23   S    
C72   C74   A    
C10   C14   A    
C104  H64   S    
O33   C105  S    
C79   C81   A    
C20   O36   S    
O32   C104  S    
Cu4   N4    S    
C98   H46   S    
C44   C46   A    
C82   C86   A    
C109  H79   S    
C63   Cl9   S    
C59   N1    A    
C24   H12   S    
C5    C21   A    
C95   H36   S    
C37   C43   A    
C89   H18   S    
C104  H62   S    
C47   N3    A    
C99   H47   S    
C38   C44   A    
O35   C107  S    
C78   C84   A    
C108  H76   S    
C19   O35   S    
Cu2   Cu4   S    
O23   C95   S    
Cu1   O1    S    
C45   C49   A    
C16   C20   A    
C62   Cl8   S    
C44   Cl2   S    
C109  H78   S    
C106  H68   S    
C20   C88   A    
Cu3   O6    S    
C25   C65   A    
C1    O5    A    
Cu2   O3    S    
C71   O27   S    
C107  H72   S    
C43   C45   A    
C8    C82   A    
O22   C94   S    
C3    O7    A    
C14   Cl4   S    
C50   C58   A    
C48   N4    A    
C96   H40   S    
C103  H60   S    
C40   C65   S    
C110  H81   S    
C70   C76   A    
C42   C67   S    
C39   C66   S    
C17   C85   A    
C32   C88   A    
Cu1   Cu3   S    
O36   C108  S    
C56   H8    S    
C55   H7    S    
C41   O15   A    
Cu4   O15   S    
C59   O37   S    
C92   H28   S    
C18   O34   S    
C97   H41   S    
C35   C37   A    
C47   C55   A    
O17   C89   S    
C102  H58   S    
C70   O26   S    
O27   C99   S    
C90   H21   S    
C80   H16   S    
Cu1   O2    S    
C75   O31   S    
C99   H48   S    
Cu3   O13   S    
C109  H77   S    
C21   C65   A    
C58   N2    A    
Cu2   O12   S    
C4    O4    A    
C8    C10   A    
C76   C80   A    
O20   C92   S    
C39   O9    A    
O19   C91   S    
C54   C56   A    
O18   C90   S    
C48   C56   A    
O25   C97   S    
C33   C51   A    
C103  H61   S    
C40   O10   A    
C46   C50   A    
C11   C63   A    
C22   H10   S    
C13   C17   A    
C78   H14   S    
C95   H35   S    
C41   O11   A    
C77   H13   S    
C89   H17   S    
Cu4   O8    S    
C107  H71   S    
C3    O3    A    
O21   C93   S    
C69   O25   S    
C6    C12   A    
C2    O2    A    
C98   H44   S    
Cu1   O9    S    
C33   O19   S    
C101  H55   S    
C5    C83   A    
C73   O29   S    
C60   N2    A    
C36   C38   A    
C1    C30   S    
C8    C24   A    
C80   C82   A    
C69   C75   A    
C93   H30   S    
C105  H67   S    
C3    C32   S    
C35   O23   S    
C4    C31   S    
C27   C67   A    
C24   C68   A    
C100  H50   S    
C89   H19   S    
C46   C48   A    
C76   O32   S    
C13   Cl3   S    
C53   O17   S    
O30   C102  S    
C73   C77   A    
C96   H39   S    
C103  H59   S    
C74   C78   A    
C110  H82   S    
C71   C73   A    
C94   H32   S    
C36   O24   S    
Cu2   N2    S    
C93   H29   S    
C4    O8    A    
C51   C53   A    
C102  H57   S    
C75   C79   A    
C101  H54   S    
C81   C85   A    
C28   C62   A    
C100  H51   S    
C6    C22   A    
