data_mof_unit_57953.cif
_audit_creation_date              2012-12-11T14:35:59-0500
_audit_creation_method            fapswitch 2.2
_symmetry_space_group_name_H-M    P1
_symmetry_Int_Tables_number       1
_space_group_crystal_system       triclinic
_cell_length_a                    14.535973
_cell_length_b                    16.107548
_cell_length_c                    7.013318
_cell_angle_alpha                 90.000479
_cell_angle_beta                  80.438372
_cell_angle_gamma                 90.000439
_cell_volume                      1619.27770632

loop_
_atom_site_label
_atom_site_type_symbol
_atom_type_description
_atom_site_fract_x
_atom_site_fract_y
_atom_site_fract_z
_atom_type_partial_charge
O1    O     O_R   0.337460 0.413110 0.524760 -0.540407
O2    O     O_R   0.662540 0.913110 0.475240 -0.540393
O3    O     O_R   0.348690 0.587910 0.191230 -0.561322
O4    O     O_R   0.651310 0.087910 0.808770 -0.561315
O5    O     O_R   0.166530 0.586890 0.082470 -0.527348
O6    O     O_R   0.833470 0.086890 0.917530 -0.527229
C1    C     C_R   0.371499 0.615900 0.353403 0.696234
C2    C     C_R   0.628502 0.115900 0.646598 0.696266
O7    O     O_R   0.348700 0.413830 0.191250 -0.547025
O8    O     O_R   0.651300 0.913830 0.808750 -0.546998
O9    O     O_R   0.166530 0.411570 0.082490 -0.512353
O10   O     O_R   0.833470 0.911570 0.917510 -0.512309
C3    C     C_R   0.370342 0.385698 0.353303 0.800548
C4    C     C_R   0.629656 0.885700 0.646696 0.800659
O11   O     O_R   0.337460 0.588430 0.524740 -0.510577
O12   O     O_R   0.662540 0.088430 0.475260 -0.510553
O13   O     O_3   0.192230 0.499460 0.407330 -0.351185
O14   O     O_3   0.807770 0.999460 0.592670 -0.351235
V1    V     V_3+5 0.263080 0.500100 0.108540 1.529746
V2    V     V_3+5 0.736920 0.000100 0.891460 1.529795
O15   O     O_R   0.155290 0.412090 0.756570 -0.553322
O16   O     O_R   0.844710 0.912090 0.243430 -0.553347
C5    C     C_R   0.132769 0.383382 0.934565 0.764872
C6    C     C_R   0.867223 0.883375 0.065435 0.764961
O17   O     O_R   0.155290 0.586170 0.756550 -0.504956
O18   O     O_R   0.844710 0.086170 0.243450 -0.505276
C7    C     C_R   0.133508 0.615633 0.932449 0.729846
C8    C     C_R   0.866500 0.115627 0.067548 0.729485
V3    V     V_3+5 0.240910 0.499900 0.616030 1.569432
V4    V     V_3+5 0.759090 0.999900 0.383970 1.569119
O19   O     O_3   0.311760 0.500540 0.867100 -0.386225
O20   O     O_3   0.688240 0.000540 0.132900 -0.386177
C9    C     C_3   0.097685 0.759596 0.090922 0.626491
C10   C     C_3   0.902298 0.259594 0.909104 0.626698
C11   C     C_3   0.032177 0.837329 0.088304 -0.412259
C12   C     C_3   0.967804 0.337336 0.911706 -0.412345
H1    H     H_    0.067801 0.885113 0.987802 0.221545
H2    H     H_    0.932179 0.385125 0.012211 0.221553
H3    H     H_    0.019616 0.868602 0.231256 0.149387
H4    H     H_    0.980364 0.368607 0.768744 0.149422
H5    H     H_    0.979875 0.630840 0.226686 0.178473
H6    H     H_    0.020120 0.130853 0.773257 0.178596
H7    H     H_    0.889984 0.745729 0.291157 0.162187
H8    H     H_    0.109982 0.245764 0.708759 0.162200
C13   C     C_3   0.967409 0.657509 0.086427 0.121661
C14   C     C_3   0.032600 0.157523 0.913510 0.121752
C15   C     C_3   0.045729 0.726961 0.764858 0.449675
C16   C     C_3   0.954272 0.226967 0.235137 0.449599
C17   C     C_3   0.063241 0.687701 0.964512 -0.227970
C18   C     C_3   0.936763 0.187698 0.035481 -0.228546
C19   C     C_3   0.938305 0.812442 0.023319 -0.142604
C20   C     C_3   0.061685 0.312449 0.976656 -0.142958
C21   C     C_3   0.899850 0.732708 0.134610 -0.356802
C22   C     C_3   0.100141 0.232732 0.865303 -0.356472
C23   C     C_3   0.961157 0.790464 0.801066 0.365968
C24   C     C_3   0.038839 0.290460 0.198903 0.366934
H9    H     H_    0.828926 0.716943 0.106867 0.239658
H10   H     H_    0.171078 0.216978 0.893002 0.239631
C25   C     C_2   0.447056 0.679550 0.344457 0.175689
C26   C     C_2   0.552945 0.179551 0.655547 0.175678
C27   C     C_2   0.465524 0.716550 0.509574 0.302416
C28   C     C_2   0.534481 0.216556 0.490433 0.302428
H11   H     H_    0.500884 0.826441 0.783070 0.131876
H12   H     H_    0.499109 0.326432 0.216919 0.131870
C29   C     C_2   0.555054 0.823713 0.656664 -0.348514
C30   C     C_2   0.444943 0.323710 0.343332 -0.348492
C31   C     C_2   0.548985 0.771325 0.507938 0.331064
C32   C     C_2   0.451019 0.271329 0.492064 0.331048
O21   O     O_3   0.094829 0.730448 0.279886 -0.607618
H13   H     H_    0.035022 0.747109 0.358439 0.311113
O22   O     O_3   0.905142 0.230442 0.720149 -0.607645
H14   H     H_    0.964924 0.247138 0.641577 0.311249
I1    I     I_    0.834467 0.741946 0.703514 -0.363888
I2    I     I_    0.165473 0.241836 0.296441 -0.363230
O23   O     O_3   0.923519 0.594840 0.995354 -0.618847
H15   H     H_    0.959991 0.543128 0.002264 0.288456
O24   O     O_3   0.076537 0.094865 0.004527 -0.618799
H16   H     H_    0.040093 0.043137 0.997581 0.288333
O25   O     O_3   0.623004 0.764841 0.357750 -0.602489
H17   H     H_    0.610102 0.805303 0.258820 0.325815
O26   O     O_3   0.377004 0.264852 0.642259 -0.602492
H18   H     H_    0.389919 0.305310 0.741191 0.325803
O27   O     O_3   0.404966 0.704032 0.681469 -0.637785
H19   H     H_    0.441620 0.703485 0.788143 0.283222
O28   O     O_3   0.595048 0.204047 0.318547 -0.637761
H20   H     H_    0.558400 0.203492 0.211863 0.283218
O29   O     O_3   0.502317 0.698193 0.169421 -0.648029
H21   H     H_    0.489786 0.657709 0.070888 0.293500
O30   O     O_3   0.497678 0.198189 0.830582 -0.648031
H22   H     H_    0.510217 0.157711 0.929118 0.293504
O31   O     O_3   0.190251 0.784388 0.024378 -0.598019
H23   H     H_    0.232618 0.739564 0.053785 0.328069
O32   O     O_3   0.809731 0.284377 0.975677 -0.598028
H24   H     H_    0.767363 0.239565 0.946225 0.328118
O33   O     O_3   0.029963 0.665797 0.630133 -0.627904
H25   H     H_    0.982315 0.625819 0.687747 0.343388
O34   O     O_3   0.970088 0.165848 0.369929 -0.628017
H26   H     H_    0.017126 0.125450 0.311949 0.343425
I3    I     I_    0.174782 0.787945 0.618978 -0.205834
I4    I     I_    0.825215 0.287947 0.381026 -0.205957
O35   O     O_3   0.986055 0.864205 0.697559 -0.629845
H27   H     H_    0.976853 0.854707 0.562757 0.302514
O36   O     O_3   0.013964 0.364208 0.302432 -0.629989
H28   H     H_    0.023138 0.354714 0.437201 0.302530

loop_
_geom_bond_atom_site_label_1
_geom_bond_atom_site_label_2
_ccdc_geom_bond_type
C30   C32   D    
O29   H21   S    
H11   C29   S    
O32   H24   S    
O13   V3    S    
O33   H25   S    
C10   O32   S    
O4    C2    A    
V1    O19   S    
O34   H26   S    
C15   C17   S    
O28   H20   S    
C16   O34   S    
O9    V1    S    
O35   H27   S    
C32   O26   S    
C11   H1    S    
O7    V1    S    
C23   O35   S    
O3    C1    A    
C9    O31   S    
C22   H10   S    
O12   V4    S    
C15   I3    S    
C26   C28   D    
H6    C14   S    
O7    C3    A    
C9    C11   S    
O5    C7    A    
C8    C18   S    
H7    C21   S    
O6    C8    A    
O8    V2    S    
C29   C31   D    
O3    V1    S    
O14   V4    S    
C19   C23   S    
C12   C20   S    
C9    O21   S    
C6    C19   S    
C16   C18   S    
C13   C21   S    
C2    O12   A    
O10   V2    S    
C1    C25   S    
C20   C22   S    
O11   V3    S    
C3    C30   S    
O17   V3    S    
C16   I4    S    
C28   O28   S    
C25   C27   D    
C24   I2    S    
C12   H4    S    
C31   O25   S    
C27   O27   S    
O31   H23   S    
C21   H9    S    
C1    O11   A    
C26   O30   S    
O15   V3    S    
O26   H18   S    
C19   C21   S    
H12   C30   S    
C11   H3    S    
O23   H15   S    
C14   O24   S    
C27   C31   S    
O27   H19   S    
C13   C17   S    
C23   I1    S    
C14   C22   S    
O1    V3    S    
O18   V4    S    
O15   C5    A    
C11   C19   S    
O16   C6    A    
O1    C3    A    
O2    V4    S    
C15   C23   S    
V2    O20   S    
C16   C24   S    
C14   C18   S    
H5    C13   S    
O16   V4    S    
C24   O36   S    
C10   C18   S    
O5    V1    S    
O17   C7    A    
O6    V2    S    
O10   C6    A    
O18   C8    A    
C28   C32   S    
C13   O23   S    
C12   H2    S    
O22   H14   S    
V3    O19   S    
C2    C26   S    
V4    O20   S    
C5    C20   S    
C20   C24   S    
O9    C5    A    
O13   V1    S    
C4    C29   S    
O14   V2    S    
O21   H13   S    
O2    C4    A    
C25   O29   S    
O25   H17   S    
O4    V2    S    
H8    C22   S    
C10   C12   S    
O36   H28   S    
C15   O33   S    
O24   H16   S    
O30   H22   S    
C9    C17   S    
C10   O22   S    
C7    C17   S    
O8    C4    A    
