data_mof_unit_40234.cif
_audit_creation_date              2012-12-10T18:57:39-0500
_audit_creation_method            fapswitch 2.2
_symmetry_space_group_name_H-M    P1
_symmetry_Int_Tables_number       1
_space_group_crystal_system       triclinic
_cell_length_a                    10.849621
_cell_length_b                    10.851581
_cell_length_c                    9.720731
_cell_angle_alpha                 89.206408
_cell_angle_beta                  91.772138
_cell_angle_gamma                 94.957428
_cell_volume                      1139.57710881

loop_
_atom_site_label
_atom_site_type_symbol
_atom_type_description
_atom_site_fract_x
_atom_site_fract_y
_atom_site_fract_z
_atom_type_partial_charge
C1    C     C_R   0.501170 0.262654 0.500643 0.806790
C2    C     C_R   0.510271 0.129489 0.501189 -0.091790
C3    C     C_R   0.533713 0.068778 0.378760 -0.219857
C4    C     C_R   0.536249 0.940368 0.377962 -0.208893
C5    C     C_R   0.516455 0.871390 0.499800 -0.077572
C6    C     C_R   0.509814 0.934037 0.623376 0.093334
C7    C     C_3   0.416473 0.912293 0.732402 -0.503947
C8    C     C_3   0.406911 0.050103 0.729829 -0.340187
C9    C     C_R   0.600627 0.547203 0.075791 0.197839
C10   C     C_R   0.401245 0.443636 0.070607 0.029142
C11   C     C_R   0.406598 0.432999 0.922482 0.454191
C12   C     C_R   0.265740 0.500384 0.498176 0.883637
C13   C     C_R   0.600514 0.548586 0.930193 0.125355
C14   C     C_3   0.660701 0.678222 0.925977 -0.128017
C15   C     C_3   0.659177 0.676178 0.083250 -0.509793
C16   C     C_R   0.503822 0.737262 0.499417 0.758945
C17   C     C_R   0.734651 0.503875 0.501740 0.826122
C18   C     C_2   0.933406 0.539003 0.393384 -0.148001
C19   C     C_2   0.868277 0.514225 0.507016 -0.317581
C20   C     C_2   0.068682 0.548262 0.396620 -0.224010
C21   C     C_2   0.132576 0.492573 0.495344 -0.270630
C22   C     C_R   0.504528 0.060700 0.623830 0.097608
Cu1   Cu    Cu3+1 0.499990 0.499980 0.640670 1.005869
Cu2   Cu    Cu3+1 0.500010 0.500020 0.359330 0.930357
H1    H     H_    0.887149 0.556026 0.295161 0.164596
H2    H     H_    0.438632 0.095633 0.827946 0.224308
H3    H     H_    0.597942 0.743835 0.879816 0.173953
H4    H     H_    0.751176 0.679668 0.137155 0.180908
H5    H     H_    0.595885 0.740861 0.124378 0.190835
H6    H     H_    0.912542 0.506592 0.607876 0.150327
H7    H     H_    0.115918 0.600093 0.314599 0.157911
H8    H     H_    0.087289 0.437961 0.575946 0.193829
H9    H     H_    0.545140 0.119391 0.282540 0.167237
H10   H     H_    0.548008 0.895343 0.281292 0.155148
H11   H     H_    0.330339 0.857987 0.695658 0.211140
H12   H     H_    0.456590 0.879571 0.831164 0.191626
H13   H     H_    0.314784 0.071515 0.688083 0.245514
N1    N     N_R   0.500780 0.500930 0.147930 -0.211536
N2    N     N_R   0.500780 0.500890 0.852020 -0.264571
O1    O     O_R   0.500000 0.319640 0.618810 -0.521314
O2    O     O_R   0.500010 0.319680 0.381230 -0.607820
O3    O     O_R   0.321940 0.499980 0.618760 -0.478196
O4    O     O_R   0.321950 0.500020 0.381180 -0.613241
O5    O     O_R   0.499990 0.680320 0.618770 -0.591782
O6    O     O_R   0.500000 0.680360 0.381190 -0.584661
O7    O     O_R   0.678050 0.499980 0.618820 -0.593001
O8    O     O_R   0.678060 0.500020 0.381240 -0.570894
C23   C     C_3   0.274212 0.410844 0.133726 -0.218770
C24   C     C_3   0.258783 0.286341 0.214879 -0.238866
C25   C     C_3   0.123295 0.234060 0.219104 -0.857902
H14   H     H_    0.067062 0.300931 0.268395 0.257386
H15   H     H_    0.084591 0.214182 0.113980 0.286142
H16   H     H_    0.116417 0.146560 0.280094 0.241349
H17   H     H_    0.314441 0.217030 0.169185 0.232590
H18   H     H_    0.290077 0.295213 0.322831 0.234226
H19   H     H_    0.240517 0.492593 0.179485 0.163943
H20   H     H_    0.198293 0.407581 0.057650 0.224882
S1    S     S_3+6 0.279892 0.335747 0.838570 -0.044055
O9    O     O_2   0.296060 0.286879 0.698643 -0.303924
O10   O     O_2   0.248620 0.223462 0.926706 -0.378045
O11   O     O_3   0.155563 0.418690 0.825851 -0.597069
H21   H     H_    0.082826 0.356831 0.825248 0.354751
C26   C     C_3   0.792740 0.689727 0.868069 -0.336348
C27   C     C_3   0.802496 0.780542 0.745585 -0.348652
C28   C     C_3   0.936103 0.805850 0.700890 -0.832990
H22   H     H_    0.993695 0.852874 0.784341 0.259180
H23   H     H_    0.975796 0.718380 0.675641 0.263657
H24   H     H_    0.938933 0.866856 0.608189 0.245295
H25   H     H_    0.744932 0.742183 0.657417 0.230385
H26   H     H_    0.767778 0.869886 0.774294 0.216993
H27   H     H_    0.861537 0.724397 0.948678 0.199463
H28   H     H_    0.819361 0.598021 0.835661 0.207159

loop_
_geom_bond_atom_site_label_1
_geom_bond_atom_site_label_2
_ccdc_geom_bond_type
C16   O6    A    
C2    C22   A    
C8    C22   S    
Cu1   Cu2   S    
Cu2   O6    S    
C6    C7    S    
C27   H26   S    
C14   H3    S    
C11   S1    S    
C8    H2    S    
C7    H12   S    
C16   O5    A    
Cu2   N1    S    
C2    C3    A    
C10   N1    A    
C28   H24   S    
C27   C28   S    
C24   C25   S    
S1    O11   S    
C25   H14   S    
C9    C15   S    
C23   H20   S    
Cu1   O7    S    
C24   H18   S    
C27   H25   S    
C17   O7    A    
Cu2   O8    S    
C11   N2    A    
Cu2   O2    S    
C18   H1    S    
C15   H4    S    
O11   H21   S    
Cu1   O3    S    
Cu1   N2    S    
C14   C26   S    
C1    O2    A    
C23   C24   S    
C17   C19   S    
C26   H27   S    
C15   H5    S    
C12   O4    A    
C18   C20   S    
C28   H22   S    
C10   C23   S    
C5    C6    A    
C21   H8    S    
C4    H10   S    
C26   H28   S    
C13   N2    A    
C25   H16   S    
C10   C11   A    
C3    H9    S    
C26   C27   S    
S1    O10   D    
C24   H17   S    
C6    C22   A    
C17   O8    A    
C7    C8    S    
C18   C19   D    
C20   C21   D    
C3    C4    A    
C1    C2    S    
C8    H13   S    
C25   H15   S    
C23   H19   S    
Cu2   O4    S    
C9    C13   A    
C14   C15   S    
C9    N1    A    
C5    C16   S    
C12   O3    A    
C1    O1    A    
S1    O9    D    
C13   C14   S    
C19   H6    S    
C7    H11   S    
C12   C21   S    
Cu1   O5    S    
Cu1   O1    S    
C4    C5    A    
C28   H23   S    
C20   H7    S    
