data_mof_unit_25478.cif
_audit_creation_date              2012-12-10T16:49:28-0500
_audit_creation_method            fapswitch 2.2
_symmetry_space_group_name_H-M    P1
_symmetry_Int_Tables_number       1
_space_group_crystal_system       triclinic
_cell_length_a                    7.73805
_cell_length_b                    8.579987
_cell_length_c                    12.897889
_cell_angle_alpha                 90.242294
_cell_angle_beta                  87.468619
_cell_angle_gamma                 93.532215
_cell_volume                      853.859654639

loop_
_atom_site_label
_atom_site_type_symbol
_atom_type_description
_atom_site_fract_x
_atom_site_fract_y
_atom_site_fract_z
_atom_type_partial_charge
C1    C     C_R   0.454653 0.205193 0.497278 0.957942
C2    C     C_R   0.714706 0.455290 0.137572 0.446548
C3    C     C_R   0.584771 0.470117 0.867998 -0.327616
C4    C     C_R   0.415229 0.529882 0.132002 -0.327616
C5    C     C_R   0.577140 0.479168 0.974258 0.138203
C6    C     C_R   0.422860 0.520832 0.025741 0.138203
C7    C     C_2   0.430709 0.041799 0.495729 -0.364483
C8    C     C_2   0.569291 0.958201 0.504271 -0.364483
C9    C     C_R   0.545346 0.794807 0.502722 0.957942
C10   C     C_R   0.464661 0.502597 0.700034 0.911613
C11   C     C_R   0.535339 0.497403 0.299966 0.911613
C12   C     C_R   0.558297 0.495154 0.188361 -0.103797
C13   C     C_R   0.441702 0.504845 0.811639 -0.103797
C14   C     C_R   0.277499 0.552204 0.970636 -0.321039
C15   C     C_R   0.722501 0.447796 0.029364 -0.321039
C16   C     C_R   0.285294 0.544710 0.862428 0.446548
H1    H     H_    0.295515 0.562869 0.170682 0.193887
H2    H     H_    0.046525 0.602633 0.854217 0.325799
H3    H     H_    0.704485 0.437131 0.829318 0.193887
H4    H     H_    0.159119 0.583457 0.011594 0.136354
H5    H     H_    0.840881 0.416543 0.988405 0.136354
H6    H     H_    0.998454 0.614964 0.421881 0.203218
H7    H     H_    0.001546 0.385036 0.578119 0.203218
H8    H     H_    0.299772 0.990808 0.487583 0.183314
H9    H     H_    0.700228 0.009192 0.512417 0.183314
H10   H     H_    0.953475 0.397367 0.145783 0.325799
N1    N     N_2   0.054030 0.541640 0.471970 -0.156897
N2    N     N_2   0.945970 0.458360 0.528030 -0.156897
O1    O     O_R   0.609680 0.261530 0.506880 -0.614172
O2    O     O_3   0.144347 0.577704 0.805919 -0.756908
O3    O     O_R   0.390320 0.738470 0.493120 -0.614172
O4    O     O_R   0.323330 0.288220 0.488910 -0.633246
O5    O     O_R   0.676670 0.711780 0.511090 -0.633246
O6    O     O_R   0.619510 0.488830 0.661140 -0.634956
O7    O     O_R   0.380490 0.511170 0.338860 -0.634957
O8    O     O_R   0.333160 0.515520 0.643180 -0.565351
O9    O     O_R   0.666840 0.484480 0.356820 -0.565351
O10   O     O_3   0.855653 0.422296 0.194081 -0.756908
Zn1   Zn    Zn3+2 0.691200 0.482180 0.511990 0.981587
Zn2   Zn    Zn3+2 0.308800 0.517820 0.488010 0.981587

loop_
_geom_bond_atom_site_label_1
_geom_bond_atom_site_label_2
_ccdc_geom_bond_type
C11   C12   S    
C3    H3    S    
C8    H9    S    
C4    C12   A    
C2    O10   S    
C3    C13   A    
O8    Zn2   S    
N1    Zn2   S    
C2    C12   A    
O1    Zn1   S    
C1    O1    A    
O7    Zn2   S    
C7    C8    D    
C10   O6    A    
H7    N2    S    
C9    O5    A    
C2    C15   A    
O5    Zn1   S    
H2    O2    S    
C4    H1    S    
C11   O7    A    
H6    N1    S    
O4    Zn2   S    
C5    C6    A    
C14   C16   A    
C5    C15   A    
C4    C6    A    
C6    C14   A    
C9    O3    A    
C16   O2    S    
C7    H8    S    
C14   H4    S    
C15   H5    S    
O3    Zn2   S    
O9    Zn1   S    
C13   C16   A    
N1    N2    D    
C11   O9    A    
H10   O10   S    
C10   O8    A    
N2    Zn1   S    
C1    C7    S    
C1    O4    A    
O6    Zn1   S    
C8    C9    S    
C3    C5    A    
C10   C13   S    
