data_mof_unit_31647.cif
_audit_creation_date              2013-03-05T16:31:29-0500
_audit_creation_method            fapswitch 2.2
_symmetry_space_group_name_H-M    P1
_symmetry_Int_Tables_number       1
_space_group_crystal_system       triclinic
_cell_length_a                    15.07579
_cell_length_b                    10.798726
_cell_length_c                    9.53519
_cell_angle_alpha                 89.888332
_cell_angle_beta                  90.142134
_cell_angle_gamma                 90.418522
_cell_volume                      1552.27341647

loop_
_atom_site_label
_atom_site_type_symbol
_atom_site_description
_atom_site_fract_x
_atom_site_fract_y
_atom_site_fract_z
_atom_type_partial_charge
O1    O     O_R   0.500000 0.319640 0.618810 -0.578750
O2    O     O_R   0.500010 0.319680 0.381230 -0.539875
C1    C     C_R   0.504478 0.262535 0.500166 0.850570
O3    O     O_R   0.370250 0.499950 0.618800 -0.593385
O4    O     O_R   0.370260 0.499990 0.381220 -0.596050
C2    C     C_R   0.328578 0.499801 0.499875 0.803691
Cu1   Cu    Cu3+1 0.500000 0.499980 0.640670 0.948875
Cu2   Cu    Cu3+1 0.500000 0.500020 0.359330 0.980163
O5    O     O_R   0.499990 0.680320 0.618770 -0.585942
O6    O     O_R   0.500000 0.680360 0.381190 -0.588116
O7    O     O_R   0.629740 0.500010 0.618780 -0.590169
O8    O     O_R   0.629750 0.500050 0.381200 -0.561405
C3    C     C_R   0.500818 0.737708 0.499991 0.812118
C4    C     C_R   0.671397 0.499217 0.500024 0.825554
C5    C     C_R   0.814437 0.514067 0.373314 -0.211050
C6    C     C_R   0.768244 0.498501 0.499810 -0.061610
C7    C     C_R   0.814770 0.482034 0.625908 -0.237889
C8    C     C_R   0.907150 0.483152 0.626969 0.106493
C9    C     C_R   0.953447 0.498813 0.499638 0.061332
C10   C     C_R   0.906847 0.513866 0.372265 0.103698
C11   C     C_R   0.953957 0.468711 0.753096 -0.204873
C12   C     C_R   0.046434 0.469708 0.753217 -0.210325
C13   C     C_R   0.093000 0.484656 0.627135 0.108957
C14   C     C_R   0.046428 0.499108 0.499645 0.065468
C15   C     C_R   0.092739 0.513723 0.372157 0.108481
C16   C     C_R   0.045881 0.528278 0.246054 -0.209522
C17   C     C_R   0.953393 0.528561 0.246137 -0.200173
C18   C     C_R   0.185406 0.485255 0.626287 -0.249915
C19   C     C_R   0.231674 0.499546 0.499688 -0.071784
C20   C     C_R   0.185172 0.513547 0.373040 -0.247500
H1    H     H_    0.778626 0.526639 0.275579 0.156151
H2    H     H_    0.779223 0.467383 0.723182 0.155037
H3    H     H_    0.919062 0.456916 0.851534 0.142301
H4    H     H_    0.081514 0.458607 0.851754 0.138189
H5    H     H_    0.221174 0.473948 0.724248 0.150439
H6    H     H_    0.220779 0.524887 0.275114 0.152930
H7    H     H_    0.080741 0.539541 0.147516 0.137976
H8    H     H_    0.918289 0.540082 0.147675 0.138127
C21   C     C_R   0.488926 0.063758 0.620861 0.113006
C22   C     C_R   0.516310 0.129580 0.502386 -0.225468
C23   C     C_R   0.555331 0.063878 0.389773 0.326439
C24   C     C_R   0.550153 0.934063 0.389833 -0.287693
H9    H     H_    0.577797 0.882980 0.303115 0.187751
C25   C     C_R   0.509559 0.870822 0.501542 -0.160886
C26   C     C_R   0.486028 0.936746 0.620793 0.114778
C27   C     C_3   0.402439 0.932562 0.704411 -0.452340
C28   C     C_3   0.405697 0.073203 0.704765 -0.447565
H10   H     H_    0.345397 0.893716 0.644312 0.194492
H11   H     H_    0.412681 0.891403 0.810084 0.197679
H12   H     H_    0.350455 0.116358 0.645054 0.185590
H13   H     H_    0.418082 0.112966 0.810542 0.211788
C29   C     C_R   0.565230 0.560076 0.074022 0.240055
N1    N     N_R   0.500570 0.500930 0.147930 -0.178912
C30   C     C_R   0.440330 0.431122 0.074350 -0.038826
H14   H     H_    0.391006 0.377216 0.130206 0.132918
C31   C     C_R   0.440111 0.431429 0.925374 -0.069845
H15   H     H_    0.390563 0.377897 0.869382 0.131825
N2    N     N_R   0.500570 0.500890 0.852020 -0.197410
C32   C     C_R   0.566946 0.558516 0.926596 0.222692
C33   C     C_3   0.593368 0.693648 0.921948 -0.091140
C34   C     C_3   0.586683 0.694094 0.081616 -0.546153
H16   H     H_    0.542628 0.753681 0.872053 0.195450
H17   H     H_    0.649635 0.710687 0.139835 0.190179
H18   H     H_    0.529555 0.749251 0.119186 0.209241
C35   C     C_3   0.689820 0.717469 0.872113 -0.340971
C36   C     C_3   0.694188 0.785768 0.732154 -0.778522
H19   H     H_    0.664955 0.729326 0.647255 0.255167
H20   H     H_    0.658850 0.875390 0.739150 0.254436
H21   H     H_    0.764571 0.804848 0.705044 0.234657
H22   H     H_    0.725719 0.776735 0.949118 0.217351
H23   H     H_    0.726999 0.629396 0.864634 0.191552
N3    N     N_R   0.599910 0.126047 0.276353 0.134762
O9    O     O_R   0.655483 0.215901 0.302502 -0.357397
O10   O     O_R   0.596584 0.080205 0.150300 -0.376897

loop_
_geom_bond_atom_site_label_1
_geom_bond_atom_site_label_2
_geom_bond_distance
_ccdc_geom_bond_type
C36   H20   1.110347 S    
C8    C11   1.401881 A    
C23   C24   1.403436 A    
C9    C10   1.411282 A    
Cu1   Cu2   2.682630 S    
N1    C30   1.369009 A    
C29   N1    1.359178 A    
Cu1   O7    1.967549 S    
C27   H11   1.111383 S    
C16   C17   1.394362 A    
C18   C19   1.403366 A    
C29   C34   1.482478 S    
O4    C2    1.295551 A    
O7    C4    1.296284 A    
C36   H21   1.110464 S    
C11   H3    1.083972 S    
C17   H8    1.083994 S    
C35   H22   1.111957 S    
C31   H15   1.081716 S    
C33   H16   1.111749 S    
C8    C9    1.411211 A    
C34   H17   1.111874 S    
O5    C3    1.290032 A    
C27   C28   1.519183 S    
C18   H5    1.084525 S    
C6    C7    1.402176 A    
C13   C14   1.411276 A    
Cu1   N2    2.015302 S    
C21   C26   1.371943 A    
C36   H19   1.103310 S    
C32   C33   1.510426 S    
C11   C12   1.394124 A    
C24   C25   1.403491 A    
O3    Cu1   1.966653 S    
C28   H12   1.112295 S    
C30   C31   1.420502 A    
C5    C10   1.393227 A    
C12   H4    1.083918 S    
C27   H10   1.112256 S    
C14   C15   1.411361 A    
N3    O10   1.301496 A    
C21   C22   1.395256 A    
C28   H13   1.111803 S    
C15   C16   1.402210 A    
C35   H23   1.109977 S    
C33   C34   1.526067 S    
O1    C1    1.291647 A    
C34   H18   1.111185 S    
C19   C20   1.403319 A    
C29   C32   1.406179 A    
Cu2   O8    1.966651 S    
C7    C8    1.392680 A    
C13   C18   1.393105 A    
C23   N3    1.437410 S    
O3    C2    1.295002 A    
C22   C23   1.419395 A    
O8    C4    1.294031 A    
C1    C22   1.448183 S    
C4    C6    1.460128 S    
C24   H9    1.080990 S    
C25   C26   1.390846 A    
C21   C28   1.493989 S    
C15   C20   1.393522 A    
Cu1   O5    1.958201 S    
C30   H14   1.081609 S    
O1    Cu1   1.958969 S    
O2    Cu2   1.958201 S    
N3    O9    1.301397 A    
O6    C3    1.292064 A    
Cu2   N1    2.015783 S    
C33   C35   1.550425 S    
O4    Cu2   1.967552 S    
C16   H7    1.083911 S    
C5    H1    1.084642 S    
C10   C17   1.402060 A    
C20   H6    1.084485 S    
O2    C1    1.291893 A    
N2    C32   1.372354 A    
C31   N2    1.368852 A    
C9    C14   1.401750 A    
C26   C27   1.493242 S    
C2    C19   1.460887 S    
Cu2   O6    1.958969 S    
C35   C36   1.524848 S    
C7    H2    1.083138 S    
C12   C13   1.402137 A    
C3    C25   1.442623 S    
C5    C6    1.403478 A    
