data_mof_unit_28318.cif
_audit_creation_date              2012-12-10T18:43:10-0500
_audit_creation_method            fapswitch 2.2
_symmetry_space_group_name_H-M    P1
_symmetry_Int_Tables_number       1
_space_group_crystal_system       triclinic
_cell_length_a                    10.734453
_cell_length_b                    9.890197
_cell_length_c                    10.623415
_cell_angle_alpha                 90.70303
_cell_angle_beta                  91.142299
_cell_angle_gamma                 90.780254
_cell_volume                      1127.42651215

loop_
_atom_site_label
_atom_site_type_symbol
_atom_type_description
_atom_site_fract_x
_atom_site_fract_y
_atom_site_fract_z
_atom_type_partial_charge
C1    C     C_R   0.260375 0.499448 0.504353 0.907472
C2    C     C_R   0.934577 0.389722 0.455605 -0.264911
C3    C     C_R   0.873297 0.507059 0.491822 -0.204353
C4    C     C_R   0.128056 0.500232 0.506819 -0.202167
C5    C     C_R   0.940327 0.626032 0.528403 0.437487
C6    C     C_R   0.068134 0.617575 0.548182 0.432812
C7    C     C_R   0.560430 0.075275 0.592766 -0.079756
C8    C     C_R   0.438977 0.071225 0.407636 -0.106872
C9    C     C_R   0.560479 0.931976 0.594208 0.186207
C10   C     C_R   0.438703 0.927899 0.406171 0.201770
C11   C     C_3   0.294352 0.241346 0.829176 -0.210789
C12   C     C_R   0.740176 0.501653 0.497024 0.911040
C13   C     C_3   0.226364 0.369715 0.153440 -0.343683
C14   C     C_3   0.865073 0.820928 0.446752 -0.311611
C15   C     C_3   0.149057 0.834855 0.572783 -0.192289
C16   C     C_3   0.624492 0.866252 0.703781 -0.767836
C17   C     C_3   0.372631 0.858147 0.297105 -0.849396
C18   C     C_R   0.497932 0.498912 0.262113 0.978688
C19   C     C_R   0.489798 0.500590 0.737175 1.000533
C20   C     C_2   0.422644 0.393527 0.930736 0.463934
C21   C     C_2   0.415104 0.405316 0.067225 0.498646
C22   C     C_2   0.454154 0.504458 0.866141 -0.550668
C23   C     C_2   0.490425 0.495203 0.128649 -0.524763
C24   C     C_R   0.062078 0.387654 0.459728 -0.297781
H1    H     H_    0.449477 0.604539 0.909083 0.131477
H2    H     H_    0.179429 0.401833 0.064500 0.145712
H3    H     H_    0.235204 0.456898 0.220328 0.158012
H4    H     H_    0.165715 0.292291 0.196802 0.187861
H5    H     H_    0.807937 0.765692 0.373888 0.180154
H6    H     H_    0.955208 0.849657 0.404741 0.122168
H7    H     H_    0.816018 0.915601 0.470455 0.193152
H8    H     H_    0.159304 0.828368 0.468922 0.120888
H9    H     H_    0.072621 0.903918 0.597846 0.185627
H10   H     H_    0.236636 0.880667 0.612025 0.174473
H11   H     H_    0.692083 0.936876 0.751530 0.202734
H12   H     H_    0.550922 0.566123 0.081252 0.115476
H13   H     H_    0.554374 0.836803 0.774029 0.235209
H14   H     H_    0.677837 0.777769 0.673276 0.306179
H15   H     H_    0.305018 0.926393 0.250495 0.203046
H16   H     H_    0.441368 0.828970 0.225463 0.255441
H17   H     H_    0.318457 0.769293 0.327461 0.260790
H18   H     H_    0.108894 0.297470 0.427875 0.184557
H19   H     H_    0.884021 0.299777 0.423419 0.187895
H20   H     H_    0.607730 0.133198 0.666932 0.169883
H21   H     H_    0.391159 0.126003 0.333953 0.191215
H22   H     H_    0.261019 0.323655 0.766808 0.146938
H23   H     H_    0.229072 0.226349 0.907748 0.166781
H24   H     H_    0.293608 0.146678 0.772003 0.171605
N1    N     N_R   0.500000 0.857200 0.500000 -0.085515
N2    N     N_R   0.500000 0.142810 0.500000 -0.121423
O1    O     O_R   0.316770 0.614620 0.499990 -0.604228
O2    O     O_3   0.343373 0.312006 0.130995 -0.579410
O3    O     O_3   0.881304 0.745343 0.558213 -0.597429
O4    O     O_3   0.130853 0.707936 0.629316 -0.590873
O5    O     O_R   0.683230 0.614620 0.500010 -0.595607
O6    O     O_R   0.316800 0.385290 0.500000 -0.634470
O7    O     O_R   0.683200 0.385290 0.500000 -0.631011
O8    O     O_R   0.500000 0.614630 0.319080 -0.639977
O9    O     O_R   0.500000 0.614630 0.680920 -0.627220
O10   O     O_R   0.500030 0.385300 0.319080 -0.566357
O11   O     O_R   0.499970 0.385300 0.680920 -0.570810
O12   O     O_3   0.416744 0.265773 0.875518 -0.568698
Zn1   Zn    Zn3+2 0.500000 0.653120 0.500000 0.941400
Zn2   Zn    Zn3+2 0.500000 0.346880 0.500000 0.962645

loop_
_geom_bond_atom_site_label_1
_geom_bond_atom_site_label_2
_ccdc_geom_bond_type
O11   Zn2   S    
O6    Zn2   S    
C13   H4    S    
C19   C22   S    
N1    Zn1   S    
C13   O2    S    
C24   H18   S    
C2    H19   S    
C15   H10   S    
O9    Zn1   S    
C16   H13   S    
O10   Zn2   S    
C11   O12   S    
C1    C4    S    
C2    C3    A    
C3    C12   S    
O1    Zn1   S    
C15   H8    S    
C16   H14   S    
C7    H20   S    
C20   O12   S    
C1    O1    A    
C11   H24   S    
C19   O11   A    
C12   O7    A    
C5    O3    S    
C1    O6    A    
C6    O4    S    
C23   H12   S    
C21   C23   D    
C16   H11   S    
C2    C24   A    
C5    C6    A    
C4    C24   A    
C17   H17   S    
C13   H2    S    
C12   O5    A    
C20   C22   D    
C10   C17   S    
C18   C23   S    
C15   O4    S    
C8    N2    A    
C14   O3    S    
C9    N1    A    
C20   C21   S    
C22   H1    S    
O7    Zn2   S    
C8    C10   A    
C4    C6    A    
C17   H15   S    
C18   O10   A    
O8    Zn1   S    
C7    C9    A    
C14   H7    S    
C8    H21   S    
C13   H3    S    
C11   H22   S    
N2    Zn2   S    
C14   H5    S    
C19   O9    A    
C14   H6    S    
C10   N1    A    
C11   H23   S    
C15   H9    S    
C21   O2    S    
C7    N2    A    
C9    C16   S    
C18   O8    A    
C3    C5    A    
C17   H16   S    
O5    Zn1   S    
