data_mof_unit_43023.cif
_audit_creation_date              2012-12-10T16:53:06-0500
_audit_creation_method            fapswitch 2.2
_symmetry_space_group_name_H-M    P1
_symmetry_Int_Tables_number       1
_space_group_crystal_system       triclinic
_cell_length_a                    10.838029
_cell_length_b                    10.922013
_cell_length_c                    9.692705
_cell_angle_alpha                 89.772223
_cell_angle_beta                  88.964043
_cell_angle_gamma                 90.496167
_cell_volume                      1147.11512611

loop_
_atom_site_label
_atom_site_type_symbol
_atom_type_description
_atom_site_fract_x
_atom_site_fract_y
_atom_site_fract_z
_atom_type_partial_charge
C1    C     C_R   0.506180 0.265652 0.500160 0.734139
C2    C     C_R   0.057896 0.500049 0.633467 -0.013522
C3    C     C_R   0.126679 0.481905 0.508404 -0.063243
C4    C     C_R   0.064656 0.473617 0.383147 -0.198738
C5    C     C_R   0.937968 0.486123 0.379838 -0.191598
C6    C     C_R   0.872231 0.518604 0.499470 -0.061669
C7    C     C_2   0.508657 0.933706 0.393577 -0.251943
C8    C     C_2   0.468273 0.864869 0.500412 0.433677
C9    C     C_2   0.495638 0.066561 0.393024 -0.230425
C10   C     C_2   0.528415 0.134679 0.501583 0.407889
C11   C     C_2   0.466044 0.406607 0.923708 -0.102268
C12   C     C_R   0.261978 0.490924 0.502242 0.819798
C13   C     C_2   0.443785 0.416961 0.078163 0.602387
C14   C     C_R   0.492716 0.734177 0.499938 0.691438
C15   C     C_R   0.737582 0.509609 0.499227 0.771978
C16   C     C_R   0.103263 0.477170 0.767640 0.311074
C17   C     C_R   0.047452 0.535547 0.883011 0.308328
C18   C     C_R   0.936951 0.600692 0.866160 0.351816
C19   C     C_R   0.881456 0.600916 0.737632 -0.226143
C20   C     C_R   0.936019 0.541127 0.623298 -0.070973
Cu1   Cu    Cu3+1 0.500020 0.500020 0.638630 0.994497
Cu2   Cu    Cu3+1 0.499980 0.499980 0.361370 0.996460
H1    H     H_    0.113974 0.455344 0.287424 0.219956
H2    H     H_    0.447441 0.319418 0.874946 0.166221
H3    H     H_    0.495956 0.584174 0.890734 0.248099
H4    H     H_    0.796187 0.650745 0.727830 0.209242
H5    H     H_    0.891652 0.470483 0.283278 0.191025
H6    H     H_    0.549901 0.891922 0.302449 0.138725
H7    H     H_    0.461768 0.108958 0.299622 0.159030
N1    N     N_2   0.498640 0.498660 0.846910 -0.262785
N2    N     N_2   0.498610 0.498630 0.153040 -0.044560
O1    O     O_R   0.500020 0.321960 0.617040 -0.546174
O2    O     O_R   0.499980 0.321920 0.382900 -0.561814
O3    O     O_R   0.319670 0.500020 0.617100 -0.540413
O4    O     O_R   0.319630 0.499980 0.382950 -0.568633
O5    O     O_R   0.500020 0.678080 0.617100 -0.564628
O6    O     O_R   0.499980 0.678040 0.382960 -0.623960
O7    O     O_R   0.680370 0.500020 0.617050 -0.568597
O8    O     O_R   0.680330 0.499980 0.382900 -0.586952
O9    O     O_3   0.582335 0.081881 0.615976 -0.517710
C21   C     C_3   0.708818 0.113411 0.615539 -0.293993
H8    H     H_    0.722825 0.213171 0.632724 0.163655
H9    H     H_    0.755910 0.084729 0.517964 0.145712
H10   H     H_    0.753142 0.064213 0.701581 0.201097
O10   O     O_3   0.363831 0.335795 0.143795 -0.729931
H11   H     H_    0.329627 0.279648 0.073820 0.288450
O11   O     O_3   0.595747 0.556692 0.093856 -0.665551
H12   H     H_    0.629825 0.609481 0.166731 0.380028
O12   O     O_3   0.189847 0.386398 0.785118 -0.706600
H13   H     H_    0.200778 0.370233 0.884652 0.347936
O13   O     O_3   0.098008 0.524693 0.012377 -0.606329
C22   C     C_3   0.189996 0.615905 0.024964 -0.356722
H14   H     H_    0.232215 0.607079 0.127844 0.212260
H15   H     H_    0.150075 0.709243 0.017996 0.168232
H16   H     H_    0.264750 0.605111 0.945885 0.169414
O14   O     O_3   0.877138 0.659906 0.973458 -0.705742
H17   H     H_    0.923469 0.648657 0.059595 0.354901
O15   O     O_3   0.405643 0.917356 0.611478 -0.511989
C23   C     C_3   0.284359 0.869404 0.620018 -0.307599
H18   H     H_    0.283499 0.773323 0.658237 0.157092
H19   H     H_    0.236872 0.875602 0.519253 0.139629
H20   H     H_    0.230591 0.924487 0.695462 0.197019

loop_
_geom_bond_atom_site_label_1
_geom_bond_atom_site_label_2
_ccdc_geom_bond_type
C15   O7    A    
Cu1   O3    S    
C16   O12   S    
C9    H7    S    
C2    C16   A    
C9    C10   D    
Cu1   N1    S    
C19   C20   A    
C4    H1    S    
C22   H16   S    
C18   O14   S    
C17   O13   S    
C17   C18   A    
O15   C23   S    
C1    O2    A    
C23   H18   S    
Cu1   O5    S    
N2    O11   S    
O10   H11   S    
C22   H14   S    
C12   O4    A    
C13   O10   S    
Cu2   O4    S    
C21   H9    S    
C15   O8    A    
C16   C17   A    
Cu2   O8    S    
Cu1   Cu2   S    
O9    C21   S    
Cu1   O1    S    
C22   H15   S    
C2    C3    A    
C14   O5    A    
C5    C6    A    
C21   H10   S    
C23   H19   S    
C11   C13   S    
Cu2   N2    S    
Cu1   O7    S    
C12   O3    A    
O13   C22   S    
C11   H2    S    
C7    C8    D    
C6    C20   A    
O14   H17   S    
C19   H4    S    
C10   O9    S    
O12   H13   S    
C21   H8    S    
H3    N1    S    
C7    C9    S    
Cu2   O2    S    
C18   C19   A    
C23   H20   S    
C8    C14   S    
C3    C12   S    
C7    H6    S    
C8    O15   S    
C6    C15   S    
C5    H5    S    
Cu2   O6    S    
C2    C20   A    
C13   N2    D    
C1    O1    A    
C1    C10   S    
O11   H12   S    
C11   N1    D    
C4    C5    A    
C14   O6    A    
C3    C4    A    
