data_mof_unit_67768.cif
_audit_creation_date              2012-12-10T16:50:11-0500
_audit_creation_method            fapswitch 2.2
_symmetry_space_group_name_H-M    P1
_symmetry_Int_Tables_number       1
_space_group_crystal_system       triclinic
_cell_length_a                    7.877811
_cell_length_b                    8.641103
_cell_length_c                    10.711705
_cell_angle_alpha                 90.577522
_cell_angle_beta                  84.553988
_cell_angle_gamma                 92.985825
_cell_volume                      724.891083807

loop_
_atom_site_label
_atom_site_type_symbol
_atom_type_description
_atom_site_fract_x
_atom_site_fract_y
_atom_site_fract_z
_atom_type_partial_charge
Br1   Br    Br    0.698034 0.215693 0.835880 -0.445528
Br2   Br    Br    0.097379 0.319024 0.805205 -0.460967
Br3   Br    Br    0.892611 0.774516 0.165446 -0.533659
Br4   Br    Br    0.775072 0.275470 0.125903 -0.415950
Br5   Br    Br    0.044529 0.308016 0.357257 -0.331756
C1    C     C_R   0.544562 0.794168 0.499470 0.867356
C2    C     C_R   0.455948 0.205866 0.500864 0.946904
C3    C     C_R   0.499647 0.502896 0.259695 0.905544
C4    C     C_R   0.162454 0.488855 0.910115 0.325279
C5    C     C_R   0.034124 0.573253 0.972460 -0.185710
C6    C     C_R   0.066584 0.655291 0.080709 0.296197
C7    C     C_R   0.220867 0.638355 0.132711 -0.168838
C8    C     C_R   0.350199 0.548304 0.070654 -0.031136
C9    C     C_3   0.833333 0.996238 0.587964 0.230386
C10   C     C_3   0.897868 0.902288 0.692837 -0.370152
C11   C     C_3   0.091011 0.894347 0.675431 -0.856152
C12   C     C_R   0.329189 0.500996 0.948411 -0.036043
C13   C     C_3   0.424910 0.986982 0.268963 0.029219
C14   C     C_3   0.316559 0.050742 0.172028 -0.275701
C15   C     C_3   0.387052 0.012517 0.038367 -0.834319
C16   C     C_R   0.474148 0.455020 0.873061 -0.203827
C17   C     C_R   0.597453 0.380772 0.927936 0.226503
C18   C     C_R   0.609172 0.397357 0.055338 0.209208
C19   C     C_R   0.493427 0.493146 0.125990 -0.191340
C20   C     C_2   0.562467 0.957045 0.518810 0.154069
C21   C     C_2   0.441850 0.044022 0.477358 0.200952
C22   C     C_R   0.494766 0.485693 0.739508 0.939941
H1    H     H_    0.984495 0.608699 0.599264 0.168241
H2    H     H_    0.153801 0.009742 0.691401 0.299383
H3    H     H_    0.454988 0.865466 0.245940 0.162196
H4    H     H_    0.549276 0.055549 0.262054 0.170999
H5    H     H_    0.182964 0.002839 0.188237 0.287788
H6    H     H_    0.315970 0.178625 0.182899 0.243979
H7    H     H_    0.527559 0.032297 0.027689 0.309600
H8    H     H_    0.329667 0.086534 0.971133 0.299432
H9    H     H_    0.356743 0.889837 0.015052 0.254928
H10   H     H_    0.908244 0.570009 0.939839 0.182836
H11   H     H_    0.235520 0.697272 0.220254 0.199408
H12   H     H_    0.897434 0.113813 0.587466 0.229301
H13   H     H_    0.871126 0.944166 0.494359 0.149647
H14   H     H_    0.863580 0.953814 0.786050 0.299500
H15   H     H_    0.834605 0.784813 0.694879 0.209202
H16   H     H_    0.129154 0.857024 0.578406 0.297691
H17   H     H_    0.133545 0.810556 0.742471 0.259446
N1    N     N_2   0.950330 0.457950 0.466250 0.075748
N2    N     N_2   0.049670 0.542050 0.533750 -0.110924
O1    O     O_R   0.389250 0.738570 0.508280 -0.616126
O2    O     O_3   0.333229 0.991194 0.389442 -0.644618
O3    O     O_R   0.678390 0.711630 0.486650 -0.640393
O4    O     O_R   0.355400 0.513470 0.694050 -0.613784
O5    O     O_R   0.644540 0.486530 0.672420 -0.608356
O6    O     O_R   0.321610 0.288370 0.513350 -0.563087
O7    O     O_R   0.610750 0.261430 0.491720 -0.597923
O8    O     O_R   0.355460 0.513470 0.327580 -0.607896
O9    O     O_R   0.644600 0.486530 0.305950 -0.538922
O10   O     O_3   0.656072 0.013052 0.614692 -0.637233
Zn1   Zn    Zn3+2 0.306930 0.517990 0.514440 1.026339
Zn2   Zn    Zn3+2 0.693070 0.482010 0.485560 1.063116

loop_
_geom_bond_atom_site_label_1
_geom_bond_atom_site_label_2
_ccdc_geom_bond_type
Br2   C4    S    
C9    O10   S    
C18   C19   A    
C22   O4    A    
C13   H3    S    
C21   O2    S    
O1    Zn1   S    
C4    C5    A    
C11   H17   S    
C14   C15   S    
C9    C10   S    
C20   O10   S    
C8    C12   A    
O7    Zn2   S    
C20   C21   D    
C15   H7    S    
C16   C22   S    
Br1   C17   S    
C1    O3    A    
O5    Zn2   S    
C16   C17   A    
O4    Zn1   S    
C11   H16   S    
H1    N2    S    
C2    C21   S    
C5    H10   S    
C14   H5    S    
C3    O9    A    
C4    C12   A    
C3    C19   S    
C22   O5    A    
C2    O6    A    
C5    C6    A    
N2    Zn1   S    
C7    H11   S    
N1    Zn2   S    
C1    C20   S    
Br3   C6    S    
O6    Zn1   S    
C2    O7    A    
C10   H14   S    
C9    H13   S    
C10   C11   S    
C15   H9    S    
C6    C7    A    
C7    C8    A    
C8    C19   A    
C11   H2    S    
C13   C14   S    
C1    O1    A    
O9    Zn2   S    
C3    O8    A    
Br4   C18   S    
C17   C18   A    
C13   H4    S    
C9    H12   S    
N1    N2    D    
C15   H8    S    
Br5   N1    S    
C12   C16   A    
O3    Zn2   S    
C10   H15   S    
C14   H6    S    
O8    Zn1   S    
C13   O2    S    
