data_mof_unit_62189.cif
_audit_creation_date              2012-12-10T20:22:53-0500
_audit_creation_method            fapswitch 2.2
_symmetry_space_group_name_H-M    P1
_symmetry_Int_Tables_number       1
_space_group_crystal_system       triclinic
_cell_length_a                    25.730014
_cell_length_b                    36.308714
_cell_length_c                    22.264934
_cell_angle_alpha                 90.064116
_cell_angle_beta                  125.419866
_cell_angle_gamma                 89.888474
_cell_volume                      16950.7972632

loop_
_atom_site_label
_atom_site_type_symbol
_atom_type_description
_atom_site_fract_x
_atom_site_fract_y
_atom_site_fract_z
_atom_type_partial_charge
C1    C     C_R   0.858171 0.749961 0.999811 0.982729
C2    C     C_R   0.141678 0.249927 0.999889 0.980786
C3    C     C_R   0.141855 0.749936 0.000239 0.983314
C4    C     C_R   0.858146 0.250065 0.999762 0.983251
C5    C     C_R   0.358322 0.250072 0.000111 0.980889
C6    C     C_R   0.641828 0.750039 0.000189 0.982881
C7    C     C_R   0.641854 0.249935 0.000237 0.983412
C8    C     C_R   0.358145 0.750064 0.999761 0.983453
C9    C     C_3   0.759162 0.216519 0.983378 0.346803
C10   C     C_3   0.240809 0.783489 0.016560 0.346109
C11   C     C_3   0.266172 0.241488 0.066891 0.350582
C12   C     C_3   0.758990 0.783506 0.983477 0.346538
C13   C     C_3   0.259192 0.716511 0.983441 0.346160
C14   C     C_3   0.740837 0.283481 0.016621 0.346862
C15   C     C_3   0.741009 0.716493 0.016522 0.346601
C16   C     C_3   0.233828 0.258511 0.933110 0.350617
C17   C     C_3   0.800914 0.250436 0.999177 -0.367225
C18   C     C_3   0.199087 0.749566 0.000825 -0.367280
C19   C     C_3   0.198287 0.249824 0.999234 -0.372451
C20   C     C_3   0.800960 0.749612 0.999261 -0.367123
C21   C     C_3   0.300914 0.750434 0.999175 -0.367345
C22   C     C_3   0.699085 0.249564 0.000822 -0.367301
C23   C     C_3   0.699039 0.750388 0.000738 -0.367196
C24   C     C_3   0.301713 0.250175 0.000767 -0.372565
C25   C     C_3   0.801008 0.259832 0.066944 0.238391
C26   C     C_3   0.199000 0.740137 0.933075 0.238406
C27   C     C_3   0.209152 0.224694 0.951129 0.285438
C28   C     C_3   0.801036 0.740141 0.066947 0.238450
C29   C     C_3   0.301001 0.759862 0.066926 0.238311
C30   C     C_3   0.698991 0.240168 0.933055 0.238289
C31   C     C_3   0.698963 0.759859 0.933052 0.238348
C32   C     C_3   0.290848 0.275305 0.048872 0.285589
C33   C     C_R   0.683787 0.745715 0.461946 0.429746
C34   C     C_R   0.315995 0.255342 0.538057 0.431248
C35   C     C_R   0.315014 0.741274 0.538075 0.429648
C36   C     C_R   0.683857 0.254788 0.461946 0.429385
C37   C     C_R   0.184005 0.244659 0.461943 0.431221
C38   C     C_R   0.816213 0.754284 0.538053 0.429719
C39   C     C_R   0.816144 0.245212 0.538054 0.429360
C40   C     C_R   0.184986 0.758726 0.461925 0.429624
C41   C     C_R   0.710797 0.750020 0.422671 -0.035882
C42   C     C_R   0.289199 0.249996 0.577329 -0.030874
C43   C     C_R   0.289178 0.749972 0.577322 -0.036328
C44   C     C_R   0.710802 0.249986 0.422680 -0.032467
C45   C     C_R   0.210801 0.250005 0.422671 -0.030883
C46   C     C_R   0.789204 0.749979 0.577329 -0.035888
C47   C     C_R   0.789198 0.250015 0.577320 -0.032471
C48   C     C_R   0.210822 0.750027 0.422678 -0.036342
C49   C     C_R   0.776877 0.754282 0.460950 -0.247775
C50   C     C_R   0.223336 0.244682 0.539047 -0.257525
C51   C     C_R   0.224293 0.758654 0.539026 -0.247425
C52   C     C_R   0.776810 0.245223 0.460954 -0.245557
C53   C     C_R   0.276664 0.255319 0.460953 -0.257451
C54   C     C_R   0.723124 0.745717 0.539050 -0.247691
C55   C     C_R   0.723190 0.254778 0.539046 -0.245472
C56   C     C_R   0.275707 0.741345 0.460973 -0.247349
C57   C     C_1   0.671453 0.750081 0.343297 0.089488
C58   C     C_1   0.328541 0.249928 0.656703 0.083795
C59   C     C_1   0.328515 0.750064 0.656684 0.089515
C60   C     C_1   0.671466 0.249922 0.343317 0.086343
C61   C     C_1   0.171459 0.250072 0.343297 0.083810
C62   C     C_1   0.828547 0.749919 0.656703 0.089515
C63   C     C_1   0.828534 0.250078 0.656683 0.086373
C64   C     C_1   0.171485 0.749936 0.343316 0.089530
C65   C     C_1   0.861567 0.749912 0.723102 -0.049397
C66   C     C_1   0.138438 0.250083 0.276898 -0.054774
C67   C     C_1   0.138458 0.749915 0.276921 -0.049868
C68   C     C_1   0.861551 0.250086 0.723075 -0.059455
C69   C     C_1   0.361562 0.249917 0.723102 -0.054816
C70   C     C_1   0.638433 0.750087 0.276898 -0.049445
C71   C     C_1   0.638449 0.249914 0.276925 -0.059505
C72   C     C_1   0.361542 0.750084 0.723078 -0.049907
C73   C     C_R   0.955068 0.019437 0.004765 0.323534
C74   C     C_R   0.044675 0.980557 0.994986 0.320143
C75   C     C_R   0.044664 0.019263 0.994905 0.321141
C76   C     C_R   0.955072 0.980730 0.004834 0.323451
C77   C     C_R   0.454277 0.519442 0.003085 0.320343
C78   C     C_R   0.545972 0.480564 0.997152 0.323758
C79   C     C_R   0.545969 0.519270 0.997084 0.323650
C80   C     C_R   0.454287 0.480737 0.003165 0.321271
C81   C     C_R   0.999872 0.038682 0.999813 -0.212286
C82   C     C_R   0.999883 0.961313 0.999958 -0.209038
C83   C     C_R   0.500114 0.538688 0.000037 -0.208872
C84   C     C_R   0.500124 0.461318 0.000182 -0.212124
C85   C     C_R   0.098993 0.749973 0.197960 0.828631
C86   C     C_R   0.901004 0.250024 0.802038 0.821040
C87   C     C_R   0.901026 0.749975 0.802077 0.827637
C88   C     C_R   0.098976 0.250024 0.197923 0.825370
C89   C     C_R   0.598995 0.249976 0.197962 0.821154
C90   C     C_R   0.401007 0.750027 0.802040 0.828764
C91   C     C_R   0.401024 0.249976 0.802077 0.825512
C92   C     C_R   0.598974 0.750025 0.197923 0.827764
C93   C     C_1   0.999914 0.078433 0.999817 0.193040
C94   C     C_1   0.999899 0.921564 0.000028 0.192337
C95   C     C_1   0.500100 0.578436 0.999970 0.192541
C96   C     C_1   0.500083 0.421568 0.000180 0.193233
C97   C     C_1   0.999935 0.888389 0.000055 -0.044389
C98   C     C_1   0.999957 0.111608 0.999860 -0.040963
C99   C     C_1   0.500041 0.388392 0.000139 -0.040939
C100  C     C_1   0.500065 0.611611 0.999945 -0.044364
C101  C     C_R   0.999988 0.848943 0.000028 0.817960
C102  C     C_R   0.999996 0.151056 0.999959 0.818249
C103  C     C_R   0.500004 0.348944 0.000040 0.818468
C104  C     C_R   0.500012 0.651057 0.999972 0.818185
C105  C     C_R   0.000037 0.651044 0.000034 0.812837
C106  C     C_R   0.999961 0.348956 0.999965 0.820055
C107  C     C_R   0.500039 0.151044 0.000035 0.820627
C108  C     C_R   0.499963 0.848955 0.999966 0.813441
C109  C     C_R   0.950127 0.480734 0.994867 0.324203
C110  C     C_R   0.049836 0.519268 0.005144 0.319094
C111  C     C_R   0.049772 0.480564 0.005077 0.321884
C112  C     C_R   0.950190 0.519439 0.994932 0.324733
C113  C     C_R   0.452039 0.980731 0.998856 0.319546
C114  C     C_R   0.548003 0.019267 0.001142 0.324792
C115  C     C_R   0.547938 0.980562 0.001075 0.325279
C116  C     C_R   0.452105 0.019435 0.998925 0.322125
C117  C     C_R   0.999918 0.461319 0.999939 -0.213033
C118  C     C_R   0.000045 0.538683 0.000072 -0.207801
C119  C     C_R   0.499955 0.961318 0.999930 -0.207476
C120  C     C_R   0.500085 0.038680 0.000067 -0.212818
C121  C     C_1   0.999876 0.421572 0.999904 0.192596
C122  C     C_1   0.000095 0.578429 0.000106 0.191326
C123  C     C_1   0.499905 0.921571 0.999895 0.191826
C124  C     C_1   0.500125 0.078428 0.000098 0.192972
C125  C     C_1   0.000102 0.611602 0.000100 -0.051833
C126  C     C_1   0.999886 0.388399 0.999908 -0.042784
C127  C     C_1   0.500115 0.111601 0.000093 -0.042750
C128  C     C_1   0.499898 0.888398 0.999900 -0.051752
C129  C     C_3   0.259399 0.725676 0.051235 0.252599
C130  C     C_3   0.740623 0.274347 0.948810 0.252829
C131  C     C_3   0.740809 0.725698 0.948783 0.252869
C132  C     C_3   0.222815 0.283670 0.980720 0.207233
C133  C     C_3   0.759376 0.225652 0.051189 0.252935
C134  C     C_3   0.240601 0.774323 0.948765 0.252696
C135  C     C_3   0.277186 0.216329 0.019281 0.207076
C136  C     C_3   0.759190 0.774302 0.051217 0.252975
H1    H     H_    0.702117 0.742394 0.569123 0.213562
H2    H     H_    0.297505 0.259448 0.430884 0.207090
H3    H     H_    0.295802 0.734621 0.430918 0.214008
H4    H     H_    0.702239 0.258486 0.569118 0.213287
H5    H     H_    0.202494 0.240553 0.569116 0.207050
H6    H     H_    0.797883 0.757606 0.430877 0.213523
H7    H     H_    0.797761 0.241515 0.430882 0.213248
H8    H     H_    0.204197 0.765378 0.569082 0.213965
O1    O     O_3   0.000000 0.750010 0.000000 -0.543544
O2    O     O_3   0.000000 0.249990 0.000000 -0.543615
O3    O     O_3   0.500000 0.250010 0.000000 -0.543522
O4    O     O_3   0.500000 0.749990 0.000000 -0.543456
O5    O     O_R   0.861350 0.728650 0.957310 -0.613676
O6    O     O_R   0.138650 0.271350 0.042690 -0.586661
O7    O     O_R   0.138650 0.728650 0.042690 -0.613862
O8    O     O_R   0.861350 0.271350 0.957310 -0.613932
O9    O     O_R   0.361350 0.228650 0.957310 -0.586766
O10   O     O_R   0.638650 0.771350 0.042690 -0.613708
O11   O     O_R   0.638650 0.228650 0.042690 -0.613959
O12   O     O_R   0.361350 0.771350 0.957310 -0.613899
O13   O     O_R   0.050700 0.771350 0.162940 -0.607693
O14   O     O_R   0.949300 0.228650 0.837060 -0.614467
O15   O     O_R   0.949300 0.771350 0.837060 -0.608575
O16   O     O_R   0.050700 0.228650 0.162940 -0.607519
O17   O     O_R   0.550700 0.271350 0.162940 -0.614463
O18   O     O_R   0.449300 0.728650 0.837060 -0.607709
O19   O     O_R   0.449300 0.271350 0.837060 -0.607539
O20   O     O_R   0.550700 0.728650 0.162940 -0.608584
O21   O     O_R   0.990570 0.831470 0.042720 -0.616191
O22   O     O_R   0.009430 0.168530 0.957280 -0.609621
O23   O     O_R   0.009430 0.831470 0.957280 -0.616109
O24   O     O_R   0.990570 0.168530 0.042720 -0.617174
O25   O     O_R   0.490570 0.331470 0.042720 -0.609728
O26   O     O_R   0.509430 0.668530 0.957280 -0.616334
O27   O     O_R   0.509430 0.331470 0.957280 -0.617331
O28   O     O_R   0.490570 0.668530 0.042720 -0.616243
O29   O     O_R   0.947900 0.668550 0.957290 -0.617017
O30   O     O_R   0.052100 0.331450 0.042710 -0.609585
O31   O     O_R   0.052100 0.668550 0.042710 -0.617728
O32   O     O_R   0.947900 0.331450 0.957290 -0.620940
O33   O     O_R   0.447900 0.168550 0.957290 -0.609839
O34   O     O_R   0.552100 0.831450 0.042710 -0.617326
O35   O     O_R   0.552100 0.168550 0.042710 -0.621262
O36   O     O_R   0.447900 0.831450 0.957290 -0.618001
O37   O     O_R   0.112210 0.728640 0.162920 -0.621376
O38   O     O_R   0.887790 0.271360 0.837080 -0.618266
O39   O     O_R   0.887790 0.728640 0.837080 -0.620608
O40   O     O_R   0.112210 0.271360 0.162920 -0.627646
O41   O     O_R   0.612210 0.228640 0.162920 -0.618373
O42   O     O_R   0.387790 0.771360 0.837080 -0.621453
O43   O     O_R   0.387790 0.228640 0.837080 -0.627717
O44   O     O_R   0.612210 0.771360 0.162920 -0.620701
O45   O     O_R   0.904050 0.771360 0.042740 -0.590213
O46   O     O_R   0.095950 0.228640 0.957260 -0.615154
O47   O     O_R   0.095950 0.771360 0.957260 -0.589845
O48   O     O_R   0.904050 0.228640 0.042740 -0.589771
O49   O     O_R   0.404050 0.271360 0.042740 -0.615158
O50   O     O_R   0.595950 0.728640 0.957260 -0.590237
O51   O     O_R   0.595950 0.271360 0.957260 -0.589794
O52   O     O_R   0.404050 0.728640 0.042740 -0.589870
Zn1   Zn    Zn3+2 0.074440 0.719490 0.061020 1.055151
Zn2   Zn    Zn3+2 0.925560 0.280510 0.938980 1.054685
Zn3   Zn    Zn3+2 0.925560 0.719490 0.938980 1.055293
Zn4   Zn    Zn3+2 0.074440 0.280510 0.061020 1.066298
Zn5   Zn    Zn3+2 0.574440 0.219490 0.061020 1.054574
Zn6   Zn    Zn3+2 0.425560 0.780510 0.938980 1.055088
Zn7   Zn    Zn3+2 0.425560 0.219490 0.938980 1.066201
Zn8   Zn    Zn3+2 0.574440 0.780510 0.061020 1.055204
Zn9   Zn    Zn3+2 0.986560 0.780520 0.061040 1.073969
Zn10  Zn    Zn3+2 0.013440 0.219480 0.938960 1.063169
Zn11  Zn    Zn3+2 0.013440 0.780520 0.938960 1.073424
Zn12  Zn    Zn3+2 0.986560 0.219480 0.061040 1.072339
Zn13  Zn    Zn3+2 0.486560 0.280520 0.061040 1.063209
Zn14  Zn    Zn3+2 0.513440 0.719480 0.938960 1.073992
Zn15  Zn    Zn3+2 0.513440 0.280520 0.938960 1.072359
Zn16  Zn    Zn3+2 0.486560 0.719480 0.061040 1.073447
Cl1   Cl    Cl    0.887597 0.543830 0.988553 -0.444634
Cl2   Cl    Cl    0.112363 0.456175 0.011453 -0.389224
Cl3   Cl    Cl    0.112503 0.543444 0.011597 -0.438182
Cl4   Cl    Cl    0.887460 0.456557 0.988413 -0.445144
Cl5   Cl    Cl    0.391871 0.043823 0.997575 -0.390010
Cl6   Cl    Cl    0.608178 0.956173 0.002435 -0.446523
Cl7   Cl    Cl    0.608315 0.043444 0.002576 -0.447021
Cl8   Cl    Cl    0.391726 0.956554 0.997423 -0.439996
O53   O     O_3   0.772008 0.182554 0.963463 -0.575578
C137  C     C_3   0.733768 0.154538 0.962643 -0.019928
H9    H     H_    0.684434 0.163752 0.940471 0.152178
H10   H     H_    0.757007 0.142987 0.018790 0.210819
H11   H     H_    0.729800 0.131913 0.926690 0.199451
O54   O     O_3   0.227933 0.817464 0.036412 -0.575860
C138  C     C_3   0.266146 0.845479 0.037176 -0.016798
H12   H     H_    0.242898 0.857000 0.981005 0.210834
H13   H     H_    0.315490 0.836275 0.059372 0.152093
H14   H     H_    0.270088 0.868124 0.073079 0.200390
O55   O     O_3   0.278125 0.233964 0.136076 -0.572787
C139  C     C_3   0.341573 0.222032 0.186367 -0.069463
H15   H     H_    0.376355 0.237025 0.180937 0.169193
H16   H     H_    0.345052 0.191970 0.180422 0.198589
H17   H     H_    0.355454 0.226929 0.243072 0.196210
O56   O     O_3   0.771673 0.817502 0.963688 -0.575655
C140  C     C_3   0.733216 0.845484 0.962843 -0.019144
H18   H     H_    0.756320 0.857005 0.019000 0.210870
H19   H     H_    0.683925 0.836247 0.940580 0.152220
H20   H     H_    0.729153 0.868139 0.926958 0.199494
O57   O     O_3   0.272070 0.682537 0.963589 -0.575661
C141  C     C_3   0.233859 0.654520 0.962826 -0.017359
H21   H     H_    0.184513 0.663722 0.940623 0.151786
H22   H     H_    0.257104 0.643001 0.018997 0.211014
H23   H     H_    0.229923 0.631875 0.926927 0.200382
O58   O     O_3   0.727989 0.317445 0.036536 -0.575362
C142  C     C_3   0.766227 0.345462 0.037354 -0.020546
H24   H     H_    0.742989 0.357011 0.981206 0.211005
H25   H     H_    0.815563 0.336249 0.059533 0.151854
H26   H     H_    0.770188 0.368088 0.073303 0.199432
O59   O     O_3   0.728324 0.682499 0.036311 -0.575438
C143  C     C_3   0.766778 0.654515 0.037155 -0.019786
H27   H     H_    0.816072 0.663750 0.059428 0.151902
H28   H     H_    0.743677 0.642997 0.980996 0.211069
H29   H     H_    0.770833 0.631859 0.073032 0.199460
O60   O     O_3   0.221879 0.266036 0.863926 -0.572749
C144  C     C_3   0.158429 0.277965 0.813632 -0.069772
H30   H     H_    0.154937 0.308023 0.819601 0.198512
H31   H     H_    0.123646 0.262954 0.819033 0.169254
H32   H     H_    0.144565 0.273088 0.756928 0.196184
Cl9   Cl    Cl    0.273216 0.694834 0.121484 -0.435642
Cl10  Cl    Cl    0.726835 0.305225 0.878621 -0.437140
Cl11  Cl    Cl    0.727191 0.694868 0.878526 -0.435260
Cl12  Cl    Cl    0.186791 0.328195 0.958512 -0.462164
Cl13  Cl    Cl    0.773165 0.194775 0.121378 -0.437765
Cl14  Cl    Cl    0.226784 0.805166 0.878516 -0.436240
Cl15  Cl    Cl    0.313213 0.171804 0.041496 -0.461577
Cl16  Cl    Cl    0.772809 0.805132 0.121473 -0.435899
Cl17  Cl    Cl    0.869470 0.272695 0.155418 -0.456491
Cl18  Cl    Cl    0.130547 0.727233 0.844626 -0.453213
Cl19  Cl    Cl    0.155873 0.190789 0.886421 -0.396707
Cl20  Cl    Cl    0.869539 0.727255 0.155425 -0.456354
Cl21  Cl    Cl    0.369454 0.772766 0.155374 -0.452893
Cl22  Cl    Cl    0.630529 0.227305 0.844581 -0.456140
Cl23  Cl    Cl    0.630460 0.772745 0.844574 -0.456000
Cl24  Cl    Cl    0.344128 0.309209 0.113583 -0.396523
Cl25  Cl    Cl    0.600983 0.740271 0.416189 -0.463633
Cl26  Cl    Cl    0.398522 0.262126 0.583820 -0.473864
Cl27  Cl    Cl    0.396300 0.730193 0.583867 -0.463402
Cl28  Cl    Cl    0.601140 0.260869 0.416181 -0.512025
Cl29  Cl    Cl    0.101477 0.237874 0.416180 -0.474054
Cl30  Cl    Cl    0.899017 0.759728 0.583811 -0.463827
Cl31  Cl    Cl    0.898860 0.239131 0.583819 -0.512220
Cl32  Cl    Cl    0.103699 0.769807 0.416133 -0.463575
Cl33  Cl    Cl    0.898743 0.956555 0.011044 -0.436623
Cl34  Cl    Cl    0.100962 0.043432 0.988639 -0.397411
Cl35  Cl    Cl    0.101005 0.956167 0.988850 -0.431256
Cl36  Cl    Cl    0.898739 0.043828 0.010899 -0.437670
Cl37  Cl    Cl    0.396672 0.456567 0.007010 -0.398144
Cl38  Cl    Cl    0.603611 0.543447 0.993291 -0.437552
Cl39  Cl    Cl    0.603614 0.456172 0.993435 -0.438580
Cl40  Cl    Cl    0.396634 0.543833 0.006804 -0.432109

loop_
_geom_bond_atom_site_label_1
_geom_bond_atom_site_label_2
_ccdc_geom_bond_type
C99   C103  S    
C82   C94   S    
O7    Zn1   S    
C34   C42   A    
C42   C58   S    
C114  C115  A    
C46   C62   S    
C143  H28   S    
O1    Zn3   S    
O4    Zn16  S    
C96   C99   T    
C100  C104  S    
O42   Zn6   S    
C110  C111  A    
O46   Zn10  S    
C141  H22   S    
O24   Zn12  S    
C25   C133  S    
C50   H5    S    
C34   Cl26  S    
C110  C118  A    
C73   C81   A    
C65   C87   S    
C67   C85   S    
C141  H23   S    
O59   C143  S    
O13   Zn9   S    
C90   O42   A    
C94   C97   T    
C98   C102  S    
C21   C29   S    
C23   C31   S    
C24   C32   S    
C32   Cl24  S    
C138  H12   S    
C49   H6    S    
C12   C20   S    
C139  H16   S    
C13   C21   S    
O15   Zn11  S    
O5    Zn3   S    
C124  C127  T    
C36   C44   A    
C37   C45   A    
C6    O50   A    
C39   C47   A    
C14   C130  S    
C142  H26   S    
C40   C48   A    
C1    C20   S    
C11   O55   S    
C107  O35   A    
C2    C19   S    
C2    O46   A    
C133  Cl13  S    
C119  C123  S    
C7    C22   S    
C63   C68   T    
C105  C125  S    
C17   C25   S    
O3    Zn7   S    
C107  C127  S    
C36   C55   A    
C37   C50   A    
C10   C18   S    
C75   Cl34  S    
C87   O15   A    
C88   O16   A    
O2    Zn4   S    
O52   Zn16  S    
O21   Zn9   S    
C25   Cl17  S    
C143  H27   S    
O9    Zn7   S    
C9    C133  S    
C2    O6    A    
C27   Cl19  S    
C28   Cl20  S    
O37   Zn1   S    
O1    Zn9   S    
O4    Zn6   S    
O1    Zn1   S    
C23   C136  S    
C90   O18   A    
O20   Zn16  S    
O4    Zn14  S    
C66   C88   S    
C88   O40   A    
O50   Zn14  S    
O27   Zn15  S    
O56   C140  S    
O57   C141  S    
C118  C122  S    
C31   C131  S    
C29   C129  S    
O40   Zn4   S    
C35   C43   A    
C20   C28   S    
C43   C59   S    
C44   C52   A    
C16   C27   S    
C83   C95   S    
C102  O22   A    
C113  C119  A    
C140  H18   S    
C107  O33   A    
C103  O27   A    
C131  Cl11  S    
C29   Cl21  S    
C4    O8    A    
C22   C133  S    
O3    Zn5   S    
C76   C82   A    
C137  H11   S    
O44   Zn8   S    
C116  C120  A    
O2    Zn2   S    
O53   C137  S    
C26   C134  S    
O16   Zn12  S    
C72   C90   S    
O26   Zn14  S    
O47   Zn11  S    
C108  C128  S    
C137  H10   S    
C9    C30   S    
C42   C50   A    
C143  H29   S    
C138  H13   S    
C11   C32   S    
C115  C119  A    
C12   C31   S    
C13   C26   S    
C37   Cl29  S    
O1    Zn11  S    
O4    Zn8   S    
C104  O26   A    
C33   C54   A    
C91   O43   A    
O58   C142  S    
C40   Cl32  S    
C87   O39   A    
C85   O37   A    
C22   C30   S    
C17   C130  S    
C89   O41   A    
O32   Zn2   S    
O10   Zn8   S    
C92   O44   A    
C40   C51   A    
C132  Cl12  S    
C111  C117  A    
C144  H32   S    
C27   C135  S    
C14   C22   S    
C122  C125  T    
C73   Cl36  S    
C74   Cl35  S    
C38   C46   A    
C79   Cl38  S    
C102  O24   A    
C15   C131  S    
O54   C138  S    
C105  O31   A    
C140  H20   S    
C103  O25   A    
C106  O32   A    
O11   Zn5   S    
C1    O45   A    
O29   Zn3   S    
C4    O48   A    
C18   C26   S    
C80   C84   A    
C109  Cl4   S    
C31   Cl23  S    
C77   Cl40  S    
C109  C117  A    
C78   Cl39  S    
C38   C49   A    
C11   C19   S    
O36   Zn6   S    
C47   C63   S    
O3    Zn15  S    
C48   C64   S    
C54   H1    S    
O43   Zn7   S    
C19   C132  S    
C48   C56   A    
O41   Zn5   S    
C36   Cl28  S    
C26   Cl18  S    
O35   Zn5   S    
O45   Zn9   S    
O33   Zn7   S    
C115  Cl6   S    
C1    O5    A    
C57   C70   T    
C113  Cl8   S    
C59   C72   T    
C104  O28   A    
C35   C56   A    
C91   O19   A    
C85   O13   A    
C74   C82   A    
C129  Cl9   S    
C89   O17   A    
C142  H25   S    
C52   H7    S    
C53   H2    S    
O14   Zn10  S    
O2    Zn12  S    
C56   H3    S    
C95   C100  T    
C60   C71   T    
C30   C130  S    
O17   Zn13  S    
C55   H4    S    
C11   C135  S    
C46   C54   A    
C141  H21   S    
C106  O30   A    
C108  O34   A    
C101  O21   A    
C130  Cl10  S    
O31   Zn1   S    
C4    C17   S    
C30   Cl22  S    
C73   C76   A    
C20   C131  S    
C7    O51   A    
C21   C134  S    
C5    O49   A    
C77   C80   A    
C28   C136  S    
C70   C92   S    
C58   C69   T    
O18   Zn14  S    
C106  C126  S    
O30   Zn4   S    
C136  Cl16  S    
C33   C41   A    
C110  Cl3   S    
C41   C57   S    
C79   C83   A    
C16   O60   S    
C10   C29   S    
C43   C51   A    
C15   C28   S    
C44   C60   S    
C45   C61   S    
C139  H15   S    
C8    O52   A    
C14   C25   S    
C16   C132  S    
C38   Cl30  S    
C9    O53   S    
C7    O11   A    
C34   C53   A    
C86   O38   A    
C18   C129  S    
O22   Zn10  S    
C116  Cl5   S    
O3    Zn13  S    
C114  C120  A    
C134  Cl14  S    
O34   Zn8   S    
C68   C86   S    
O38   Zn2   S    
C111  Cl2   S    
C114  Cl7   S    
O2    Zn10  S    
O12   Zn6   S    
C33   Cl25  S    
C51   H8    S    
C35   Cl27  S    
C144  H30   S    
C80   Cl37  S    
C77   C83   A    
C108  O36   A    
C3    C18   S    
C84   C96   S    
C101  O23   A    
C117  C121  S    
C61   C66   T    
C41   C49   A    
C13   O57   S    
C39   Cl31  S    
C19   C27   S    
C113  C116  A    
C92   O20   A    
C15   C23   S    
C39   C52   A    
C16   C24   S    
C135  Cl15  S    
O48   Zn12  S    
C74   C75   A    
C64   C67   T    
O6    Zn4   S    
C109  C112  A    
O19   Zn15  S    
C78   C79   A    
C75   C81   A    
C139  H17   S    
O39   Zn3   S    
C144  H31   S    
O23   Zn11  S    
O51   Zn15  S    
C3    O47   A    
C81   C93   S    
O49   Zn13  S    
C71   C89   S    
O25   Zn13  S    
O60   C144  S    
C8    C21   S    
O8    Zn2   S    
C6    O10   A    
C112  Cl1   S    
C86   O14   A    
C24   C135  S    
C9    C17   S    
C140  H19   S    
C12   C136  S    
C76   Cl33  S    
C32   C132  S    
C47   C55   A    
C12   O56   S    
C13   C129  S    
C62   C65   T    
C10   C134  S    
O28   Zn16  S    
C142  H24   S    
C3    O7    A    
C121  C126  T    
C69   C91   S    
C112  C118  A    
C123  C128  T    
C5    C24   S    
C15   O59   S    
C5    O9    A    
C6    C23   S    
C137  H9    S    
C8    O12   A    
C45   C53   A    
C78   C84   A    
C138  H14   S    
O55   C139  S    
C10   O54   S    
C105  O29   A    
C93   C98   T    
C97   C101  S    
C120  C124  S    
C14   O58   S    
