data_mof_unit_43133.cif
_audit_creation_date              2012-10-26T19:05:08-0400
_audit_creation_method            fapswitch 2.2
_symmetry_space_group_name_H-M    P1
_symmetry_Int_Tables_number       1
_space_group_crystal_system       triclinic
_cell_length_a                    15.869887
_cell_length_b                    10.941135
_cell_length_c                    9.633069
_cell_angle_alpha                 90.54036
_cell_angle_beta                  91.022137
_cell_angle_gamma                 94.04121
_cell_volume                      1668.11376405

loop_
_atom_site_label
_atom_site_type_symbol
_atom_type_description
_atom_site_fract_x
_atom_site_fract_y
_atom_site_fract_z
_atom_type_partial_charge
C1    C     C_R   0.490094 0.262974 0.499908 0.539727
C2    C     C_R   0.473020 0.064286 0.880685 -0.124158
C3    C     C_R   0.518160 0.960216 0.878829 -0.121434
C4    C     C_R   0.340360 0.499582 0.498993 0.544844
C5    C     C_R   0.530618 0.900966 0.752989 -0.088177
C6    C     C_R   0.498965 0.944048 0.626640 0.010456
C7    C     C_R   0.472993 0.064085 0.627567 0.026240
C8    C     C_R   0.475204 0.128961 0.501814 -0.030702
C9    C     C_R   0.472509 0.063946 0.376692 -0.143618
C10   C     C_R   0.474333 0.936694 0.374561 -0.028678
C11   C     C_R   0.494250 0.874639 0.499875 -0.002689
C12   C     C_3   0.949930 0.430439 0.627908 -0.212672
C13   C     C_R   0.620447 0.653482 0.149479 -0.094787
C14   C     C_R   0.683488 0.721745 0.080853 -0.178302
C15   C     C_R   0.686558 0.716344 0.938133 -0.181335
C16   C     C_R   0.499948 0.738805 0.500229 0.526589
C17   C     C_R   0.625602 0.644501 0.863492 -0.097297
C18   C     C_R   0.561594 0.571011 0.928671 0.151361
C19   C     C_R   0.560395 0.573216 0.077708 0.147415
C20   C     C_R   0.440352 0.432076 0.069193 0.099596
C21   C     C_R   0.440874 0.433784 0.921854 0.016790
C22   C     C_R   0.659633 0.500455 0.500986 0.545119
C23   C     C_3   0.917245 0.501019 0.501454 0.071938
C24   C     C_3   0.047545 0.430134 0.625981 -0.214522
C25   C     C_3   0.043359 0.438088 0.364935 -0.215829
C26   C     C_3   0.945734 0.438381 0.366848 -0.211653
C27   C     C_1   0.749412 0.500923 0.502971 -0.037348
C28   C     C_3   0.082788 0.500530 0.498200 0.073825
C29   C     C_3   0.454394 0.873116 0.236811 -0.370339
C30   C     C_3   0.367712 0.358496 0.133502 -0.354102
C31   C     C_3   0.957939 0.633988 0.507599 -0.216281
C32   C     C_3   0.055577 0.633701 0.505669 -0.211782
C33   C     C_1   0.825039 0.501136 0.502965 -0.077858
C34   C     C_1   0.174993 0.500182 0.496763 -0.082594
C35   C     C_1   0.250603 0.499860 0.496902 -0.046373
C36   C     C_R   0.450355 0.116338 0.755430 -0.080301
Cu1   Cu    Cu3+1 0.499990 0.499990 0.640660 0.922139
Cu2   Cu    Cu3+1 0.500010 0.500010 0.359340 0.907142
H1    H     H_    0.921664 0.334379 0.625821 0.113996
H2    H     H_    0.734109 0.772604 0.884200 0.113135
H3    H     H_    0.627692 0.657467 0.754820 0.167855
H4    H     H_    0.391674 0.382473 0.862497 0.107305
H5    H     H_    0.067569 0.487166 0.271462 0.110034
H6    H     H_    0.061862 0.342033 0.357207 0.108982
H7    H     H_    0.923105 0.487585 0.274257 0.115287
H8    H     H_    0.083056 0.680644 0.600801 0.113283
H9    H     H_    0.079987 0.686294 0.414714 0.111491
H10   H     H_    0.938582 0.681047 0.603654 0.109091
H11   H     H_    0.074874 0.473369 0.723312 0.111880
H12   H     H_    0.930432 0.473863 0.726117 0.114255
H13   H     H_    0.570184 0.827431 0.754160 0.125982
H14   H     H_    0.402129 0.801137 0.248073 0.164394
H15   H     H_    0.432575 0.937130 0.157293 0.101774
H16   H     H_    0.511585 0.833676 0.196633 0.149004
H17   H     H_    0.337289 0.290714 0.058287 0.055107
H18   H     H_    0.387812 0.304845 0.222516 0.170783
H19   H     H_    0.318512 0.420112 0.163938 0.144195
H20   H     H_    0.619848 0.670650 0.258196 0.178899
H21   H     H_    0.917412 0.342454 0.359983 0.114173
H22   H     H_    0.935510 0.686714 0.417560 0.109276
H23   H     H_    0.467783 0.112599 0.279668 0.127770
H24   H     H_    0.414747 0.196604 0.759305 0.119978
H25   H     H_    0.458939 0.107707 0.978204 0.102963
H26   H     H_    0.543135 0.924650 0.974197 0.114811
H27   H     H_    0.066098 0.333919 0.622990 0.109338
H28   H     H_    0.728830 0.781785 0.138773 0.114535
N1    N     N_R   0.500800 0.501210 0.147910 -0.233436
N2    N     N_R   0.500820 0.501290 0.852040 -0.252260
O1    O     O_R   0.499990 0.319640 0.618810 -0.498057
O2    O     O_R   0.500000 0.319660 0.381240 -0.508809
O3    O     O_R   0.379430 0.499990 0.618840 -0.499352
O4    O     O_R   0.379440 0.500020 0.381260 -0.508799
O5    O     O_R   0.500000 0.680340 0.618760 -0.517721
O6    O     O_R   0.500010 0.680360 0.381190 -0.526294
O7    O     O_R   0.620560 0.499980 0.618740 -0.509582
O8    O     O_R   0.620570 0.500010 0.381160 -0.505616

loop_
_geom_bond_atom_site_label_1
_geom_bond_atom_site_label_2
_ccdc_geom_bond_type
Cu2   O2    S    
Cu1   O1    S    
C1    C8    S    
C7    C36   A    
C20   N1    A    
C22   O8    A    
C25   H5    S    
C7    C8    A    
Cu2   O8    S    
C3    H26   S    
C27   C33   T    
C25   C28   S    
C12   C23   S    
C16   O6    A    
C18   C19   A    
C5    C6    A    
C29   H16   S    
C18   N2    A    
C30   H19   S    
C34   C35   T    
C23   C26   S    
C26   H7    S    
C8    C9    A    
C23   C33   S    
C19   N1    A    
C9    C10   A    
Cu1   O7    S    
C4    C35   S    
C28   C34   S    
C13   C14   A    
C22   O7    A    
C36   H24   S    
C25   H6    S    
Cu2   O4    S    
C13   C19   A    
C16   O5    A    
C28   C32   S    
Cu1   N2    S    
C6    C11   A    
C20   C30   S    
C13   H20   S    
C25   C26   S    
C30   H18   S    
C1    O1    A    
C23   C31   S    
C31   H22   S    
Cu1   Cu2   S    
C11   C16   S    
C31   C32   S    
C17   C18   A    
C14   H28   S    
C20   C21   A    
C24   H27   S    
C22   C27   S    
Cu1   O3    S    
C21   N2    A    
C32   H9    S    
C9    H23   S    
C4    O4    A    
C2    H25   S    
Cu2   O6    S    
C2    C36   A    
C24   H11   S    
C15   C17   A    
Cu1   O5    S    
C32   H8    S    
C24   C28   S    
C3    C5    A    
C12   H12   S    
C6    C7    A    
C30   H17   S    
C12   C24   S    
C1    O2    A    
C31   H10   S    
C12   H1    S    
C2    C3    A    
C10   C29   S    
C29   H15   S    
C17   H3    S    
C15   H2    S    
C10   C11   A    
C21   H4    S    
Cu2   N1    S    
C14   C15   A    
C5    H13   S    
C26   H21   S    
C4    O3    A    
C29   H14   S    
