data_mof_unit_7616.cif
_audit_creation_date              2012-12-11T15:39:04-0500
_audit_creation_method            fapswitch 2.2
_symmetry_space_group_name_H-M    P1
_symmetry_Int_Tables_number       1
_space_group_crystal_system       triclinic
_cell_length_a                    14.2926
_cell_length_b                    14.814505
_cell_length_c                    33.248021
_cell_angle_alpha                 97.937768
_cell_angle_beta                  90.364817
_cell_angle_gamma                 118.792621
_cell_volume                      6088.82465849

loop_
_atom_site_label
_atom_site_type_symbol
_atom_type_description
_atom_site_fract_x
_atom_site_fract_y
_atom_site_fract_z
_atom_type_partial_charge
C1    C     C_R   0.617359 0.909889 0.437123 0.547496
C2    C     C_R   0.747965 0.421295 0.186408 0.057052
C3    C     C_R   0.706156 0.919102 0.659888 0.280644
C4    C     C_R   0.627160 0.820192 0.667357 0.038813
C5    C     C_R   0.631665 0.870394 0.588902 -0.015472
C6    C     C_R   0.051954 0.781250 0.063879 0.541575
C7    C     C_R   0.744129 0.487090 0.066214 0.543162
C8    C     C_R   0.742224 0.789798 0.066466 0.557264
C9    C     C_R   0.021532 0.731874 0.947307 0.567856
C10   C     C_R   0.711758 0.436645 0.949356 0.557258
C11   C     C_R   0.710263 0.739803 0.950317 0.535351
C12   C     C_R   0.825726 0.421035 0.161126 -0.088460
C13   C     C_R   0.821445 0.436526 0.120869 -0.111852
C14   C     C_R   0.722273 0.311486 0.238281 -0.131987
C15   C     C_R   0.707659 0.292813 0.278114 -0.093061
C16   C     C_R   0.725287 0.373850 0.309592 0.030443
C17   C     C_R   0.763709 0.475376 0.301293 -0.078040
C18   C     C_R   0.778402 0.495676 0.261151 0.067520
C19   C     C_R   0.754385 0.411301 0.229329 -0.002548
C20   C     C_R   0.622046 0.365347 0.371871 0.041780
C21   C     C_R   0.594673 0.206486 0.456842 0.564217
C22   C     C_R   0.591616 0.326653 0.409218 0.028043
C23   C     C_R   0.722338 0.265148 0.404346 -0.146323
C24   C     C_R   0.752495 0.303669 0.368296 -0.148444
C25   C     C_R   0.700528 0.349778 0.350946 -0.018893
C26   C     C_R   0.638451 0.270831 0.424183 -0.016698
C27   C     C_R   0.241625 0.875551 0.393562 0.014998
C28   C     C_R   0.211000 0.946947 0.382117 0.269566
C29   C     C_R   0.186808 0.943763 0.340746 -0.073237
C30   C     C_R   0.188753 0.868142 0.311121 -0.007276
C31   C     C_R   0.209502 0.791998 0.322715 -0.118342
C32   C     C_R   0.294883 0.892370 0.434463 0.551517
C33   C     C_R   0.235552 0.795447 0.363578 -0.162768
C34   C     C_R   0.192145 0.806641 0.163961 -0.105567
C35   C     C_R   0.166451 0.786422 0.121959 -0.120800
C36   C     C_R   0.085392 0.898100 0.130150 -0.113871
C37   C     C_R   0.110531 0.917666 0.172262 -0.087502
C38   C     C_R   0.160538 0.868930 0.189285 0.042745
C39   C     C_1   0.170113 0.873526 0.232616 0.004745
C40   C     C_1   0.177314 0.872395 0.268604 0.002144
C41   C     C_R   0.108654 0.828329 0.104847 0.015199
C42   C     C_R   0.641366 0.875237 0.396547 -0.033189
C43   C     C_R   0.613969 0.905891 0.551806 0.553837
C44   C     C_R   0.560028 0.792546 0.369743 -0.117234
C45   C     C_R   0.575683 0.772925 0.328533 0.050088
C46   C     C_R   0.675312 0.839033 0.314017 0.001615
C47   C     C_R   0.761238 0.916498 0.341687 0.038465
C48   C     C_R   0.742640 0.933439 0.382709 -0.140055
C49   C     C_R   0.776625 0.918984 0.176012 -0.130676
C50   C     C_R   0.786002 0.913885 0.133810 0.000914
C51   C     C_R   0.620273 0.746348 0.123131 0.246319
C52   C     C_R   0.613013 0.753726 0.165156 -0.082727
C53   C     C_R   0.693007 0.837310 0.191542 -0.039882
C54   C     C_R   0.589648 0.198789 0.571180 0.565967
C55   C     C_1   0.688657 0.838512 0.234673 0.051135
C56   C     C_1   0.683627 0.838071 0.270753 0.086174
C57   C     C_R   0.712926 0.821267 0.107076 -0.008545
C58   C     C_R   0.622902 0.247846 0.614511 0.034345
C59   C     C_R   0.558395 0.281464 0.636492 -0.166279
C60   C     C_R   0.571842 0.303921 0.678955 -0.134613
C61   C     C_R   0.649881 0.293202 0.699964 -0.004621
C62   C     C_R   0.719546 0.267323 0.678591 -0.077856
C63   C     C_R   0.708466 0.246562 0.635880 0.262858
C64   C     C_R   0.760887 0.342908 0.844936 0.265009
C65   C     C_R   0.289085 0.886927 0.548526 0.547089
C66   C     C_R   0.772778 0.373570 0.887159 -0.162609
C67   C     C_R   0.585342 0.329652 0.886817 0.257887
C68   C     C_R   0.575245 0.303425 0.844232 -0.149874
C69   C     C_R   0.663609 0.314381 0.823317 -0.015370
C70   C     C_1   0.657118 0.305587 0.779781 0.016388
C71   C     C_1   0.653664 0.300709 0.743400 -0.007178
C72   C     C_R   0.687418 0.373229 0.908230 -0.025964
C73   C     C_R   0.065699 0.751480 0.907588 0.001254
C74   C     C_R   0.087424 0.843778 0.892764 0.258055
C75   C     C_R   0.106613 0.850119 0.851826 -0.106433
C76   C     C_R   0.738491 0.451032 0.105577 0.020788
C77   C     C_R   0.098808 0.764569 0.825218 0.004194
C78   C     C_R   0.082575 0.673694 0.840206 0.052228
C79   C     C_R   0.068334 0.669491 0.881612 -0.185372
C80   C     C_R   0.195729 0.779183 0.762785 0.265515
C81   C     C_R   0.202984 0.787498 0.721314 0.054799
C82   C     C_R   0.123368 0.797911 0.699830 -0.084825
C83   C     C_R   0.034389 0.794990 0.719399 0.065614
C84   C     C_R   0.024917 0.779353 0.760298 0.233182
C85   C     C_R   0.106311 0.773406 0.781818 0.016821
C86   C     C_R   0.182813 0.916210 0.649219 -0.093332
C87   C     C_R   0.657475 0.445080 0.130612 -0.108950
C88   C     C_R   0.225336 0.939731 0.612180 -0.112950
C89   C     C_R   0.164172 0.756122 0.588862 -0.109947
C90   C     C_R   0.119991 0.730985 0.625889 0.104739
C91   C     C_R   0.135735 0.813441 0.657050 0.074965
C92   C     C_R   0.221618 0.860514 0.582744 0.004726
C93   C     C_R   0.659045 0.747209 0.913289 -0.028998
C94   C     C_R   0.577899 0.657788 0.888811 -0.099435
C95   C     C_R   0.546018 0.663253 0.849614 0.263230
C96   C     C_R   0.599361 0.758570 0.834265 0.025627
C97   C     C_R   0.673685 0.848945 0.860244 -0.165574
C98   C     C_R   0.662570 0.430782 0.170837 -0.082893
C99   C     C_R   0.702441 0.843489 0.899371 -0.151322
C100  C     C_R   0.584834 0.849928 0.778928 -0.103996
C101  C     C_R   0.594527 0.866230 0.738627 -0.039497
C102  C     C_R   0.610156 0.798084 0.709337 0.042688
C103  C     C_R   0.609046 0.709584 0.720333 -0.120179
C104  C     C_R   0.598786 0.692928 0.760762 -0.058044
C105  C     C_R   0.588980 0.764344 0.790576 0.055687
C106  C     C_R   0.559297 0.744252 0.635022 -0.150751
C107  C     C_R   0.561196 0.769245 0.596091 -0.116535
C108  C     C_R   0.706716 0.943423 0.620351 -0.099900
Cr1   Cr    Cr6+3 0.424820 0.846020 0.489780 1.045768
Cr2   Cr    Cr6+3 0.657880 0.078580 0.505700 1.055013
Cr3   Cr    Cr6+3 0.417280 0.075360 0.504550 1.077438
Cr4   Cr    Cr6+3 0.903360 0.812540 0.006510 1.065185
Cr5   Cr    Cr6+3 0.914630 0.587050 0.006280 1.014380
Cr6   Cr    Cr6+3 0.673560 0.582680 0.008540 1.074876
H1    H     H_    0.592886 0.456500 0.119800 0.158862
H2    H     H_    0.891270 0.412406 0.172962 0.120278
H3    H     H_    0.761182 0.224866 0.415295 0.158292
H4    H     H_    0.185272 0.732333 0.103251 0.123088
H5    H     H_    0.231212 0.768846 0.176886 0.114400
H6    H     H_    0.210620 0.732750 0.299926 0.148735
H7    H     H_    0.257584 0.739062 0.371244 0.172025
H8    H     H_    0.085679 0.965978 0.191649 0.147854
H9    H     H_    0.039886 0.930520 0.117903 0.168903
H10   H     H_    0.884925 0.440917 0.102231 0.130130
H11   H     H_    0.170319 0.002640 0.331751 0.146592
H12   H     H_    0.834703 0.986628 0.196941 0.173332
H13   H     H_    0.806609 0.995377 0.403764 0.167823
H14   H     H_    0.482470 0.745923 0.380642 0.181837
H15   H     H_    0.545766 0.692236 0.177185 0.163775
H16   H     H_    0.851481 0.404943 0.902790 0.157139
H17   H     H_    0.814039 0.293365 0.352814 0.142569
H18   H     H_    0.779332 0.258121 0.695065 0.134026
H19   H     H_    0.493235 0.284461 0.621050 0.141373
H20   H     H_    0.499694 0.279767 0.827416 0.133638
H21   H     H_    0.517949 0.324629 0.695434 0.124910
H22   H     H_    0.050777 0.598254 0.892938 0.181165
H23   H     H_    0.678620 0.214098 0.284248 0.124221
H24   H     H_    0.124942 0.921220 0.840248 0.122186
H25   H     H_    0.194473 0.979318 0.673076 0.107601
H26   H     H_    0.268625 0.020690 0.607976 0.130569
H27   H     H_    0.158138 0.694641 0.565363 0.162965
H28   H     H_    0.542867 0.582841 0.899151 0.166580
H29   H     H_    0.703427 0.246800 0.214061 0.122683
H30   H     H_    0.764200 0.914015 0.917790 0.134847
H31   H     H_    0.591952 0.933325 0.730418 0.152598
H32   H     H_    0.578119 0.906428 0.801328 0.078182
H33   H     H_    0.620358 0.655853 0.698000 0.117654
H34   H     H_    0.604216 0.627359 0.769038 0.140869
H35   H     H_    0.499788 0.667633 0.640481 0.121862
H36   H     H_    0.502849 0.711460 0.572246 0.146866
H37   H     H_    0.715463 0.923105 0.849410 0.118554
H38   H     H_    0.601386 0.429599 0.190185 0.137678
H39   H     H_    0.759863 0.021715 0.614847 0.168599
H40   H     H_    0.780325 0.537906 0.326208 0.162138
O1    O     O_R   0.318160 0.824460 0.443680 -0.527193
O2    O     O_R   0.645130 0.163230 0.552140 -0.442971
O3    O     O_R   0.498360 0.178430 0.555780 -0.524926
O4    O     O_R   0.328690 0.978040 0.538950 -0.506600
O5    O     O_3   0.499990 0.999990 0.500010 -0.261916
O6    O     O_R   0.828710 0.851830 0.052170 -0.480954
O7    O     O_R   0.005980 0.823990 0.047210 -0.498549
O8    O     O_R   0.031900 0.688850 0.050170 -0.513605
O9    O     O_R   0.830940 0.518420 0.048680 -0.502176
O10   O     O_R   0.668160 0.499860 0.053480 -0.499101
O11   O     O_R   0.689170 0.693840 0.050110 -0.451152
O12   O     O_R   0.525040 0.857250 0.449830 -0.496446
O13   O     O_R   0.803860 0.812940 0.962540 -0.520305
O14   O     O_R   0.982950 0.787950 0.964120 -0.448676
O15   O     O_R   0.007050 0.649970 0.960540 -0.532836
O16   O     O_R   0.807910 0.482370 0.965590 -0.519791
O17   O     O_R   0.643310 0.460980 0.963840 -0.449894
O18   O     O_R   0.666140 0.657800 0.967020 -0.501915
O19   O     O_3   0.830520 0.660760 0.007110 -0.262078
O20   O     O_R   0.684760 0.998800 0.456360 -0.519721
O21   O     O_R   0.647540 0.166310 0.470260 -0.513898
O22   O     O_R   0.500960 0.181750 0.467450 -0.459519
O23   O     O_R   0.331100 0.981120 0.457080 -0.443669
O24   O     O_R   0.315560 0.821140 0.532010 -0.506914
O25   O     O_R   0.522630 0.854180 0.531710 -0.492288
O26   O     O_R   0.682160 0.995480 0.544690 -0.495406
C109  C     C_2   0.510141 0.342491 0.431916 0.635836
O27   O     O_2   0.423730 0.318374 0.414529 -0.454991
O28   O     O_R   0.532494 0.384506 0.473371 -0.677554
H41   H     H_    0.470866 0.391125 0.485610 0.340932
O29   O     O_3   0.215112 0.026367 0.410599 -0.526993
C110  C     C_3   0.109751 0.999598 0.419952 -0.087273
H42   H     H_    0.070806 0.924785 0.432284 0.105848
H43   H     H_    0.060420 0.995124 0.392942 0.151057
H44   H     H_    0.113104 0.061441 0.443882 0.158044
C111  C     C_2   0.871518 0.007214 0.119367 0.578071
O30   O     O_2   0.855183 0.033244 0.087866 -0.501120
O31   O     O_R   0.968906 0.069017 0.143066 -0.728252
H45   H     H_    0.020282 0.131249 0.130337 0.340774
C112  C     C_2   0.869842 0.983767 0.328569 0.559583
O32   O     O_2   0.931237 0.067036 0.349753 -0.532470
O33   O     O_R   0.903406 0.951610 0.292622 -0.719182
H46   H     H_    0.979030 0.003741 0.287507 0.341656
O34   O     O_3   0.540661 0.659219 0.098571 -0.545869
C113  C     C_3   0.471901 0.688363 0.080482 -0.107808
H47   H     H_    0.514796 0.747248 0.060294 0.115052
H48   H     H_    0.434039 0.718300 0.103977 0.106850
H49   H     H_    0.406745 0.618285 0.061288 0.142757
C114  C     C_2   0.484704 0.685607 0.301354 0.580193
O35   O     O_2   0.500893 0.645208 0.269485 -0.518606
O36   O     O_R   0.379947 0.647731 0.312779 -0.720286
H50   H     H_    0.325108 0.588197 0.292011 0.343702
O37   O     O_3   0.848934 0.354364 0.824573 -0.535520
C115  C     C_3   0.848547 0.258129 0.819337 -0.100524
H51   H     H_    0.775273 0.195263 0.800725 0.116969
H52   H     H_    0.856264 0.235475 0.849236 0.107854
H53   H     H_    0.918563 0.266383 0.802704 0.146805
O38   O     O_3   0.771096 0.210267 0.615699 -0.570511
C116  C     C_3   0.875303 0.294490 0.615700 -0.105895
H54   H     H_    0.874254 0.358909 0.602289 0.158237
H55   H     H_    0.916811 0.323616 0.646902 0.113100
H56   H     H_    0.922355 0.266646 0.596489 0.151867
O39   O     O_3   0.498918 0.325679 0.906558 -0.537476
C117  C     C_3   0.427275 0.220810 0.909748 -0.102397
H57   H     H_    0.467033 0.186386 0.926359 0.113998
H58   H     H_    0.391464 0.172887 0.879258 0.103430
H59   H     H_    0.360776 0.218182 0.927488 0.160027
O40   O     O_3   0.093608 0.928313 0.918949 -0.561471
C118  C     C_3   0.016477 0.953720 0.905500 -0.085013
H60   H     H_    0.937192 0.883197 0.895642 0.142446
H61   H     H_    0.045406 0.001028 0.880598 0.110368
H62   H     H_    0.004220 0.002039 0.931270 0.143002
C119  C     C_2   0.063429 0.619804 0.632095 0.586269
O41   O     O_2   0.075200 0.554289 0.609396 -0.546716
O42   O     O_R   0.995222 0.589227 0.663400 -0.676909
H63   H     H_    0.962153 0.511994 0.664613 0.333786
C120  C     C_2   0.294082 0.784016 0.701144 0.596353
O43   O     O_2   0.344222 0.845820 0.678307 -0.548276
O44   O     O_R   0.322816 0.709746 0.708751 -0.634097
H64   H     H_    0.383595 0.712593 0.692501 0.329375
O45   O     O_3   0.274448 0.772962 0.784784 -0.526443
C121  C     C_3   0.352964 0.874838 0.802113 -0.128295
H65   H     H_    0.317817 0.919771 0.819217 0.093117
H66   H     H_    0.401548 0.917974 0.778303 0.124442
H67   H     H_    0.407179 0.868960 0.824318 0.135754
C122  C     C_2   0.949459 0.805515 0.697617 0.586521
O46   O     O_2   0.925099 0.772423 0.661176 -0.516217
O47   O     O_R   0.895628 0.851800 0.719118 -0.655632
H68   H     H_    0.837526 0.851068 0.701313 0.350130
O48   O     O_3   0.937936 0.774077 0.780169 -0.539655
C123  C     C_3   0.856654 0.668827 0.775284 -0.073359
H69   H     H_    0.788599 0.664548 0.792344 0.134453
H70   H     H_    0.884237 0.619297 0.788072 0.146159
H71   H     H_    0.826482 0.637130 0.742705 0.145557
C124  C     C_2   0.074790 0.580196 0.813739 0.638652
O49   O     O_2   0.046093 0.561560 0.777419 -0.494144
O50   O     O_R   0.098670 0.511747 0.830807 -0.707483
H72   H     H_    0.091006 0.451321 0.809940 0.336461
O51   O     O_3   0.772684 0.992468 0.692779 -0.580548
C125  C     C_3   0.877245 0.056614 0.682110 -0.126030
H73   H     H_    0.880931 0.122992 0.668867 0.133404
H74   H     H_    0.906850 0.012267 0.661137 0.127177
H75   H     H_    0.932357 0.090122 0.710294 0.156912
O52   O     O_3   0.469455 0.573037 0.825540 -0.587887
C126  C     C_3   0.371305 0.574076 0.825577 -0.082904
H76   H     H_    0.375710 0.639388 0.811173 0.172868
H77   H     H_    0.345495 0.578301 0.857000 0.136384
H78   H     H_    0.308845 0.500186 0.807364 0.159965
C127  C     C_2   0.817519 0.604586 0.253717 0.572653
O53   O     O_2   0.856894 0.631735 0.222019 -0.507937
O54   O     O_R   0.811217 0.677322 0.283615 -0.688130
H79   H     H_    0.840876 0.748636 0.275186 0.373569
C128  C     C_2   0.570493 0.419222 0.354269 0.603382
O55   O     O_2   0.567571 0.492548 0.375045 -0.479497
O56   O     O_R   0.525832 0.386319 0.313899 -0.676540
H80   H     H_    0.494312 0.429820 0.305336 0.361708

loop_
_geom_bond_atom_site_label_1
_geom_bond_atom_site_label_2
_ccdc_geom_bond_type
C65   C92   S    
C11   O13   A    
C96   C105  S    
Cr4   O7    S    
C101  C102  A    
C29   H11   S    
C95   O52   S    
C73   C74   A    
C104  H34   S    
C47   C112  S    
C9    O15   A    
C95   C96   A    
C100  C105  A    
C63   O38   S    
C21   C26   S    
C126  H78   S    
C2    C12   A    
C28   C29   A    
C80   C85   A    
C81   C82   A    
C117  H57   S    
C118  H62   S    
C103  H33   S    
C127  O53   D    
C98   H38   S    
C116  H54   S    
C121  H65   S    
Cr6   O18   S    
C79   H22   S    
C114  O36   S    
C101  H31   S    
C124  O49   D    
C29   C30   A    
C42   C44   A    
Cr6   O11   S    
C52   H15   S    
C36   C37   A    
Cr3   O4    S    
O50   H72   S    
C34   C35   A    
C22   C109  S    
C86   C91   A    
C66   H16   S    
C54   C58   S    
C30   C31   A    
C86   C88   A    
C20   C25   A    
C15   C16   A    
Cr4   O14   S    
C16   C25   S    
O48   C123  S    
C18   C19   A    
C31   H6    S    
C23   C26   A    
C119  O41   D    
Cr3   O5    S    
C88   H26   S    
C125  H74   S    
C103  C104  A    
Cr5   O8    S    
C14   H29   S    
C107  H36   S    
Cr6   O10   S    
Cr1   O24   S    
C89   H27   S    
Cr6   O19   S    
C66   C72   A    
C108  H39   S    
C88   C92   A    
C100  H32   S    
C16   C17   A    
C21   O21   A    
C6    C41   S    
C4    C102  S    
C113  H49   S    
C23   C24   A    
C6    O7    A    
O34   C113  S    
C51   C57   A    
Cr2   O26   S    
C59   C60   A    
O54   H79   S    
C93   C99   A    
C87   H1    S    
C77   C78   A    
C87   C98   A    
C11   C93   S    
C109  O28   S    
C112  O32   D    
C5    C43   S    
C77   C85   S    
C11   O18   A    
C106  H35   S    
O56   H80   S    
C99   H30   S    
C33   H7    S    
C80   O45   S    
C36   C41   A    
C61   C62   A    
C9    C73   S    
Cr1   O1    S    
C17   H40   S    
C20   C128  S    
C104  C105  A    
C97   C99   A    
O42   H63   S    
C17   C18   A    
O37   C115  S    
C116  H55   S    
C73   C79   A    
Cr6   O17   S    
C1    O20   A    
C64   O37   S    
C43   O26   A    
C124  O50   S    
C74   C75   A    
C51   C52   A    
C94   H28   S    
C47   C48   A    
C6    O8    A    
C90   C119  S    
C67   C72   A    
C36   H9    S    
C38   C39   S    
C24   C25   A    
C12   H2    S    
C118  H60   S    
C84   O48   S    
C8    O11   A    
C115  H51   S    
C39   C40   T    
C81   C120  S    
C13   H10   S    
C78   C79   A    
C80   C81   A    
Cr5   O15   S    
C125  H75   S    
O39   C117  S    
C109  O27   D    
Cr4   O13   S    
C7    O9    A    
C59   H19   S    
C27   C33   A    
C82   C91   S    
Cr3   O22   S    
C60   C61   A    
C64   C66   A    
C37   C38   A    
C42   C48   A    
C67   C68   A    
C3    O51   S    
O28   H41   S    
C125  H73   S    
C49   H12   S    
C51   O34   S    
C62   H18   S    
C8    C57   S    
Cr5   O9    S    
C32   O1    A    
Cr1   O25   S    
C117  H58   S    
C83   C84   A    
C76   C87   A    
C13   C76   A    
C67   O39   S    
C45   C114  S    
C21   O22   A    
C43   O25   A    
C96   C97   A    
C31   C33   A    
C55   C56   T    
C122  O47   S    
O47   H68   S    
C97   H37   S    
C30   C40   S    
C94   C95   A    
C120  O44   S    
C93   C94   A    
Cr2   O21   S    
C106  C107  A    
C84   C85   A    
C89   C92   A    
C75   C77   A    
C60   H21   S    
C113  H48   S    
C70   C71   T    
C35   C41   A    
C86   H25   S    
C119  O42   S    
C20   C22   A    
C49   C50   A    
C123  H70   S    
C22   C26   A    
C32   O23   A    
C58   C59   A    
C111  O30   D    
C53   C55   S    
C110  H43   S    
C3    C4    A    
Cr1   O5    S    
C112  O33   S    
C120  O43   D    
C52   C53   A    
C117  H59   S    
Cr5   O19   S    
C5    C107  A    
C116  H56   S    
C12   C13   A    
C58   C63   A    
C127  O54   S    
O36   H50   S    
C46   C47   A    
C44   H14   S    
O45   C121  S    
C111  O31   S    
Cr4   O6    S    
C2    C19   S    
C34   C38   A    
C50   C57   A    
C14   C19   A    
C68   C69   A    
C9    O14   A    
C44   C45   A    
C123  H69   S    
O33   H46   S    
C126  H77   S    
C75   H24   S    
C23   H3    S    
Cr5   O16   S    
C128  O55   D    
C118  H61   S    
C7    C76   S    
C3    C108  A    
C10   O16   A    
C64   C69   A    
C7    O10   A    
C83   C122  S    
O29   C110  S    
C121  H67   S    
O31   H45   S    
C110  H44   S    
C68   H20   S    
O52   C126  S    
C110  H42   S    
C34   H5    S    
C18   C127  S    
C28   O29   S    
C48   H13   S    
C54   O2    A    
C128  O56   S    
C24   H17   S    
C61   C71   S    
C90   C91   A    
O51   C125  S    
Cr2   O20   S    
C4    C106  A    
C1    O12   A    
C115  H53   S    
C49   C53   A    
C122  O46   D    
C65   O4    A    
C121  H66   S    
Cr4   O19   S    
C113  H47   S    
Cr3   O3    S    
C102  C103  A    
C50   C111  S    
C69   C70   S    
C74   O40   S    
Cr2   O2    S    
Cr1   O12   S    
C27   C32   S    
C37   H8    S    
C45   C46   A    
C1    C42   S    
C10   O17   A    
O38   C116  S    
C2    C98   A    
C115  H52   S    
C82   C83   A    
C65   O24   A    
C123  H71   S    
C46   C56   S    
C27   C28   A    
Cr3   O23   S    
C78   C124  S    
C14   C15   A    
C35   H4    S    
C100  C101  A    
C114  O35   D    
C15   H23   S    
C62   C63   A    
C89   C90   A    
O40   C118  S    
Cr2   O5    S    
C126  H76   S    
O44   H64   S    
C10   C72   S    
C54   O3    A    
C5    C108  A    
C8    O6    A    
