data_mof_unit_53235.cif
_audit_creation_date              2012-12-10T20:44:49-0500
_audit_creation_method            fapswitch 2.2
_symmetry_space_group_name_H-M    P1
_symmetry_Int_Tables_number       1
_space_group_crystal_system       triclinic
_cell_length_a                    9.857399
_cell_length_b                    10.657513
_cell_length_c                    16.786078
_cell_angle_alpha                 89.610427
_cell_angle_beta                  94.304286
_cell_angle_gamma                 89.65058
_cell_volume                      1758.41434308

loop_
_atom_site_label
_atom_site_type_symbol
_atom_type_description
_atom_site_fract_x
_atom_site_fract_y
_atom_site_fract_z
_atom_type_partial_charge
C1    C     C_R   0.500123 0.259848 0.497194 0.919054
C2    C     C_R   0.500622 0.128765 0.482614 -0.186128
C3    C     C_R   0.380677 0.067295 0.455281 -0.312098
C4    C     C_R   0.517384 0.502335 0.653473 0.865584
C5    C     C_R   0.380341 0.937080 0.450508 0.477448
C6    C     C_R   0.499123 0.871270 0.479433 -0.244951
C7    C     C_R   0.621775 0.935038 0.489978 0.078171
C8    C     C_3   0.734439 0.924353 0.554411 -0.431480
C9    C     C_3   0.736732 0.066497 0.554556 -0.479543
C10   C     C_R   0.080366 0.484718 0.569674 0.225241
C11   C     C_R   0.063069 0.524914 0.432123 -0.121704
C12   C     C_R   0.653042 0.531097 0.782652 -0.222879
C13   C     C_R   0.919264 0.525259 0.432156 -0.129194
C14   C     C_R   0.937716 0.485292 0.569773 0.217965
C15   C     C_3   0.939852 0.374616 0.624602 -0.517189
C16   C     C_R   0.499191 0.740032 0.495725 0.894046
C17   C     C_3   0.093646 0.373368 0.623926 -0.506348
C18   C     C_R   0.482363 0.506042 0.346619 0.845607
C19   C     C_R   0.526308 0.524644 0.739070 -0.029552
C20   C     C_R   0.406990 0.550246 0.776512 -0.233310
C21   C     C_R   0.413691 0.579013 0.856774 -0.164581
C22   C     C_R   0.540641 0.581595 0.901310 0.327952
C23   C     C_R   0.577551 0.601215 0.144137 -0.169240
C24   C     C_R   0.659768 0.559243 0.863523 -0.194889
C25   C     C_3   0.269675 0.826393 0.349265 0.136525
C26   C     C_3   0.228289 0.924322 0.284564 -0.399232
C27   C     C_3   0.230621 0.868425 0.201220 -0.934202
C28   C     C_R   0.587266 0.570679 0.224490 -0.236114
C29   C     C_R   0.451576 0.591710 0.099152 0.327688
C30   C     C_R   0.471529 0.532235 0.261367 -0.026776
C31   C     C_R   0.344667 0.529362 0.217652 -0.235691
C32   C     C_R   0.335127 0.559202 0.136786 -0.199477
C33   C     C_R   0.622948 0.062682 0.490529 0.139552
H1    H     H_    0.685511 0.577508 0.257581 0.153031
H2    H     H_    0.146056 0.396064 0.682901 0.197766
H3    H     H_    0.669201 0.628552 0.116942 0.146743
H4    H     H_    0.134119 0.289338 0.594459 0.219974
H5    H     H_    0.757710 0.560632 0.897394 0.136428
H6    H     H_    0.746556 0.514527 0.754493 0.151905
H7    H     H_    0.253463 0.502724 0.245570 0.151681
H8    H     H_    0.319215 0.596494 0.883922 0.147118
H9    H     H_    0.237842 0.552215 0.102601 0.138449
H10   H     H_    0.308067 0.549259 0.743835 0.158602
H11   H     H_    0.286844 0.118824 0.440805 0.187165
H12   H     H_    0.700863 0.882942 0.610616 0.199260
H13   H     H_    0.197790 0.746773 0.342742 0.161092
H14   H     H_    0.372366 0.786969 0.339858 0.110466
H15   H     H_    0.124121 0.959672 0.293170 0.232712
H16   H     H_    0.299580 0.004719 0.289388 0.219587
H17   H     H_    0.334845 0.835215 0.190843 0.275068
H18   H     H_    0.199546 0.941089 0.155648 0.266347
H19   H     H_    0.158878 0.788577 0.194298 0.259433
H20   H     H_    0.827786 0.881614 0.532579 0.214433
H21   H     H_    0.706022 0.108194 0.611102 0.197343
H22   H     H_    0.831159 0.104874 0.531892 0.204212
H23   H     H_    0.109716 0.542430 0.376948 0.131116
H24   H     H_    0.858434 0.543890 0.377077 0.143689
H25   H     H_    0.904463 0.398447 0.683896 0.194927
H26   H     H_    0.890707 0.291383 0.596088 0.214038
N1    N     N_2   0.551959 0.593008 0.985132 -0.207545
N2    N     N_2   0.440433 0.599474 0.015142 -0.208598
N3    N     N_R   0.142860 0.499130 0.500540 -0.104184
N4    N     N_R   0.857210 0.499170 0.500530 -0.106696
O1    O     O_R   0.614690 0.316790 0.499990 -0.610104
O2    O     O_R   0.385350 0.316760 0.500000 -0.619933
O3    O     O_R   0.627460 0.498860 0.616130 -0.620652
O4    O     O_R   0.398120 0.498820 0.616130 -0.620151
O5    O     O_R   0.614650 0.683240 0.500000 -0.617684
O6    O     O_R   0.385310 0.683210 0.500010 -0.575276
O7    O     O_R   0.601880 0.501180 0.383870 -0.626939
O8    O     O_R   0.372540 0.501140 0.383870 -0.639876
O9    O     O_3   0.260215 0.876990 0.426510 -0.629700
Zn1   Zn    Zn3+2 0.653130 0.500020 0.499990 0.941794
Zn2   Zn    Zn3+2 0.346870 0.499980 0.500010 0.952701

loop_
_geom_bond_atom_site_label_1
_geom_bond_atom_site_label_2
_ccdc_geom_bond_type
C8    H20   S    
C18   O7    A    
C4    O4    A    
C24   H5    S    
O1    Zn1   S    
C6    C7    A    
C16   O5    A    
O8    Zn2   S    
C11   C13   A    
C25   H14   S    
C1    O2    A    
C31   C32   A    
C13   N4    A    
C27   H17   S    
C26   H15   S    
C30   C31   A    
O3    Zn1   S    
C11   N3    A    
C21   H8    S    
O7    Zn1   S    
C28   C30   A    
C2    C3    A    
C25   C26   S    
C28   H1    S    
C7    C8    S    
C25   O9    S    
C17   H4    S    
C21   C22   A    
C27   H19   S    
C4    O3    A    
C7    C33   A    
C26   C27   S    
C10   N3    A    
C15   H26   S    
C9    C33   S    
C9    H22   S    
C14   N4    A    
C23   C29   A    
C12   C19   A    
C29   C32   A    
C27   H18   S    
C23   H3    S    
C5    O9    S    
C22   C24   A    
C22   N1    S    
C5    C6    A    
C15   H25   S    
C29   N2    S    
C3    H11   S    
C13   H24   S    
O2    Zn2   S    
C18   C30   S    
C6    C16   S    
C10   C17   S    
C1    O1    A    
O6    Zn2   S    
C20   H10   S    
C20   C21   A    
C2    C33   A    
C8    C9    S    
C15   C17   S    
C1    C2    S    
C10   C14   A    
C26   H16   S    
C18   O8    A    
O4    Zn2   S    
C12   C24   A    
C14   C15   S    
N3    Zn2   S    
C32   H9    S    
C9    H21   S    
C17   H2    S    
C31   H7    S    
O5    Zn1   S    
C23   C28   A    
C4    C19   S    
N4    Zn1   S    
C25   H13   S    
C16   O6    A    
C12   H6    S    
C11   H23   S    
C8    H12   S    
C19   C20   A    
N1    N2    D    
C3    C5    A    
