data_mof_unit_18134.cif
_audit_creation_date              2012-12-11T16:11:53-0500
_audit_creation_method            fapswitch 2.2
_symmetry_space_group_name_H-M    P1
_symmetry_Int_Tables_number       1
_space_group_crystal_system       triclinic
_cell_length_a                    6.939008
_cell_length_b                    14.270502
_cell_length_c                    15.816943
_cell_angle_alpha                 90.037359
_cell_angle_beta                  90.128856
_cell_angle_gamma                 90.055401
_cell_volume                      1566.23813577

loop_
_atom_site_label
_atom_site_type_symbol
_atom_type_description
_atom_site_fract_x
_atom_site_fract_y
_atom_site_fract_z
_atom_type_partial_charge
O1    O     O_R   0.638960 0.835150 0.161940 -0.542329
O2    O     O_R   0.361040 0.164850 0.838060 -0.542329
O3    O     O_R   0.309170 0.846340 0.337470 -0.541821
O4    O     O_R   0.690830 0.153660 0.662530 -0.541821
O5    O     O_R   0.138810 0.664830 0.338070 -0.538199
O6    O     O_R   0.861190 0.335170 0.661930 -0.538199
C1    C     C_R   0.478370 0.868619 0.366553 0.675372
C2    C     C_R   0.521630 0.131381 0.633447 0.675371
O7    O     O_R   0.309250 0.846350 0.162570 -0.541418
O8    O     O_R   0.690750 0.153650 0.837430 -0.541418
O9    O     O_R   0.138880 0.664840 0.161920 -0.536848
O10   O     O_R   0.861120 0.335160 0.838080 -0.536848
C3    C     C_R   0.477908 0.868287 0.133403 0.712925
C4    C     C_R   0.522092 0.131712 0.866597 0.712925
O11   O     O_R   0.638880 0.835150 0.338090 -0.540255
O12   O     O_R   0.361120 0.164850 0.661910 -0.540255
O13   O     O_3   0.472380 0.690440 0.250000 -0.367296
O14   O     O_3   0.527620 0.309560 0.750000 -0.367296
V1    V     V_3+5 0.197550 0.761040 0.250010 1.398036
V2    V     V_3+5 0.802450 0.238960 0.749990 1.398036
O15   O     O_R   0.809160 0.653640 0.162540 -0.541773
O16   O     O_R   0.190840 0.346360 0.837460 -0.541774
C5    C     C_R   0.977783 0.631342 0.133441 0.678311
C6    C     C_R   0.022217 0.368658 0.866559 0.678311
O17   O     O_R   0.809090 0.653640 0.337440 -0.542466
O18   O     O_R   0.190910 0.346360 0.662560 -0.542466
C7    C     C_R   0.977940 0.631333 0.366542 0.676062
C8    C     C_R   0.022060 0.368667 0.633458 0.676062
V3    V     V_3+5 0.697540 0.738950 0.250000 1.399293
V4    V     V_3+5 0.302460 0.261050 0.750000 1.399293
O19   O     O_3   0.972580 0.809550 0.250010 -0.369786
O20   O     O_3   0.027420 0.190450 0.749990 -0.369786
C9    C     C_3   0.078201 0.581676 0.524531 -0.142334
C10   C     C_3   0.921799 0.418324 0.475469 -0.142334
C11   C     C_3   0.904221 0.532983 0.567399 -0.142737
C12   C     C_3   0.095779 0.467017 0.432601 -0.142737
H1    H     H_    0.825428 0.559752 0.623428 0.096998
H2    H     H_    0.174572 0.440248 0.376571 0.096998
H3    H     H_    0.142644 0.649512 0.544260 0.093343
H4    H     H_    0.857356 0.350488 0.455740 0.093343
C13   C     C_3   0.011641 0.438821 0.562643 -0.004688
C14   C     C_3   0.988359 0.561179 0.437357 -0.004688
C15   C     C_3   0.185830 0.486700 0.520579 -0.114407
C16   C     C_3   0.814170 0.513300 0.479421 -0.114408
H5    H     H_    0.339171 0.475474 0.537944 0.105664
H6    H     H_    0.660829 0.524526 0.462056 0.105664
C17   C     C_3   0.923718 0.417994 0.024537 -0.144660
C18   C     C_3   0.076282 0.582006 0.975463 -0.144660
C19   C     C_3   0.097333 0.467486 0.067301 -0.139920
C20   C     C_3   0.902667 0.532514 0.932699 -0.139920
H7    H     H_    0.177327 0.441010 0.123242 0.102480
H8    H     H_    0.822673 0.558990 0.876758 0.102480
H9    H     H_    0.861163 0.349810 0.044264 0.107644
H10   H     H_    0.138837 0.650190 0.955736 0.107644
C21   C     C_3   0.987981 0.561155 0.062662 -0.008670
C22   C     C_3   0.012019 0.438845 0.937338 -0.008670
C23   C     C_3   0.814170 0.512479 0.020710 -0.105702
C24   C     C_3   0.185830 0.487521 0.979290 -0.105702
H11   H     H_    0.660895 0.523073 0.038205 0.110727
H12   H     H_    0.339105 0.476927 0.961794 0.110727
C25   C     C_3   0.678544 0.972337 0.479292 -0.112170
C26   C     C_3   0.321456 0.027663 0.520708 -0.112170
C27   C     C_3   0.603906 0.074511 0.475408 -0.143949
C28   C     C_3   0.396094 0.925489 0.524592 -0.143948
H13   H     H_    0.689909 0.136350 0.455683 0.093341
H14   H     H_    0.310091 0.863650 0.544317 0.093341
H15   H     H_    0.826132 0.949376 0.461976 0.108958
H16   H     H_    0.173868 0.050624 0.538023 0.108958
C29   C     C_3   0.510025 0.061283 0.562642 -0.003766
C30   C     C_3   0.489975 0.938717 0.437358 -0.003766
C31   C     C_3   0.584571 0.959938 0.567335 -0.146195
C32   C     C_3   0.415429 0.040062 0.432665 -0.146195
H17   H     H_    0.654389 0.927409 0.623285 0.095523
H18   H     H_    0.345611 0.072591 0.376715 0.095523
C33   C     C_3   0.596688 0.924437 0.979793 0.366707
C34   C     C_3   0.403312 0.075563 0.020207 0.366707
C35   C     C_3   0.423849 0.962074 0.928721 -0.202067
C36   C     C_3   0.576151 0.037926 0.071279 -0.202067
H19   H     H_    0.364029 0.930576 0.870070 0.111851
H20   H     H_    0.635971 0.069424 0.129930 0.111851
C37   C     C_3   0.512060 0.061491 0.936949 -0.108959
C38   C     C_3   0.487940 0.938509 0.063051 -0.108959
C39   C     C_3   0.687359 0.022706 0.986818 -0.206891
C40   C     C_3   0.312641 0.977294 0.013182 -0.206892
H21   H     H_    0.841024 0.040066 0.975176 0.123878
H22   H     H_    0.158975 0.959934 0.024824 0.123878
N1    N     N_2   0.703289 0.840241 0.959462 -0.521370
H23   H     H_    0.797489 0.820532 0.006684 0.253030
C41   C     C_3   0.791555 0.839754 0.876799 -0.584875
H24   H     H_    0.859672 0.770511 0.865413 0.194845
H25   H     H_    0.904343 0.894940 0.872946 0.190055
H26   H     H_    0.681363 0.851598 0.826910 0.200509
N2    N     N_2   0.296711 0.159759 0.040538 -0.521370
H27   H     H_    0.202510 0.179467 0.993315 0.253030
C42   C     C_3   0.208446 0.160246 0.123201 -0.584877
H28   H     H_    0.140328 0.229489 0.134587 0.194846
H29   H     H_    0.318639 0.148402 0.173090 0.200510
H30   H     H_    0.095658 0.105060 0.127054 0.190055

loop_
_geom_bond_atom_site_label_1
_geom_bond_atom_site_label_2
_ccdc_geom_bond_type
C25   C30   S    
C18   C21   S    
N1    H23   S    
C27   H13   S    
N2    H27   S    
O13   V3    S    
C12   C14   S    
C42   H28   S    
C6    C22   S    
O4    C2    A    
V1    O19   S    
C34   C40   S    
C1    C30   S    
C42   H30   S    
C17   C19   S    
C18   H10   S    
O9    V1    S    
C2    C29   S    
C9    H3    S    
C10   H4    S    
C9    C14   S    
C11   H1    S    
C40   H22   S    
O3    C1    A    
C36   H20   S    
C23   H11   S    
C24   H12   S    
C8    C13   S    
C25   C27   S    
C28   C31   S    
C29   C31   S    
C36   C38   S    
O7    C3    A    
C9    C11   S    
O5    C7    A    
C36   C39   S    
O7    V1    S    
O6    C8    A    
C27   C29   S    
O8    V2    S    
C19   H7    S    
C20   H8    S    
O3    V1    S    
O14   V4    S    
C28   C30   S    
C41   H25   S    
C26   C28   S    
C17   H9    S    
C25   C31   S    
C18   C20   S    
N2    C42   S    
C13   C15   S    
C10   C13   S    
C14   C16   S    
C11   C13   S    
C37   C39   S    
C16   H6    S    
O11   V3    S    
C35   H19   S    
O17   V3    S    
C9    C15   S    
C10   C16   S    
C32   H18   S    
O8    C4    A    
C31   H17   S    
C1    O11   A    
C35   C40   S    
C19   C21   S    
O15   V3    S    
C3    C38   S    
C20   C22   S    
C19   C24   S    
C26   C29   S    
C28   H14   S    
C34   N2    S    
C17   C23   S    
C33   C35   S    
C25   H15   S    
C35   C37   S    
O10   V2    S    
O1    V3    S    
C26   C32   S    
C41   H26   S    
C18   C24   S    
C11   C16   S    
C15   H5    S    
C33   N1    S    
C39   H21   S    
O18   V4    S    
C38   C40   S    
C21   C23   S    
O16   C6    A    
O1    C3    A    
C12   H2    S    
V2    O20   S    
O16   V4    S    
C20   C23   S    
C34   C36   S    
C34   C37   S    
C42   H29   S    
C33   C38   S    
C5    C21   S    
O5    V1    S    
O17   C7    A    
O6    V2    S    
O10   C6    A    
O18   C8    A    
C26   H16   S    
O2    V4    S    
O15   C5    A    
V3    O19   S    
V4    O20   S    
C7    C14   S    
C33   C39   S    
O9    C5    A    
O13   V1    S    
C10   C12   S    
C22   C24   S    
O14   V2    S    
O2    C4    A    
O4    V2    S    
C27   C32   S    
C2    O12   A    
N1    C41   S    
C12   C15   S    
C30   C32   S    
C4    C37   S    
C41   H24   S    
O12   V4    S    
C17   C22   S    
