data_mof_unit_30545.cif
_audit_creation_date              2012-12-10T18:59:58-0500
_audit_creation_method            fapswitch 2.2
_symmetry_space_group_name_H-M    P1
_symmetry_Int_Tables_number       1
_space_group_crystal_system       triclinic
_cell_length_a                    10.646627
_cell_length_b                    10.67373
_cell_length_c                    9.845366
_cell_angle_alpha                 90.063517
_cell_angle_beta                  89.829453
_cell_angle_gamma                 88.987269
_cell_volume                      1118.63925459

loop_
_atom_site_label
_atom_site_type_symbol
_atom_type_description
_atom_site_fract_x
_atom_site_fract_y
_atom_site_fract_z
_atom_type_partial_charge
C1    C     C_R   0.499274 0.259968 0.499821 0.869564
C2    C     C_R   0.500728 0.740032 0.500179 0.869572
C3    C     C_R   0.872031 0.498812 0.499772 -0.147825
C4    C     C_R   0.127965 0.501190 0.500228 -0.147820
C5    C     C_R   0.937698 0.393297 0.550327 -0.053315
C6    C     C_R   0.062297 0.606689 0.449629 -0.053355
C7    C     C_R   0.536929 0.063345 0.382527 -0.217672
C8    C     C_R   0.463074 0.936655 0.617472 -0.217739
C9    C     C_R   0.539438 0.935095 0.383378 -0.204661
C10   C     C_R   0.460567 0.064905 0.616623 -0.204582
C11   C     C_R   0.501885 0.872417 0.500616 0.008092
C12   C     C_R   0.498120 0.127583 0.499384 0.008093
C13   C     C_R   0.567464 0.585945 0.071783 -0.074107
C14   C     C_R   0.432534 0.414057 0.928217 -0.074126
C15   C     C_R   0.567495 0.585866 0.927924 -0.085304
C16   C     C_R   0.432503 0.414135 0.072077 -0.085305
C17   C     C_R   0.260488 0.502440 0.500111 0.928318
C18   C     C_R   0.739510 0.497561 0.499889 0.928332
C19   C     C_R   0.199495 0.932966 0.419719 -0.145188
C20   C     C_R   0.800726 0.066895 0.579651 -0.145319
C21   C     C_R   0.146567 0.826405 0.478728 0.216063
C22   C     C_R   0.853534 0.173600 0.520826 0.216144
C23   C     C_R   0.130195 0.717846 0.397984 0.106046
C24   C     C_R   0.869807 0.282055 0.601760 0.105977
C25   C     C_R   0.169691 0.718051 0.261698 -0.139989
C26   C     C_R   0.830303 0.281617 0.738040 -0.140134
C27   C     C_R   0.224331 0.824105 0.205556 -0.146066
C28   C     C_R   0.775783 0.175417 0.794001 -0.146167
C29   C     C_R   0.238080 0.931777 0.284074 -0.160637
C30   C     C_R   0.762156 0.067839 0.715300 -0.160516
C31   C     C_R   0.931618 0.605981 0.449667 0.151525
C32   C     C_R   0.068376 0.394026 0.550349 0.151561
H1    H     H_    0.279226 0.014412 0.239995 0.141941
H2    H     H_    0.721116 0.985089 0.759239 0.142001
H3    H     H_    0.621553 0.654480 0.873341 0.125829
H4    H     H_    0.378444 0.345523 0.126660 0.125831
H5    H     H_    0.211148 0.017238 0.479244 0.155305
H6    H     H_    0.789159 0.982703 0.519977 0.155312
H7    H     H_    0.156672 0.636197 0.198461 0.142955
H8    H     H_    0.843250 0.363389 0.801419 0.143012
H9    H     H_    0.254598 0.823307 0.100501 0.134456
H10   H     H_    0.745527 0.176024 0.899059 0.134459
H11   H     H_    0.566968 0.111881 0.291782 0.151551
H12   H     H_    0.433037 0.888119 0.708219 0.151540
H13   H     H_    0.570669 0.885310 0.293063 0.150829
H14   H     H_    0.429337 0.114690 0.706938 0.150832
H15   H     H_    0.621401 0.654684 0.126106 0.117363
H16   H     H_    0.378596 0.345318 0.873895 0.117364
N1    N     N_R   0.499970 0.499970 0.857200 -0.077443
N2    N     N_R   0.500030 0.500030 0.142800 -0.077434
O1    O     O_R   0.499990 0.316750 0.614620 -0.621400
O2    O     O_R   0.500010 0.683250 0.385380 -0.621377
O3    O     O_R   0.499990 0.316780 0.385290 -0.634249
O4    O     O_R   0.500010 0.683220 0.614710 -0.634265
O5    O     O_R   0.316760 0.500000 0.614660 -0.615906
O6    O     O_R   0.683240 0.500000 0.385340 -0.615911
O7    O     O_R   0.316760 0.500020 0.385330 -0.624084
O8    O     O_R   0.683240 0.499980 0.614670 -0.624085
Zn1   Zn    Zn3+2 0.500000 0.499980 0.653120 0.940024
Zn2   Zn    Zn3+2 0.500000 0.500020 0.346880 0.940046
C33   C     C_3   0.106883 0.833614 0.625543 -0.943472
H17   H     H_    0.068573 0.744433 0.663849 0.252992
H18   H     H_    0.189052 0.857189 0.689205 0.238149
H19   H     H_    0.033634 0.908089 0.638076 0.248203
C34   C     C_3   0.893209 0.166653 0.373995 -0.943378
H20   H     H_    0.931250 0.255988 0.335788 0.252949
H21   H     H_    0.966661 0.092393 0.361357 0.248170
H22   H     H_    0.811098 0.142916 0.310318 0.238097
C35   C     C_3   0.854245 0.718275 0.399882 -0.889940
H23   H     H_    0.910442 0.800541 0.371707 0.242442
H24   H     H_    0.800230 0.692066 0.308311 0.243017
H25   H     H_    0.788049 0.749537 0.480924 0.216596
C36   C     C_3   0.145747 0.281750 0.600193 -0.889784
H26   H     H_    0.089552 0.199483 0.628371 0.242425
H27   H     H_    0.211976 0.250472 0.519190 0.216587
H28   H     H_    0.199722 0.307989 0.691781 0.242991

loop_
_geom_bond_atom_site_label_1
_geom_bond_atom_site_label_2
_ccdc_geom_bond_type
C9    H13   S    
O5    Zn1   S    
C27   C29   A    
C36   H26   S    
C20   C30   A    
C19   C21   A    
C24   C26   A    
C14   N1    A    
C29   H1    S    
C20   H6    S    
C3    C18   S    
C33   H18   S    
C28   H10   S    
C35   H24   S    
C1    O3    A    
O2    Zn2   S    
C18   O8    A    
C34   H21   S    
C10   H14   S    
C7    H11   S    
C19   H5    S    
C17   O5    A    
C21   C33   S    
C18   O6    A    
C5    C32   A    
C23   C25   A    
C6    C31   A    
C36   H27   S    
C35   H23   S    
C1    C12   S    
C2    C11   S    
C10   C12   A    
C15   H3    S    
O3    Zn2   S    
O4    Zn1   S    
C7    C12   A    
C30   H2    S    
C4    C6    A    
C2    O4    A    
C32   C36   S    
C13   H15   S    
O7    Zn2   S    
C14   H16   S    
O8    Zn1   S    
O6    Zn2   S    
C33   H19   S    
C22   C34   S    
C9    C11   A    
C27   H9    S    
C34   H22   S    
C3    C31   A    
C1    O1    A    
C4    C32   A    
C2    O2    A    
C4    C17   S    
C20   C22   A    
C13   C15   A    
C36   H28   S    
C22   C24   A    
O1    Zn1   S    
C19   C29   A    
C35   H25   S    
C7    C9    A    
C8    H12   S    
C16   N2    A    
C3    C5    A    
C25   C27   A    
C26   C28   A    
N1    Zn1   S    
N2    Zn2   S    
C21   C23   A    
C25   H7    S    
C26   H8    S    
C5    C24   S    
C8    C11   A    
C6    C23   S    
C28   C30   A    
C14   C16   A    
C15   N1    A    
C33   H17   S    
C13   N2    A    
C31   C35   S    
C8    C10   A    
C34   H20   S    
C16   H4    S    
C17   O7    A    
