data_mof_unit_6619.cif
_audit_creation_date              2012-12-10T18:50:00-0500
_audit_creation_method            fapswitch 2.2
_symmetry_space_group_name_H-M    P1
_symmetry_Int_Tables_number       1
_space_group_crystal_system       triclinic
_cell_length_a                    10.814111
_cell_length_b                    9.798236
_cell_length_c                    10.66089
_cell_angle_alpha                 90.127727
_cell_angle_beta                  89.950477
_cell_angle_gamma                 91.394822
_cell_volume                      1129.28161036

loop_
_atom_site_label
_atom_site_type_symbol
_atom_type_description
_atom_site_fract_x
_atom_site_fract_y
_atom_site_fract_z
_atom_type_partial_charge
C1    C     C_R   0.260033 0.497563 0.508460 0.895154
C2    C     C_R   0.566235 0.929852 0.587385 0.010771
C3    C     C_R   0.433458 0.926015 0.412743 -0.032766
C4    C     C_R   0.433504 0.070173 0.412676 -0.006850
C5    C     C_R   0.490121 0.499896 0.258358 0.910344
C6    C     C_R   0.740478 0.501859 0.495388 0.908096
C7    C     C_R   0.497935 0.500000 0.742490 0.824130
C8    C     C_3   0.433543 0.638148 0.070516 -0.188892
C9    C     C_3   0.409927 0.373924 0.068832 -0.142424
C10   C     C_3   0.447087 0.639369 0.926826 -0.385602
C11   C     C_3   0.401625 0.387796 0.925431 -0.438850
C12   C     C_3   0.629158 0.472271 0.933125 -0.066670
C13   C     C_3   0.621803 0.491047 0.077820 -0.452270
C14   C     C_3   0.485135 0.500644 0.122148 0.031442
C15   C     C_3   0.496020 0.499783 0.879182 -0.017528
C16   C     C_2   0.303447 0.667109 0.115906 0.498847
C17   C     C_2   0.282645 0.343440 0.123645 0.379687
C18   C     C_2   0.725518 0.574589 0.882368 0.374659
C19   C     C_2   0.669176 0.327981 0.897113 0.511154
C20   C     C_2   0.118736 0.242691 0.446985 0.562604
C21   C     C_2   0.136543 0.715311 0.638498 0.530453
C22   C     C_2   0.868183 0.270557 0.388903 0.913669
C23   C     C_R   0.060345 0.375379 0.475580 -0.047471
C24   C     C_2   0.879952 0.749170 0.576288 1.073505
C25   C     C_R   0.067007 0.608108 0.565169 -0.098145
C26   C     C_R   0.934641 0.385406 0.454395 -0.067947
C27   C     C_R   0.940530 0.618492 0.544296 -0.135058
C28   C     C_R   0.874074 0.504923 0.492716 -0.194422
C29   C     C_R   0.127235 0.491122 0.521425 -0.148928
C30   C     C_R   0.566507 0.073995 0.587159 0.003931
H1    H     H_    0.492519 0.724607 0.106196 0.121584
H2    H     H_    0.668433 0.407713 0.127538 0.258438
H3    H     H_    0.619854 0.130281 0.656514 0.133269
H4    H     H_    0.618929 0.876524 0.657255 0.156205
H5    H     H_    0.288304 0.688504 0.214472 0.084495
H6    H     H_    0.226346 0.261483 0.083034 0.095073
H7    H     H_    0.713812 0.683107 0.896462 0.111875
H8    H     H_    0.694619 0.306847 0.800680 0.097037
H9    H     H_    0.117005 0.202372 0.352087 0.051954
H10   H     H_    0.206436 0.684951 0.705150 0.051940
H11   H     H_    0.766833 0.208900 0.240029 0.364557
H12   H     H_    0.463798 0.281154 0.089095 0.166941
H13   H     H_    0.863686 0.803816 0.394877 0.311304
H14   H     H_    0.380250 0.869738 0.343278 0.110507
H15   H     H_    0.380380 0.123529 0.343104 0.120824
H16   H     H_    0.358459 0.661198 0.879109 0.218590
H17   H     H_    0.306674 0.415795 0.895892 0.199097
H18   H     H_    0.510753 0.724975 0.899554 0.154966
H19   H     H_    0.419177 0.286484 0.882416 0.189388
H20   H     H_    0.673289 0.585378 0.108462 0.160030
N1    N     N_R   0.499970 0.857200 0.499970 -0.097706
N2    N     N_R   0.499970 0.142800 0.499970 -0.094861
O1    O     O_R   0.316750 0.614620 0.499990 -0.639250
O2    O     O_2   0.242316 0.405596 0.213441 -0.612129
O3    O     O_2   0.818610 0.537574 0.828197 -0.548168
O4    O     O_2   0.673638 0.235002 0.973002 -0.599654
O5    O     O_2   0.162230 0.174540 0.531185 -0.507494
O6    O     O_2   0.120864 0.836851 0.621336 -0.507525
O7    O     O_2   0.863823 0.156718 0.435848 -0.564762
O8    O     O_R   0.809772 0.294054 0.274668 -0.803262
O9    O     O_2   0.863839 0.780404 0.685854 -0.549818
O10   O     O_R   0.843953 0.838746 0.481998 -0.722091
O11   O     O_R   0.316750 0.385380 0.499990 -0.577793
O12   O     O_R   0.499970 0.614670 0.314790 -0.656170
O13   O     O_R   0.499970 0.385330 0.314790 -0.611659
O14   O     O_R   0.683220 0.614710 0.500010 -0.621494
O15   O     O_R   0.683220 0.385290 0.500010 -0.603864
O16   O     O_R   0.500010 0.614660 0.685200 -0.638250
O17   O     O_R   0.500010 0.385340 0.685200 -0.643716
O18   O     O_2   0.214534 0.666090 0.045290 -0.544185
Zn1   Zn    Zn3+2 0.499980 0.653120 0.500000 0.973756
Zn2   Zn    Zn3+2 0.499980 0.346880 0.500000 1.007394

loop_
_geom_bond_atom_site_label_1
_geom_bond_atom_site_label_2
_ccdc_geom_bond_type
C19   O4    D    
C7    O17   A    
O17   Zn2   S    
C24   O10   S    
C9    C14   S    
C24   C27   S    
C10   H16   S    
C24   O9    D    
C11   H19   S    
C19   H8    S    
C26   C28   A    
C25   C27   A    
O13   Zn2   S    
C13   H2    S    
C11   H17   S    
O14   Zn1   S    
C20   C23   S    
C2    C30   A    
C2    H4    S    
C1    C29   S    
C9    H12   S    
C21   O6    D    
C8    C16   S    
C13   C14   S    
C12   C13   S    
C21   C25   S    
C22   O8    S    
C9    C11   S    
C5    C14   S    
C21   H10   S    
N1    Zn1   S    
C18   O3    D    
C4    N2    A    
O16   Zn1   S    
N2    Zn2   S    
C23   C29   A    
C12   C19   S    
C9    C17   S    
C6    O15   A    
C17   H6    S    
C18   H7    S    
C12   C15   S    
C4    H15   S    
C16   H5    S    
C10   H18   S    
C8    C14   S    
C3    H14   S    
O12   Zn1   S    
C2    N1    A    
C3    C4    A    
O1    Zn1   S    
C1    O11   A    
C6    O14   A    
C16   O18   D    
O11   Zn2   S    
C5    O12   A    
C25   C29   A    
C5    O13   A    
O15   Zn2   S    
C22   C26   S    
C23   C26   A    
C12   C18   S    
C22   O7    D    
C20   O5    D    
C20   H9    S    
C1    O1    A    
C7    O16   A    
C3    N1    A    
C7    C15   S    
H11   O8    S    
C30   H3    S    
C10   C15   S    
C8    H1    S    
C11   C15   S    
C17   O2    D    
C8    C10   S    
C6    C28   S    
C13   H20   S    
H13   O10   S    
C30   N2    A    
C27   C28   A    
