data_mof_unit_47266.cif
_audit_creation_date              2013-03-05T15:48:37-0500
_audit_creation_method            fapswitch 2.2
_symmetry_space_group_name_H-M    P1
_symmetry_Int_Tables_number       1
_space_group_crystal_system       triclinic
_cell_length_a                    11.749831
_cell_length_b                    13.004291
_cell_length_c                    13.861926
_cell_angle_alpha                 87.834113
_cell_angle_beta                  92.777395
_cell_angle_gamma                 99.634225
_cell_volume                      2084.80404006

loop_
_atom_site_label
_atom_site_type_symbol
_atom_site_description
_atom_site_fract_x
_atom_site_fract_y
_atom_site_fract_z
_atom_type_partial_charge
O1    O     O_R   0.581500 0.354430 0.495010 -0.546143
O2    O     O_R   0.418500 0.645570 0.504990 -0.546148
O3    O     O_R   0.386890 0.341450 0.506880 -0.605067
O4    O     O_R   0.613110 0.658550 0.493120 -0.605066
C1    C     C_R   0.478892 0.299361 0.501463 0.841646
C2    C     C_R   0.521109 0.700639 0.498539 0.841646
O5    O     O_R   0.611060 0.507430 0.631070 -0.504776
O6    O     O_R   0.388940 0.492570 0.368930 -0.504794
O7    O     O_R   0.416450 0.494450 0.642940 -0.607326
O8    O     O_R   0.583550 0.505550 0.357060 -0.607309
C3    C     C_R   0.519915 0.500997 0.681837 0.837544
C4    C     C_R   0.480085 0.499002 0.318163 0.837549
Cu1   Cu    Cu3+1 0.615220 0.507680 0.492970 1.014000
Cu2   Cu    Cu3+1 0.384780 0.492320 0.507030 1.013987
C5    C     C_1   0.466417 0.498919 0.215424 -0.137556
C6    C     C_1   0.533582 0.501075 0.784576 -0.137528
C7    C     C_2   0.450999 0.499656 0.024304 0.103303
C8    C     C_2   0.548998 0.500326 0.975696 0.103297
C9    C     C_1   0.542192 0.500821 0.871251 0.012795
C10   C     C_1   0.457806 0.499169 0.128749 0.012794
C11   C     C_R   0.533452 0.814029 0.497963 -0.131577
C12   C     C_R   0.466550 0.185971 0.502049 -0.131587
C13   C     C_R   0.344912 0.015962 0.509023 0.355761
C14   C     C_R   0.655092 0.984037 0.491001 0.355761
C15   C     C_R   0.357176 0.124383 0.506482 -0.239788
C16   C     C_R   0.642828 0.875617 0.493538 -0.239790
C17   C     C_R   0.564913 0.139397 0.498864 -0.159303
C18   C     C_R   0.435090 0.860602 0.501151 -0.159327
C19   C     C_R   0.555598 0.031284 0.496975 -0.009621
C20   C     C_R   0.444405 0.968715 0.503046 -0.009612
H1    H     H_    0.351120 0.811785 0.501338 0.224673
H2    H     H_    0.648881 0.188214 0.498672 0.224705
H3    H     H_    0.719115 0.839567 0.489467 0.191111
H4    H     H_    0.280888 0.160431 0.510554 0.191138
N1    N     N_R   0.788370 0.519230 0.482390 -0.246697
N2    N     N_R   0.211630 0.480770 0.517610 -0.246707
C21   C     C_R   0.036353 0.395266 0.588395 0.052785
C22   C     C_R   0.963655 0.604754 0.411642 0.052835
C23   C     C_R   0.157669 0.413094 0.583698 0.018389
C24   C     C_R   0.842339 0.586913 0.416313 0.018348
C25   C     C_R   0.149047 0.536058 0.453956 0.499188
C26   C     C_R   0.850946 0.463942 0.546050 0.499246
C27   C     C_R   0.028689 0.535952 0.465769 -0.127623
C28   C     C_R   0.971312 0.464057 0.534257 -0.127693
H5    H     H_    0.789742 0.631648 0.371387 0.156228
H6    H     H_    0.210277 0.368365 0.628615 0.156254
C29   C     C_3   0.665720 0.501509 0.029366 -0.423158
C30   C     C_3   0.766610 0.499432 0.964007 -0.704259
H7    H     H_    0.751221 0.427535 0.921173 0.276159
H8    H     H_    0.778082 0.569194 0.914438 0.267142
H9    H     H_    0.847471 0.500029 0.009080 0.235159
H10   H     H_    0.685816 0.572918 0.072831 0.208547
H11   H     H_    0.660022 0.432512 0.079848 0.215381
C31   C     C_3   0.334278 0.498476 0.970634 -0.423172
C32   C     C_3   0.233381 0.500521 0.035994 -0.704253
H12   H     H_    0.221920 0.430749 0.085550 0.267124
H13   H     H_    0.248755 0.572408 0.078843 0.276176
H14   H     H_    0.152520 0.499923 0.990921 0.235157
H15   H     H_    0.339970 0.567487 0.920168 0.215384
H16   H     H_    0.314191 0.427079 0.927152 0.208539
N3    N     N_R   0.231559 0.955874 0.519524 0.105358
O9    O     O_R   0.213218 0.886551 0.589671 -0.361513
O10   O     O_R   0.143192 0.984518 0.472100 -0.333099
N4    N     N_R   0.768446 0.044130 0.480507 0.105367
O11   O     O_R   0.786797 0.113443 0.410361 -0.361519
O12   O     O_R   0.856807 0.015490 0.527953 -0.333029
N5    N     N_R   0.800522 0.423121 0.634396 0.109713
O13   O     O_R   0.728597 0.335575 0.637286 -0.396576
O14   O     O_R   0.832686 0.471203 0.714303 -0.392648
N6    N     N_R   0.199447 0.576864 0.365595 0.109734
O15   O     O_R   0.271427 0.664377 0.362693 -0.396531
O16   O     O_R   0.167197 0.528811 0.285687 -0.392624
C33   C     C_3   0.977793 0.298229 0.643389 -0.344849
C34   C     C_3   0.049336 0.210362 0.660704 -0.757201
H17   H     H_    0.085929 0.191637 0.592320 0.279970
H18   H     H_    0.119620 0.231948 0.716341 0.223506
H19   H     H_    0.992942 0.139065 0.687964 0.283193
H20   H     H_    0.951636 0.320311 0.714560 0.253037
H21   H     H_    0.900349 0.263063 0.599751 0.264030
C35   C     C_3   0.022218 0.701820 0.356695 -0.345010
C36   C     C_3   0.950737 0.789757 0.339589 -0.756877
H22   H     H_    0.880388 0.768306 0.283980 0.223454
H23   H     H_    0.914237 0.808388 0.408043 0.280022
H24   H     H_    0.007146 0.861074 0.312386 0.283261
H25   H     H_    0.099737 0.736896 0.400290 0.264002
H26   H     H_    0.048258 0.679797 0.285463 0.252964

loop_
_geom_bond_atom_site_label_1
_geom_bond_atom_site_label_2
_geom_bond_distance
_ccdc_geom_bond_type
C32   H12   1.110974 S    
C17   C19   1.392948 A    
C33   C34   1.533322 S    
C11   C16   1.398655 A    
C8    C29   1.526290 S    
C36   H22   1.110221 S    
C31   H16   1.111852 S    
O5    C3    1.299131 A    
C35   H25   1.109640 S    
C34   H18   1.110236 S    
O1    C1    1.300388 A    
C14   C16   1.392348 A    
Cu1   N1    2.026861 S    
Cu2   N2    2.026860 S    
C7    C10   1.445969 S    
C8    C9    1.445969 S    
O4    Cu1   1.966340 S    
N3    O10   1.301444 A    
N1    C26   1.379271 A    
C14   C19   1.415867 A    
C35   H26   1.109326 S    
C30   H9    1.110630 S    
C1    C12   1.457068 S    
C34   H19   1.110696 S    
C33   H20   1.109319 S    
N6    O15   1.299904 A    
C15   H4    1.083494 S    
C29   H11   1.111852 S    
C30   H8    1.110973 S    
C14   N4    1.437907 S    
Cu1   Cu2   2.697466 S    
C25   C27   1.431264 A    
N2    C25   1.379257 A    
O2    C2    1.300391 A    
C26   C28   1.431286 A    
C36   H23   1.111153 S    
C31   H15   1.111852 S    
C18   H1    1.080245 S    
C24   H5    1.078818 S    
C34   H17   1.111183 S    
N5    O13   1.299899 A    
C13   C20   1.415856 A    
O4    C2    1.297232 A    
C2    C11   1.457061 S    
C12   C15   1.398649 A    
C5    C10   1.200777 T    
N5    O14   1.301299 A    
N4    O12   1.301514 A    
O7    Cu2   1.902933 S    
C19   C20   1.423280 A    
C3    C6    1.425452 S    
C16   H3    1.083509 S    
C29   C30   1.530845 S    
C4    C5    1.425452 S    
O5    Cu1   1.917190 S    
O6    C4    1.299130 A    
C7    C8    1.360647 D    
C33   H21   1.109663 S    
O7    C3    1.296602 A    
O3    Cu2   1.966338 S    
O8    C4    1.296604 A    
C23   H6    1.078783 S    
C30   H7    1.111036 S    
C11   C18   1.394909 A    
C12   C17   1.394910 A    
C32   H13   1.111038 S    
C27   C28   1.419118 A    
C26   N5    1.431256 S    
O1    Cu1   1.965196 S    
C36   H24   1.110706 S    
C21   C33   1.527896 S    
C31   C32   1.530844 S    
O6    Cu2   1.917188 S    
C17   H2    1.080240 S    
N2    C23   1.350690 A    
C35   C36   1.533305 S    
O3    C1    1.297233 A    
O8    Cu1   1.902931 S    
C29   H10   1.111851 S    
N4    O11   1.301327 A    
C21   C28   1.438748 A    
C18   C20   1.392955 A    
N1    C24   1.350682 A    
C22   C27   1.438724 A    
C21   C23   1.409651 A    
C22   C24   1.409617 A    
C22   C35   1.527860 S    
C6    C9    1.200777 T    
C13   C15   1.392356 A    
N3    O9    1.301410 A    
O2    Cu2   1.965196 S    
C13   N3    1.437889 S    
C32   H14   1.110630 S    
N6    O16   1.301315 A    
C7    C31   1.526290 S    
C25   N6    1.431276 S    
