data_mof_unit_14455.cif
_audit_creation_date              2013-03-05T15:45:10-0500
_audit_creation_method            fapswitch 2.2
_symmetry_space_group_name_H-M    P1
_symmetry_Int_Tables_number       1
_space_group_crystal_system       triclinic
_cell_length_a                    10.756917
_cell_length_b                    11.040835
_cell_length_c                    9.885023
_cell_angle_alpha                 111.533175
_cell_angle_beta                  97.858964
_cell_angle_gamma                 91.750203
_cell_volume                      1077.64257335

loop_
_atom_site_label
_atom_site_type_symbol
_atom_site_description
_atom_site_fract_x
_atom_site_fract_y
_atom_site_fract_z
_atom_type_partial_charge
O1    O     O_R   0.511700 0.332330 0.577400 -0.575948
O2    O     O_R   0.474680 0.295500 0.332650 -0.523836
C1    C     C_R   0.490386 0.253715 0.439709 0.782971
O3    O     O_R   0.338160 0.518420 0.622400 -0.570188
O4    O     O_R   0.301140 0.481590 0.377650 -0.562506
C2    C     C_R   0.263055 0.503837 0.502311 0.786708
Cu1   Cu    Cu3+1 0.521920 0.521810 0.644910 1.007487
Cu2   Cu    Cu3+1 0.478080 0.478190 0.355090 1.012635
O5    O     O_R   0.525320 0.704500 0.667350 -0.559935
O6    O     O_R   0.488300 0.667670 0.422600 -0.578451
O7    O     O_R   0.698860 0.518410 0.622350 -0.575496
O8    O     O_R   0.661840 0.481580 0.377600 -0.575081
C3    C     C_R   0.509321 0.745998 0.559929 0.822709
C4    C     C_R   0.737381 0.505004 0.499965 0.777504
H1    H     H_    0.085256 0.327527 0.322070 0.191551
C5    C     C_R   0.162379 0.730406 0.707674 -0.195900
H2    H     H_    0.263285 0.735582 0.711326 0.178705
C6    C     C_R   0.113038 0.837605 0.804294 -0.159548
H3    H     H_    0.177208 0.919179 0.879756 0.217662
C7    C     C_R   0.982803 0.840725 0.802073 0.374506
C8    C     C_R   0.902581 0.733924 0.700939 -0.249730
H4    H     H_    0.802140 0.739674 0.696650 0.182268
C9    C     C_R   0.951127 0.622969 0.604207 0.039073
C10   C     C_R   0.082668 0.621330 0.607456 0.099149
C11   C     C_R   0.129946 0.512167 0.506292 -0.087808
C12   C     C_R   0.048741 0.410029 0.400926 -0.164316
H5    H     H_    0.858964 0.329402 0.318070 0.183626
C13   C     C_R   0.920373 0.411368 0.398038 -0.169969
C14   C     C_R   0.871468 0.514922 0.500477 -0.079446
H6    H     H_    0.455053 0.860590 0.373769 0.228034
H7    H     H_    0.533337 0.134904 0.625641 0.201676
C15   C     C_2   0.484766 0.112661 0.402698 0.177893
C16   C     C_2   0.506638 0.067667 0.511987 -0.218711
H8    H     H_    0.549946 0.953239 0.706276 0.203817
C17   C     C_2   0.518117 0.885914 0.593643 -0.322529
C18   C     C_2   0.490580 0.929021 0.484619 -0.101344
H9    H     H_    0.587002 0.581877 0.153374 0.172589
N1    N     N_2   0.445130 0.445430 0.137370 -0.271687
C19   C     C_2   0.510425 0.511884 0.081716 -0.087309
H10   H     H_    0.635491 0.608102 0.929361 0.215742
N2    N     N_2   0.554930 0.554500 0.862630 -0.313008
C20   C     C_2   0.482543 0.496722 0.921846 0.068528
H11   H     H_    0.373145 0.378067 0.069653 0.228617
N3    N     N_R   0.456259 0.025762 0.250365 0.127511
O9    O     O_R   0.363685 0.045523 0.163536 -0.332379
O10   O     O_R   0.533645 0.939714 0.193754 -0.346958
C21   C     C_2   0.364800 0.418478 0.835653 0.924301
O11   O     O_2   0.366002 0.302409 0.761915 -0.611241
O12   O     O_R   0.250552 0.475310 0.850572 -0.744502
H12   H     H_    0.175609 0.411868 0.789266 0.334929
N4    N     N_R   0.932034 0.952501 0.900842 0.132320
O13   O     O_R   0.006488 0.051414 0.994794 -0.343463
O14   O     O_R   0.810962 0.956070 0.898792 -0.351222

loop_
_geom_bond_atom_site_label_1
_geom_bond_atom_site_label_2
_geom_bond_distance
_ccdc_geom_bond_type
O4    Cu2   1.946302 S    
C9    C10   1.411755 A    
H7    C16   1.087329 S    
C21   O12   1.398054 S    
N2    C20   1.313125 D    
C1    C15   1.460416 S    
C12   C13   1.377878 A    
C21   O11   1.221307 D    
H6    C18   1.085201 S    
Cu2   O8    1.956351 S    
C15   C16   1.341951 D    
C8    C9    1.415439 A    
O2    C1    1.294448 A    
C15   N3    1.441258 S    
N1    H11   1.028808 S    
H9    C19   1.084988 S    
C5    C6    1.393523 A    
C8    H4    1.080186 S    
C10   C11   1.415292 A    
Cu1   O7    1.946302 S    
N1    C19   1.305685 D    
Cu2   N1    2.024946 S    
O3    Cu1   1.956351 S    
C9    C14   1.417065 A    
Cu2   O6    1.942940 S    
H10   N2    1.030587 S    
N3    O10   1.301581 A    
C3    C17   1.452893 S    
C19   C20   1.512778 S    
C6    C7    1.399776 A    
C20   C21   1.474488 S    
Cu1   N2    2.025129 S    
O4    C2    1.291775 A    
H8    C17   1.087219 S    
O7    C4    1.290956 A    
O3    C2    1.295095 A    
C4    C14   1.442354 S    
N4    O13   1.302006 A    
C2    C11   1.442554 S    
Cu1   O5    1.945216 S    
Cu1   Cu2   2.695494 S    
C16   C18   1.453734 S    
C7    C8    1.403965 A    
C5    C10   1.412726 A    
C6    H3    1.082635 S    
H5    C13   1.084323 S    
O12   H12   1.013937 S    
O5    C3    1.295792 A    
C7    N4    1.441168 S    
C13   C14   1.393502 A    
H1    C12   1.084425 S    
N4    O14   1.301776 A    
C11   C12   1.395835 A    
O1    Cu1   1.942940 S    
O2    Cu2   1.945216 S    
N3    O9    1.301127 A    
C17   C18   1.331750 D    
O8    C4    1.295760 A    
C5    H2    1.080156 S    
O1    C1    1.301444 A    
O6    C3    1.297746 A    
