data_mof_unit_16035.cif
_audit_creation_date              2012-10-26T20:51:12-0400
_audit_creation_method            fapswitch 2.2
_symmetry_space_group_name_H-M    P1
_symmetry_Int_Tables_number       1
_space_group_crystal_system       triclinic
_cell_length_a                    12.992553
_cell_length_b                    10.852347
_cell_length_c                    9.55545
_cell_angle_alpha                 89.556049
_cell_angle_beta                  96.046289
_cell_angle_gamma                 91.635967
_cell_volume                      1339.25921335

loop_
_atom_site_label
_atom_site_type_symbol
_atom_type_description
_atom_site_fract_x
_atom_site_fract_y
_atom_site_fract_z
_atom_type_partial_charge
C1    C     C_R   0.500994 0.262379 0.500635 0.547409
C2    C     C_R   0.510175 0.937414 0.374562 -0.170492
C3    C     C_R   0.499892 0.870967 0.498981 -0.003189
C4    C     C_R   0.300541 0.498709 0.473810 0.547198
C5    C     C_R   0.499259 0.934830 0.624956 0.001338
C6    C     C_3   0.419017 0.929297 0.726668 -0.239089
C7    C     C_3   0.431017 0.068724 0.736220 -0.104922
C8    C     C_R   0.579626 0.556504 0.084662 0.147587
C9    C     C_R   0.424889 0.438681 0.064148 -0.022287
C10   C     C_R   0.423971 0.440384 0.915431 -0.034249
C11   C     C_R   0.581423 0.552945 0.937447 0.139191
C12   C     C_R   0.027373 0.474347 0.565308 0.048008
C13   C     C_3   0.621286 0.683682 0.929810 -0.107064
C14   C     C_3   0.609986 0.691536 0.088419 -0.120040
C15   C     C_R   0.497514 0.737502 0.499186 0.539857
C16   C     C_R   0.699287 0.494957 0.526130 0.536973
C17   C     C_R   0.811733 0.483918 0.540395 -0.001120
C18   C     C_R   0.187694 0.495626 0.458554 -0.000725
C19   C     C_R   0.024579 0.512341 0.313026 -0.142275
C20   C     C_R   0.132140 0.513035 0.326119 -0.139471
C21   C     C_R   0.134939 0.475088 0.577570 -0.134131
C22   C     C_3   0.479271 0.118189 0.880639 -0.267191
C23   C     C_R   0.971925 0.494210 0.432249 0.048180
C24   C     C_3   0.585110 0.067656 0.935323 -0.431280
C25   C     C_3   0.731665 0.691808 0.880146 -0.267086
C26   C     C_3   0.739511 0.787064 0.763143 -0.432968
C27   C     C_3   0.705907 0.723911 0.192073 -0.267796
C28   C     C_3   0.739472 0.859876 0.183609 -0.463465
C29   C     C_R   0.864629 0.497023 0.420677 -0.134980
C30   C     C_R   0.866741 0.457451 0.671022 -0.142482
C31   C     C_R   0.974273 0.453877 0.683776 -0.141363
C32   C     C_R   0.505884 0.062326 0.627552 0.041299
C33   C     C_R   0.507301 0.129260 0.501978 -0.003774
C34   C     C_R   0.514613 0.065620 0.375999 -0.168667
Cu1   Cu    Cu3+1 0.499990 0.499980 0.640670 0.918054
Cu2   Cu    Cu3+1 0.500010 0.500020 0.359330 0.920094
H1    H     H_    0.822565 0.509613 0.318184 0.111082
H2    H     H_    0.015759 0.435440 0.785874 0.096927
H3    H     H_    0.171727 0.528521 0.233023 0.125256
H4    H     H_    0.177350 0.459994 0.679930 0.111668
H5    H     H_    0.519137 0.114355 0.277382 0.135599
H6    H     H_    0.510825 0.890883 0.275265 0.126903
H7    H     H_    0.341887 0.898256 0.675401 0.119780
H8    H     H_    0.580028 0.967045 0.954770 0.141203
H9    H     H_    0.642893 0.088018 0.860021 0.158740
H10   H     H_    0.612942 0.112841 0.036696 0.130664
H11   H     H_    0.489139 0.219248 0.871640 0.175876
H12   H     H_    0.442691 0.879417 0.825628 0.127833
H13   H     H_    0.424112 0.099124 0.959974 0.128728
H14   H     H_    0.689968 0.758616 0.666855 0.179844
H15   H     H_    0.716074 0.878683 0.797368 0.141518
H16   H     H_    0.820713 0.794881 0.736897 0.132976
H17   H     H_    0.793716 0.715119 0.964016 0.141478
H18   H     H_    0.752688 0.601708 0.841051 0.164858
H19   H     H_    0.756709 0.886744 0.076314 0.157427
H20   H     H_    0.678106 0.919885 0.213843 0.147197
H21   H     H_    0.810191 0.877166 0.257426 0.143124
H22   H     H_    0.686462 0.707010 0.300752 0.192230
H23   H     H_    0.358866 0.116366 0.696648 0.119253
H24   H     H_    0.771401 0.664443 0.176210 0.128006
H25   H     H_    0.363451 0.389888 0.111405 0.113832
H26   H     H_    0.361624 0.393102 0.851488 0.106445
H27   H     H_    0.564955 0.741673 0.866948 0.153672
H28   H     H_    0.542769 0.747665 0.108052 0.126326
H29   H     H_    0.826965 0.437840 0.762818 0.114298
H30   H     H_    0.982712 0.527299 0.210337 0.094834
N1    N     N_R   0.500660 0.500930 0.148010 -0.237216
N2    N     N_R   0.500660 0.500890 0.852110 -0.240471
O1    O     O_R   0.500000 0.319640 0.618810 -0.504401
O2    O     O_R   0.500010 0.319680 0.381230 -0.504770
O3    O     O_R   0.348990 0.499960 0.599490 -0.510722
O4    O     O_R   0.349000 0.500000 0.361910 -0.507691
O5    O     O_R   0.499990 0.680320 0.618770 -0.504948
O6    O     O_R   0.500000 0.680360 0.381190 -0.512258
O7    O     O_R   0.651000 0.500000 0.638090 -0.505939
O8    O     O_R   0.651010 0.500040 0.400510 -0.514243

loop_
_geom_bond_atom_site_label_1
_geom_bond_atom_site_label_2
_ccdc_geom_bond_type
C18   C21   A    
C17   C29   A    
Cu1   Cu2   S    
C28   H20   S    
Cu2   N1    S    
C1    C33   S    
C28   H21   S    
C12   C23   A    
Cu1   O7    S    
C6    H12   S    
C9    H25   S    
C24   H9    S    
C23   C29   A    
C25   H17   S    
C27   H24   S    
C26   H14   S    
C30   C31   A    
C16   O7    A    
C19   H30   S    
Cu2   O8    S    
C19   C20   A    
C16   C17   S    
C14   C27   S    
C9    C10   A    
C5    C32   A    
C4    C18   S    
C2    C34   A    
C22   H11   S    
Cu1   O3    S    
C13   C14   S    
C17   C30   A    
C13   C25   S    
C10   H26   S    
C34   H5    S    
C7    H23   S    
C28   H19   S    
Cu2   O2    S    
C25   H18   S    
C20   H3    S    
C25   C26   S    
C12   C21   A    
C1    O1    A    
C19   C23   A    
C9    N1    A    
C26   H16   S    
C13   H27   S    
C14   H28   S    
C33   C34   A    
Cu2   O6    S    
C22   H13   S    
C15   O5    A    
C6    H7    S    
C12   C31   A    
C24   H8    S    
C22   C24   S    
C4    O4    A    
C3    C15   S    
C11   N2    A    
Cu1   O5    S    
C8    C14   S    
C7    C32   S    
C16   O8    A    
C3    C5    A    
C27   H22   S    
C6    C7    S    
C10   N2    A    
C7    C22   S    
C1    O2    A    
C31   H2    S    
C24   H10   S    
C32   C33   A    
C2    C3    A    
C26   H15   S    
C11   C13   S    
C5    C6    S    
C21   H4    S    
Cu1   N2    S    
C2    H6    S    
C8    C11   A    
C18   C20   A    
C30   H29   S    
C15   O6    A    
Cu1   O1    S    
C8    N1    A    
C29   H1    S    
C27   C28   S    
C4    O3    A    
Cu2   O4    S    
