data_mof_unit_51001.cif
_audit_creation_date              2012-12-10T18:02:08-0500
_audit_creation_method            fapswitch 2.2
_symmetry_space_group_name_H-M    P1
_symmetry_Int_Tables_number       1
_space_group_crystal_system       triclinic
_cell_length_a                    10.997383
_cell_length_b                    9.52585
_cell_length_c                    23.493728
_cell_angle_alpha                 90.168811
_cell_angle_beta                  90.092836
_cell_angle_gamma                 89.654174
_cell_volume                      2461.13066481

loop_
_atom_site_label
_atom_site_type_symbol
_atom_type_description
_atom_site_fract_x
_atom_site_fract_y
_atom_site_fract_z
_atom_type_partial_charge
C1    C     C_R   0.262389 0.500853 0.502294 0.845781
C2    C     C_R   0.738076 0.499800 0.500163 0.829396
C3    C     C_R   0.584710 0.577504 0.240557 0.415527
C4    C     C_R   0.401516 0.464903 0.759800 0.409426
C5    C     C_R   0.579753 0.579690 0.299697 -0.226202
C6    C     C_R   0.401099 0.468723 0.700619 -0.219686
C7    C     C_R   0.493922 0.499296 0.328779 -0.222446
C8    C     C_R   0.507290 0.500300 0.670782 -0.212919
C9    C     C_R   0.409019 0.417007 0.298108 -0.133541
C10   C     C_R   0.617296 0.525555 0.700315 -0.141857
C11   C     C_R   0.412753 0.417394 0.238079 0.359927
C12   C     C_R   0.617306 0.521781 0.760309 0.358390
C13   C     C_R   0.501153 0.496899 0.209504 0.158374
C14   C     C_R   0.509193 0.492338 0.789836 0.153702
C15   C     C_R   0.064910 0.378877 0.518256 -0.086203
C16   C     C_R   0.936255 0.628816 0.496570 -0.054417
C17   C     C_R   0.938748 0.374597 0.511570 -0.064085
C18   C     C_R   0.063017 0.629447 0.496247 -0.057673
C19   C     C_R   0.872516 0.500436 0.501727 -0.179840
C20   C     C_R   0.128617 0.503424 0.505949 -0.169841
C21   C     C_R   0.444247 0.074413 0.457361 0.008381
C22   C     C_R   0.554870 0.925596 0.542858 0.004848
C23   C     C_R   0.555474 0.074249 0.542709 -0.013963
C24   C     C_R   0.444394 0.925740 0.457321 0.016134
C25   C     C_R   0.497777 0.499798 0.391145 0.889961
C26   C     C_R   0.501998 0.500140 0.608715 0.861617
C27   C     C_R   0.547141 0.376751 0.879383 0.667840
C28   C     C_R   0.457830 0.610016 0.119951 0.651744
C29   C     C_R   0.469280 0.610350 0.878784 0.663023
C30   C     C_R   0.553281 0.384821 0.120530 0.653158
C31   C     C_R   0.458934 0.611193 0.938822 -0.077307
C32   C     C_R   0.559795 0.382532 0.060332 -0.088298
C33   C     C_R   0.507767 0.495372 0.969436 0.000358
C34   C     C_R   0.507302 0.496479 0.029790 0.007599
C35   C     C_R   0.556978 0.378377 0.939471 -0.079425
C36   C     C_R   0.454249 0.611458 0.059688 -0.087234
C37   C     C_R   0.402279 0.723636 0.968741 -0.074475
C38   C     C_R   0.616563 0.270418 0.030069 -0.086056
C39   C     C_R   0.399100 0.723215 0.028740 -0.086249
C40   C     C_R   0.613927 0.267537 0.970056 -0.074174
Cu1   Cu    Cu3+1 0.500000 0.640660 0.500000 1.040461
Cu2   Cu    Cu3+1 0.500000 0.359340 0.500000 1.022459
H1    H     H_    0.645218 0.641785 0.323213 0.210146
H2    H     H_    0.317529 0.447408 0.677710 0.205999
H3    H     H_    0.398734 0.130194 0.423387 0.155806
H4    H     H_    0.599005 0.869794 0.577230 0.184415
H5    H     H_    0.600660 0.129857 0.576816 0.171720
H6    H     H_    0.399476 0.870068 0.423162 0.150457
N1    N     N_R   0.508314 0.492979 0.850958 -0.441224
N2    N     N_R   0.504618 0.497479 0.148321 -0.438141
N3    N     N_R   0.500000 0.852070 0.500000 -0.167653
N4    N     N_R   0.500000 0.147930 0.500000 -0.176898
O1    O     O_R   0.319640 0.618740 0.500000 -0.573394
O2    O     O_R   0.680360 0.381260 0.500000 -0.575240
O3    O     O_R   0.680360 0.618740 0.500000 -0.560665
O4    O     O_R   0.319640 0.381260 0.500000 -0.564295
O5    O     O_R   0.499960 0.618810 0.417880 -0.579196
O6    O     O_R   0.500040 0.381190 0.582120 -0.585103
O7    O     O_R   0.500040 0.618810 0.582120 -0.553323
O8    O     O_R   0.499960 0.381190 0.417880 -0.577138
O9    O     O_2   0.574617 0.260348 0.849088 -0.459064
O10   O     O_2   0.415819 0.719882 0.150643 -0.456705
O11   O     O_2   0.442348 0.725657 0.847932 -0.463025
O12   O     O_2   0.593381 0.275153 0.151686 -0.456338
C41   C     C_2   0.334794 0.836136 0.938083 0.956007
O13   O     O_2   0.369785 0.957594 0.940601 -0.496702
O14   O     O_R   0.231002 0.802141 0.906627 -0.676100
H7    H     H_    0.192837 0.887133 0.887653 0.370789
C42   C     C_2   0.688259 0.160373 0.059980 0.967206
O15   O     O_2   0.787064 0.189539 0.080664 -0.501280
O16   O     O_R   0.642794 0.024120 0.064097 -0.653927
H8    H     H_    0.699770 0.958697 0.085405 0.374131
C43   C     C_2   0.328932 0.836046 0.057857 0.969563
O17   O     O_2   0.227837 0.811039 0.076774 -0.502027
O18   O     O_R   0.378411 0.970269 0.063120 -0.653360
H9    H     H_    0.322119 0.038048 0.083684 0.374989
C44   C     C_2   0.682460 0.154553 0.940061 0.955947
O19   O     O_2   0.647856 0.032994 0.942615 -0.494365
O20   O     O_R   0.786612 0.188278 0.909056 -0.674861
H10   H     H_    0.825442 0.102979 0.890461 0.371145
Cl1   Cl    Cl    0.697663 0.675610 0.206002 -0.462612
Cl2   Cl    Cl    0.265803 0.425629 0.795788 -0.438422
C45   C     C_2   0.314162 0.335295 0.328187 0.940976
O21   O     O_2   0.255890 0.389527 0.366803 -0.586001
O22   O     O_R   0.291722 0.196147 0.312482 -0.679459
H11   H     H_    0.225682 0.151560 0.336330 0.352538
C46   C     C_2   0.732038 0.552241 0.668999 0.919659
O23   O     O_2   0.734527 0.639826 0.631130 -0.576409
O24   O     O_R   0.837384 0.476730 0.682785 -0.652274
H12   H     H_    0.909190 0.503197 0.658089 0.356974
Cl3   Cl    Cl    0.302701 0.326313 0.197522 -0.444323
Cl4   Cl    Cl    0.750165 0.561090 0.799570 -0.422733
C47   C     C_2   0.128945 0.252960 0.540008 0.937987
O25   O     O_2   0.158757 0.247195 0.590108 -0.542193
O26   O     O_R   0.160013 0.144986 0.502511 -0.738748
H13   H     H_    0.217348 0.075058 0.520847 0.358146
C48   C     C_2   0.873576 0.766665 0.496159 0.911248
O27   O     O_2   0.837663 0.817264 0.451375 -0.553765
O28   O     O_R   0.856935 0.837229 0.547727 -0.684249
H14   H     H_    0.808828 0.927046 0.543326 0.336611
C49   C     C_2   0.878578 0.236502 0.514461 0.897516
O29   O     O_2   0.862609 0.180345 0.560524 -0.581429
O30   O     O_R   0.838348 0.173375 0.464108 -0.688910
H15   H     H_    0.789432 0.085538 0.471008 0.343188
C50   C     C_2   0.123825 0.766117 0.487776 0.903737
O31   O     O_2   0.166528 0.827832 0.528775 -0.561323
O32   O     O_R   0.128439 0.824811 0.433390 -0.707925
H16   H     H_    0.170735 0.918951 0.432911 0.341683

loop_
_geom_bond_atom_site_label_1
_geom_bond_atom_site_label_2
_ccdc_geom_bond_type
C38   C40   A    
C46   O23   D    
C29   O11   S    
C47   O25   D    
C30   O12   S    
C8    C26   S    
C43   O17   D    
O26   H13   S    
Cu2   O6    S    
C48   O27   D    
C29   N1    A    
O22   H11   S    
C50   O32   S    
C49   O29   D    
C1    O4    A    
C2    O3    A    
C33   C35   A    
C16   C48   S    
C14   N1    S    
C7    C9    A    
Cu1   Cu2   S    
C42   O16   S    
C17   C49   S    
Cu1   O3    S    
C1    O1    A    
C27   O9    S    
Cu2   O4    S    
C28   N2    A    
O28   H14   S    
C41   O14   S    
C37   C41   S    
C3    Cl1   S    
O32   H16   S    
C31   C33   A    
C25   O8    A    
C32   C38   A    
C26   O7    A    
C18   C20   A    
C3    C13   A    
C24   N3    A    
C5    H1    S    
C38   C42   S    
C49   O30   S    
C6    H2    S    
C4    C14   A    
C43   O18   S    
C25   O5    A    
C48   O28   S    
C21   H3    S    
C44   O20   S    
C15   C20   A    
C37   C39   A    
C10   C46   S    
C23   H5    S    
O14   H7    S    
C24   H6    S    
Cu1   O7    S    
C4    C6    A    
C2    O2    A    
Cu2   O8    S    
C5    C7    A    
C6    C8    A    
C27   C35   A    
C44   O19   D    
C31   C37   A    
C32   C34   A    
O18   H9    S    
C26   O6    A    
C45   O21   D    
C33   C34   A    
C9    C11   A    
Cu1   O1    S    
C10   C12   A    
C9    C45   S    
C16   C18   A    
C45   O22   S    
C12   C14   A    
C46   O24   S    
C8    C10   A    
C15   C17   A    
C1    C20   S    
C22   H4    S    
C2    C19   S    
C40   C44   S    
C12   Cl4   S    
C36   C39   A    
C3    C5    A    
C15   C47   S    
C50   O31   D    
C7    C25   S    
C35   C40   A    
C18   C50   S    
Cu1   O5    S    
O16   H8    S    
C29   C31   A    
Cu2   O2    S    
C30   C32   A    
C11   C13   A    
C23   N4    A    
C16   C19   A    
C13   N2    S    
C17   C19   A    
C34   C36   A    
C39   C43   S    
C30   N2    A    
C42   O15   D    
O20   H10   S    
C11   Cl3   S    
C4    Cl2   S    
C28   C36   A    
C47   O26   S    
C41   O13   D    
C21   C24   A    
O30   H15   S    
C22   C23   A    
O24   H12   S    
Cu1   N3    S    
C21   N4    A    
C27   N1    A    
Cu2   N4    S    
C22   N3    A    
C28   O10   S    
