data_mof_unit_45153.cif
_audit_creation_date              2012-12-11T15:32:13-0500
_audit_creation_method            fapswitch 2.2
_symmetry_space_group_name_H-M    P1
_symmetry_Int_Tables_number       1
_space_group_crystal_system       triclinic
_cell_length_a                    13.532077
_cell_length_b                    13.562294
_cell_length_c                    27.649445
_cell_angle_alpha                 90.241631
_cell_angle_beta                  90.395426
_cell_angle_gamma                 119.690124
_cell_volume                      4407.93503359

loop_
_atom_site_label
_atom_site_type_symbol
_atom_type_description
_atom_site_fract_x
_atom_site_fract_y
_atom_site_fract_z
_atom_type_partial_charge
C1    C     C_R   0.619420 0.898551 0.431247 0.538333
C2    C     C_R   0.213526 0.940313 0.261895 -0.115164
C3    C     C_R   0.199849 0.931556 0.211528 -0.122649
C4    C     C_R   0.571103 0.168249 0.425778 0.560316
C5    C     C_R   0.114980 0.727155 0.216818 -0.104417
C6    C     C_R   0.129303 0.735957 0.267048 -0.101325
C7    C     C_R   0.178379 0.842525 0.289756 0.035891
C8    C     C_R   0.150495 0.824796 0.188889 0.029736
C9    C     C_1   0.127671 0.812785 0.137627 -0.068401
C10   C     C_1   0.202345 0.852412 0.340914 -0.059234
C11   C     C_1   0.098900 0.794539 0.095681 -0.016810
C12   C     C_R   0.559268 0.232662 0.201514 -0.130055
C13   C     C_1   0.635055 0.866098 0.383718 -0.010572
C14   C     C_R   0.559742 0.751468 0.264254 -0.115442
C15   C     C_R   0.567087 0.742539 0.214133 -0.140257
C16   C     C_R   0.279194 0.878933 0.430555 0.541623
C17   C     C_R   0.764214 0.894628 0.216987 0.158424
C18   C     C_R   0.755607 0.903686 0.267210 -0.095780
C19   C     C_R   0.654107 0.831729 0.290898 0.013559
C20   C     C_R   0.668719 0.814047 0.190254 0.064239
C21   C     C_1   0.677205 0.800381 0.138932 -0.024896
C22   C     C_1   0.644567 0.846932 0.341895 -0.053682
C23   C     C_R   0.540730 0.204616 0.250393 -0.116880
C24   C     C_1   0.692816 0.788130 0.096984 -0.004521
C25   C     C_R   0.639956 0.277789 0.615663 0.020345
C26   C     C_R   0.722888 0.264387 0.640864 -0.140897
C27   C     C_R   0.733679 0.279555 0.690435 -0.132861
C28   C     C_R   0.620477 0.901324 0.569038 0.532398
C29   C     C_R   0.665712 0.313801 0.715219 0.036735
C30   C     C_R   0.592344 0.340164 0.689210 -0.124776
C31   C     C_R   0.578550 0.321016 0.639625 -0.132166
C32   C     C_R   0.573075 0.294549 0.794746 -0.121522
C33   C     C_R   0.582157 0.319094 0.843915 -0.125400
C34   C     C_R   0.632391 0.247234 0.282983 0.005421
C35   C     C_R   0.783977 0.381640 0.841212 -0.124343
C36   C     C_R   0.775639 0.360551 0.792022 -0.127452
C37   C     C_R   0.671113 0.321507 0.768055 0.036278
C38   C     C_R   0.688960 0.368414 0.866732 0.030380
C39   C     C_R   0.225594 0.864181 0.615693 0.046278
C40   C     C_R   0.601884 0.223088 0.568525 0.547563
C41   C     C_R   0.248123 0.960855 0.643135 -0.164449
C42   C     C_R   0.223255 0.951689 0.692020 -0.133593
C43   C     C_R   0.173420 0.845492 0.714032 0.012685
C44   C     C_R   0.140796 0.747554 0.686122 -0.107807
C45   C     C_R   0.669756 0.303280 0.184677 0.044025
C46   C     C_R   0.168122 0.755861 0.637179 0.131947
C47   C     C_R   0.186063 0.765411 0.792659 -0.107703
C48   C     C_R   0.155900 0.742069 0.841483 0.280886
C49   C     C_R   0.084063 0.875294 0.838409 -0.182333
C50   C     C_R   0.110640 0.894306 0.789852 -0.144804
C51   C     C_R   0.157552 0.836076 0.766376 -0.007405
C52   C     C_R   0.279840 0.881544 0.568367 0.562912
C53   C     C_R   0.101556 0.795723 0.864025 0.039303
C54   C     C_R   0.628336 0.878679 0.619590 0.038117
C55   C     C_R   0.634683 0.783829 0.634673 -0.142058
C56   C     C_1   0.684153 0.340371 0.135139 -0.059606
C57   C     C_R   0.632507 0.761568 0.684025 -0.117170
C58   C     C_R   0.620901 0.832529 0.718180 0.030566
C59   C     C_R   0.609819 0.924575 0.702278 -0.127657
C60   C     C_R   0.614462 0.947857 0.653388 -0.117534
C61   C     C_R   0.693711 0.910639 0.800362 -0.101482
C62   C     C_R   0.717932 0.896509 0.848386 0.281692
C63   C     C_R   0.600313 0.691774 0.837475 -0.175231
C64   C     C_1   0.594306 0.199724 0.375961 -0.009904
C65   C     C_R   0.579092 0.706913 0.789630 -0.142612
C66   C     C_R   0.629091 0.816155 0.770285 -0.009017
C67   C     C_1   0.612281 0.222246 0.333672 -0.059085
C68   C     C_R   0.673105 0.785598 0.866548 0.039843
C69   C     C_R   0.049758 0.761149 0.048179 0.548028
C70   C     C_R   0.714054 0.434641 0.049404 0.548075
C71   C     C_R   0.723472 0.770904 0.049430 0.549069
C72   C     C_R   0.044911 0.756422 0.910698 0.565812
C73   C     C_R   0.707652 0.427644 0.912793 0.542062
C74   C     C_R   0.716500 0.765777 0.912123 0.568829
C75   C     C_R   0.743295 0.315481 0.266335 -0.066547
C76   C     C_R   0.763402 0.343903 0.217171 0.165838
C77   C     C_3   0.939780 0.917257 0.185687 -0.289951
C78   C     C_1   0.697052 0.378661 0.094952 -0.018333
C79   C     C_3   0.950611 0.367992 0.203564 -0.316339
C80   C     C_3   0.150059 0.568688 0.844137 -0.113353
C81   C     C_3   0.207163 0.603304 0.621837 -0.281613
C82   C     C_3   0.886367 0.065288 0.858336 -0.107781
C83   C     C_1   0.230947 0.862548 0.382863 -0.014301
Cr1   Cr    Cr6+3 0.417720 0.831920 0.499820 1.023849
Cr2   Cr    Cr6+3 0.668190 0.085770 0.500360 1.018864
Cr3   Cr    Cr6+3 0.414060 0.082260 0.499840 1.014592
Cr4   Cr    Cr6+3 0.908000 0.821090 0.979770 1.035717
Cr5   Cr    Cr6+3 0.912420 0.571130 0.979880 1.039942
Cr6   Cr    Cr6+3 0.657970 0.566940 0.980940 1.024222
H1    H     H_    0.814031 0.348874 0.291776 0.120050
H2    H     H_    0.542647 0.371579 0.707365 0.096984
H3    H     H_    0.515289 0.333441 0.620667 0.123235
H4    H     H_    0.292540 0.045056 0.627762 0.138857
H5    H     H_    0.229630 0.726999 0.774698 0.104713
H6    H     H_    0.248096 0.028136 0.713069 0.111121
H7    H     H_    0.089256 0.950162 0.770123 0.113931
H8    H     H_    0.042308 0.917327 0.854911 0.135858
H9    H     H_    0.097584 0.664661 0.702791 0.100365
H10   H     H_    0.642210 0.728288 0.608521 0.103809
H11   H     H_    0.486943 0.201383 0.176993 0.115682
H12   H     H_    0.493616 0.679641 0.194011 0.114957
H13   H     H_    0.729500 0.995373 0.785945 0.101458
H14   H     H_    0.642261 0.690585 0.695488 0.109820
H15   H     H_    0.526500 0.633022 0.767331 0.110623
H16   H     H_    0.565451 0.605942 0.850719 0.139396
H17   H     H_    0.597701 0.978717 0.727611 0.115549
H18   H     H_    0.604230 0.018458 0.641693 0.121154
H19   H     H_    0.454720 0.151472 0.262942 0.114039
H20   H     H_    0.252159 0.023188 0.279093 0.103654
H21   H     H_    0.226499 0.007556 0.190398 0.103325
H22   H     H_    0.075923 0.644162 0.199723 0.126782
H23   H     H_    0.828258 0.966741 0.287736 0.106248
H24   H     H_    0.103106 0.659878 0.288083 0.118256
H25   H     H_    0.480244 0.696537 0.282156 0.121175
H26   H     H_    0.913307 0.046899 0.209382 0.240214
H27   H     H_    0.966728 0.898526 0.220923 0.149165
H28   H     H_    0.016664 0.977389 0.165428 0.146956
H29   H     H_    0.893865 0.837652 0.164091 0.166805
H30   H     H_    0.885276 0.460444 0.170090 0.256695
H31   H     H_    0.037680 0.432140 0.192349 0.137486
H32   H     H_    0.918151 0.293706 0.178611 0.157516
H33   H     H_    0.956039 0.341104 0.240906 0.146585
H34   H     H_    0.772043 0.231611 0.623219 0.134173
H35   H     H_    0.217418 0.578105 0.818772 0.108189
H36   H     H_    0.066858 0.535136 0.824805 0.088828
H37   H     H_    0.140169 0.504503 0.871281 0.141282
H38   H     H_    0.053296 0.597698 0.610983 0.244677
H39   H     H_    0.188570 0.568332 0.659028 0.109099
H40   H     H_    0.299349 0.665981 0.619173 0.182994
H41   H     H_    0.186721 0.532824 0.595943 0.141080
H42   H     H_    0.877439 0.124060 0.833163 0.102638
H43   H     H_    0.926398 0.020883 0.839811 0.096204
H44   H     H_    0.945204 0.117745 0.887836 0.142506
H45   H     H_    0.490499 0.259566 0.777269 0.100551
H46   H     H_    0.507449 0.306386 0.863258 0.125359
H47   H     H_    0.790707 0.258241 0.709437 0.098006
H48   H     H_    0.852764 0.382228 0.772516 0.090746
H49   H     H_    0.867336 0.418537 0.858117 0.129672
N1    N     N_2   0.868550 0.967475 0.193551 -0.517073
N2    N     N_2   0.877073 0.417110 0.201688 -0.531139
N3    N     N_2   0.139174 0.655565 0.610119 -0.494556
O1    O     O_R   0.302900 0.805360 0.446400 -0.502490
O2    O     O_R   0.638120 0.455970 0.034270 -0.505303
O3    O     O_R   0.667540 0.672320 0.030160 -0.495600
O4    O     O_R   0.522090 0.841370 0.450730 -0.496231
O5    O     O_R   0.814460 0.840990 0.926980 -0.471195
O6    O     O_R   0.001710 0.811400 0.930110 -0.522548
O7    O     O_R   0.023410 0.659800 0.926210 -0.464786
O8    O     O_R   0.806940 0.473170 0.931090 -0.507324
O9    O     O_R   0.633420 0.451310 0.927930 -0.521496
O10   O     O_R   0.663190 0.668000 0.931580 -0.513160
O11   O     O_3   0.826130 0.653050 0.980200 -0.256700
O12   O     O_R   0.657980 0.180990 0.549630 -0.503326
O13   O     O_R   0.693280 0.995650 0.447220 -0.512372
O14   O     O_R   0.657260 0.178740 0.451050 -0.488955
O15   O     O_R   0.502640 0.195380 0.446850 -0.501488
O16   O     O_R   0.319630 0.976590 0.450330 -0.509889
O17   O     O_R   0.303680 0.807790 0.552740 -0.480154
O18   O     O_R   0.522820 0.843620 0.549310 -0.500779
O19   O     O_R   0.694060 0.998080 0.553560 -0.514646
O20   O     O_3   0.183001 0.672319 0.868532 -0.538732
O21   O     O_3   0.780334 0.989133 0.878869 -0.540861
O22   O     O_R   0.503420 0.197810 0.553190 -0.517038
O23   O     O_R   0.320350 0.978840 0.548910 -0.514724
O24   O     O_3   0.499990 0.999990 0.500010 -0.269408
O25   O     O_R   0.819150 0.845650 0.033320 -0.497096
O26   O     O_R   0.006060 0.815720 0.028680 -0.497183
O27   O     O_R   0.028100 0.664460 0.032550 -0.503479
O28   O     O_R   0.811290 0.477490 0.029660 -0.495962

loop_
_geom_bond_atom_site_label_1
_geom_bond_atom_site_label_2
_ccdc_geom_bond_type
C25   C31   A    
C7    C10   S    
C63   C65   A    
C2    H20   S    
Cr4   O5    S    
C73   O9    A    
C70   C78   S    
Cr5   O8    S    
C1    O4    A    
C2    C7    A    
C75   C76   A    
C50   H7    S    
C81   H41   S    
C39   C41   A    
C54   C60   A    
Cr1   O4    S    
C79   H32   S    
C12   C23   A    
C70   O2    A    
Cr4   O6    S    
C45   C76   A    
H30   N2    S    
C36   C37   A    
C70   O28   A    
C18   H23   S    
C77   H28   S    
C35   H49   S    
Cr2   O14   S    
C30   C31   A    
Cr4   O25   S    
C27   C29   A    
C80   H36   S    
C3    H21   S    
C68   C74   S    
C10   C83   T    
C28   O19   A    
C17   C20   A    
C56   C78   T    
C18   C19   A    
H38   N3    S    
Cr3   O15   S    
Cr1   O24   S    
C75   H1    S    
C63   C68   A    
C44   H9    S    
C61   C66   A    
C58   C66   S    
Cr6   O11   S    
Cr4   O26   S    
C35   C36   A    
C45   C56   S    
C8    C9    S    
Cr5   O27   S    
C71   O25   A    
Cr2   O19   S    
C63   H16   S    
C77   H27   S    
C36   H48   S    
C34   C75   A    
C81   N3    S    
C79   N2    S    
C59   C60   A    
Cr5   O11   S    
C48   C53   A    
Cr3   O24   S    
C31   H3    S    
Cr1   O18   S    
C44   C46   A    
C50   C51   A    
C46   N3    S    
C76   N2    S    
C52   O17   A    
C15   C20   A    
C57   H14   S    
C79   H33   S    
C41   H4    S    
C59   H17   S    
C42   H6    S    
C64   C67   T    
C19   C22   S    
C40   O22   A    
C77   H29   S    
Cr1   O17   S    
C30   H2    S    
C47   C51   A    
C48   O20   S    
C82   O21   S    
C25   C26   A    
Cr6   O2    S    
C28   O18   A    
C72   O7    A    
C16   O1    A    
C43   C44   A    
C69   O26   A    
C6    H24   S    
C29   C30   A    
C33   H46   S    
C81   H40   S    
C47   C48   A    
Cr1   O1    S    
C23   C34   A    
C79   H31   S    
C35   C38   A    
C17   C18   A    
Cr5   O7    S    
C17   N1    S    
Cr2   O12   S    
C32   C37   A    
C15   H12   S    
C9    C11   T    
C60   H18   S    
C52   O23   A    
C39   C46   A    
Cr6   O9    S    
C4    O15   A    
H26   N1    S    
C3    C8    A    
Cr4   O11   S    
C55   C57   A    
C81   H39   S    
C26   C27   A    
C29   C37   S    
C40   O12   A    
C21   C24   T    
C1    C13   S    
C26   H34   S    
C27   H47   S    
C82   H43   S    
Cr6   O3    S    
C80   H35   S    
C54   C55   A    
C28   C54   S    
Cr5   O28   S    
C73   O8    A    
C16   O16   A    
C14   C19   A    
C74   O5    A    
C77   N1    S    
C12   C45   A    
C34   C67   S    
C16   C83   S    
C5    C8    A    
C1    O13   A    
C11   C69   S    
C6    C7    A    
C72   O6    A    
C5    H22   S    
C4    C64   S    
C33   C38   A    
C62   C68   A    
Cr2   O24   S    
C32   C33   A    
C82   H44   S    
C61   H13   S    
C58   C59   A    
C69   O27   A    
C25   C40   S    
C14   H25   S    
C32   H45   S    
C43   C51   S    
C57   C58   A    
C5    C6    A    
C80   H37   S    
C49   C53   A    
C23   H19   S    
C47   H5    S    
C13   C22   T    
C39   C52   S    
Cr2   O13   S    
C65   C66   A    
C62   O21   S    
C61   C62   A    
C74   O10   A    
Cr3   O16   S    
C80   O20   S    
C12   H11   S    
C49   H8    S    
C41   C42   A    
C4    O14   A    
Cr3   O23   S    
C20   C21   S    
C49   C50   A    
C42   C43   A    
Cr6   O10   S    
C55   H10   S    
C14   C15   A    
C2    C3    A    
Cr3   O22   S    
C65   H15   S    
C82   H42   S    
C53   C72   S    
C24   C71   S    
C71   O3    A    
C38   C73   S    
