data_mof_unit_17305.cif
_audit_creation_date              2012-10-26T19:45:12-0400
_audit_creation_method            fapswitch 2.2
_symmetry_space_group_name_H-M    P1
_symmetry_Int_Tables_number       1
_space_group_crystal_system       triclinic
_cell_length_a                    9.611994
_cell_length_b                    10.826081
_cell_length_c                    13.984086
_cell_angle_alpha                 92.082665
_cell_angle_beta                  87.734466
_cell_angle_gamma                 91.030684
_cell_volume                      1452.88958875

loop_
_atom_site_label
_atom_site_type_symbol
_atom_type_description
_atom_site_fract_x
_atom_site_fract_y
_atom_site_fract_z
_atom_type_partial_charge
C1    C     C_R   0.501160 0.737534 0.499231 0.584805
C2    C     C_R   0.925328 0.435823 0.431607 0.019515
C3    C     C_1   0.526913 0.498729 0.216085 0.079269
C4    C     C_1   0.473063 0.501285 0.783914 0.084040
C5    C     C_2   0.555440 0.498468 0.028198 0.188606
C6    C     C_2   0.444570 0.501733 0.971806 0.184526
C7    C     C_1   0.462521 0.501808 0.869590 0.054162
C8    C     C_1   0.537445 0.498252 0.130407 0.050917
C9    C     C_R   0.619730 0.937473 0.463396 0.244646
C10   C     C_R   0.380268 0.062525 0.536596 0.244733
C11   C     C_R   0.615769 0.066145 0.464836 -0.152806
C12   C     C_R   0.498840 0.262466 0.500768 0.588062
C13   C     C_R   0.384230 0.933853 0.535159 -0.155080
C14   C     C_R   0.497294 0.128416 0.500843 0.042614
C15   C     C_R   0.502706 0.871583 0.499154 0.042362
C16   C     C_R   0.480381 0.500423 0.682173 0.563932
C17   C     C_R   0.519615 0.499573 0.317826 0.563632
C18   C     C_R   0.927414 0.565407 0.570044 0.347944
C19   C     C_R   0.072590 0.434584 0.429959 0.344658
C20   C     C_R   0.074676 0.564188 0.568385 0.024710
Cu1   Cu    Cu3+1 0.359340 0.499980 0.500000 1.107159
Cu2   Cu    Cu3+1 0.640660 0.500020 0.500000 1.104660
H1    H     H_    0.132104 0.613428 0.623018 0.186318
H2    H     H_    0.193155 0.064427 0.595960 0.342849
H3    H     H_    0.867906 0.386589 0.376969 0.189821
H4    H     H_    0.704891 0.117718 0.436461 0.144569
H5    H     H_    0.295108 0.882281 0.563534 0.142682
H6    H     H_    0.935874 0.760161 0.788501 0.400081
H7    H     H_    0.065233 0.237921 0.212268 0.407676
H8    H     H_    0.175817 0.608564 0.910801 0.351042
H9    H     H_    0.843250 0.554122 0.106879 0.359319
H10   H     H_    0.806836 0.935569 0.404021 0.341469
N1    N     N_R   0.147930 0.499970 0.499980 -0.288064
N2    N     N_R   0.852070 0.500030 0.500020 -0.288997
O1    O     O_R   0.381260 0.680340 0.500000 -0.544239
O2    O     O_2   0.815498 0.545677 0.745431 -0.197638
O3    O     O_3   0.975072 0.737238 0.723837 -0.553824
O4    O     O_2   0.184440 0.454135 0.254517 -0.203710
O5    O     O_2   0.269104 0.280999 0.343312 -0.247890
O6    O     O_3   0.024981 0.262560 0.276292 -0.539128
O7    O     O_2   0.238273 0.380328 0.062546 -0.179652
O8    O     O_2   0.252504 0.604524 0.093111 -0.245053
O9    O     O_3   0.159701 0.522188 0.930134 -0.422382
O10   O     O_2   0.746054 0.395182 0.906789 -0.181058
O11   O     O_2   0.763291 0.619185 0.937467 -0.243041
O12   O     O_R   0.618740 0.319660 0.500000 -0.541419
O13   O     O_3   0.840004 0.474653 0.069542 -0.423802
O14   O     O_3   0.734665 0.875003 0.425594 -0.642803
O15   O     O_3   0.265328 0.124994 0.574393 -0.636476
O16   O     O_R   0.618830 0.680370 0.500010 -0.401485
O17   O     O_R   0.381170 0.319630 0.499990 -0.399661
O18   O     O_R   0.364420 0.499960 0.637840 -0.523101
O19   O     O_R   0.635580 0.500040 0.362160 -0.528098
O20   O     O_R   0.601990 0.499990 0.637850 -0.429045
O21   O     O_R   0.398010 0.500010 0.362150 -0.428270
O22   O     O_2   0.730954 0.718981 0.656759 -0.247498
S1    S     S_3+6 0.854822 0.642326 0.674560 0.076565
S2    S     S_3+6 0.145193 0.357580 0.325479 0.076683
S3    S     S_3+6 0.270674 0.502356 0.018200 0.078097
S4    S     S_3+6 0.729328 0.497353 0.981786 0.082098

loop_
_geom_bond_atom_site_label_1
_geom_bond_atom_site_label_2
_ccdc_geom_bond_type
O8    S3    D    
C4    C16   S    
C5    C8    S    
O11   S4    D    
C6    C7    S    
Cu1   O1    S    
C2    H3    S    
C9    C11   A    
C1    O16   A    
C17   O21   A    
C18   S1    S    
C5    S4    S    
C20   H1    S    
O9    S3    S    
Cu2   O16   S    
C18   N2    A    
C2    N2    A    
C9    C15   A    
Cu2   O20   S    
H9    O13   S    
Cu1   Cu2   S    
H10   O14   S    
C1    O1    A    
C10   O15   S    
H6    O3    S    
O10   S4    D    
C4    C7    T    
C1    C15   S    
C20   N1    A    
H7    O6    S    
Cu2   O12   S    
C12   C14   S    
C3    C17   S    
Cu2   O19   S    
C18   C20   A    
C13   C15   A    
C19   S2    S    
C19   N1    A    
C5    C6    D    
Cu2   N2    S    
C11   C14   A    
C16   O20   A    
H8    O9    S    
Cu1   N1    S    
O4    S2    D    
C17   O19   A    
Cu1   O17   S    
C12   O17   A    
O6    S2    S    
O22   S1    D    
O7    S3    D    
C9    O14   S    
C12   O12   A    
C3    C8    T    
C10   C14   A    
H2    O15   S    
Cu1   O21   S    
C13   H5    S    
O2    S1    D    
C11   H4    S    
O13   S4    S    
C2    C19   A    
O5    S2    D    
C6    S3    S    
Cu1   O18   S    
O3    S1    S    
C16   O18   A    
C10   C13   A    
