data_mof_unit_66688.cif
_audit_creation_date              2012-12-10T19:48:33-0500
_audit_creation_method            fapswitch 2.2
_symmetry_space_group_name_H-M    P1
_symmetry_Int_Tables_number       1
_space_group_crystal_system       triclinic
_cell_length_a                    11.567995
_cell_length_b                    10.75412
_cell_length_c                    9.937366
_cell_angle_alpha                 92.226336
_cell_angle_beta                  88.307524
_cell_angle_gamma                 90.288892
_cell_volume                      1234.76271377

loop_
_atom_site_label
_atom_site_type_symbol
_atom_type_description
_atom_site_fract_x
_atom_site_fract_y
_atom_site_fract_z
_atom_type_partial_charge
C1    C     C_R   0.498313 0.259763 0.498089 0.861139
C2    C     C_3   0.391803 0.039696 0.435473 -0.302710
C3    C     C_3   0.477638 0.872798 0.504991 -0.216202
C4    C     C_3   0.492590 0.119453 0.495275 -0.227289
C5    C     C_3   0.384599 0.962063 0.563981 0.349050
C6    C     C_3   0.583992 0.023188 0.435687 0.255243
C7    C     C_3   0.473774 0.607491 0.055844 -0.028008
C8    C     C_3   0.521727 0.392388 0.948314 -0.006289
C9    C     C_3   0.399863 0.532673 0.953668 -0.206797
C10   C     C_3   0.596230 0.471426 0.050457 -0.180313
C11   C     C_3   0.572295 0.578907 0.953013 0.451352
C12   C     C_R   0.489876 0.737185 0.502113 0.867747
C13   C     C_3   0.421724 0.425215 0.050863 0.383275
C14   C     C_R   0.264730 0.487118 0.497059 0.874555
C15   C     C_R   0.739172 0.491075 0.496012 0.774459
C16   C     C_R   0.213700 0.368786 0.929936 0.472605
C17   C     C_R   0.805357 0.399452 0.916315 0.357253
C18   C     C_R   0.167002 0.446355 0.091468 0.337816
C19   C     C_R   0.839182 0.378221 0.784691 0.401843
C20   C     C_R   0.138587 0.355969 0.238757 0.292967
C21   C     C_R   0.902086 0.473892 0.723969 -0.029194
C22   C     C_R   0.162026 0.186214 0.228575 0.198147
C23   C     C_R   0.878536 0.466642 0.483359 -0.131513
C24   C     C_R   0.932452 0.585297 0.790548 -0.200789
C25   C     C_R   0.211847 0.107560 0.071359 0.024046
C26   C     C_R   0.895407 0.607195 0.920512 0.003198
C27   C     C_R   0.238816 0.199228 0.920087 0.198606
C28   C     C_R   0.829919 0.517550 0.982126 -0.195481
C29   C     C_R   0.944440 0.416527 0.368484 0.351283
C30   C     C_R   0.068129 0.423173 0.590124 0.360043
C31   C     C_R   0.133481 0.458020 0.480857 -0.189497
C32   C     C_R   0.949327 0.457412 0.595518 -0.068176
C33   C     C_R   0.073529 0.419434 0.359841 -0.054937
C34   C     C_3   0.480633 0.043086 0.624787 0.419592
C35   C     C_3   0.483257 0.947718 0.378224 0.385937
C36   C     C_3   0.573581 0.951875 0.567976 -0.319990
Cu1   Cu    Cu3+1 0.500030 0.499990 0.643150 1.101763
Cu2   Cu    Cu3+1 0.499970 0.500010 0.356850 1.122020
H1    H     H_    0.269276 0.154180 0.827851 0.215364
H2    H     H_    0.916285 0.693954 0.973141 0.245219
H3    H     H_    0.646567 0.917484 0.625829 0.233873
H4    H     H_    0.318808 0.073070 0.378273 0.207801
H5    H     H_    0.762267 0.787138 0.758446 0.369622
H6    H     H_    0.051491 0.196731 0.004619 0.403723
H7    H     H_    0.161202 0.503658 0.833926 0.329039
H8    H     H_    0.794644 0.224095 0.963686 0.425247
H9    H     H_    0.018699 0.728546 0.220689 0.410117
H10   H     H_    0.721453 0.230680 0.509571 0.351170
H11   H     H_    0.957298 0.421250 0.126708 0.349300
H12   H     H_    0.809488 0.539402 0.087029 0.189327
H13   H     H_    0.032257 0.086754 0.555966 0.433363
H14   H     H_    0.455599 0.022087 0.814433 0.382155
H15   H     H_    0.480891 0.968424 0.187206 0.384704
H16   H     H_    0.254134 0.725061 0.750028 0.377875
H17   H     H_    0.731799 0.793832 0.376720 0.330804
H18   H     H_    0.327475 0.586265 0.917283 0.227442
H19   H     H_    0.662456 0.440007 0.116570 0.259545
H20   H     H_    0.450965 0.699818 0.102114 0.255266
H21   H     H_    0.538008 0.297499 0.906658 0.268998
H22   H     H_    0.142037 0.130864 0.314120 0.149820
H23   H     H_    0.984232 0.655478 0.740936 0.192524
H24   H     H_    0.224664 0.007896 0.066616 0.176312
N1    N     N_3   0.500090 0.499970 0.858290 -0.231516
N2    N     N_3   0.499910 0.500030 0.141710 -0.224226
O1    O     O_R   0.500060 0.316850 0.620870 -0.523095
O2    O     O_2   0.706821 0.777161 0.015753 -0.243476
O3    O     O_3   0.715250 0.709991 0.760977 -0.539544
O4    O     O_2   0.409481 0.191392 0.077982 -0.365252
O5    O     O_2   0.339735 0.303952 0.264918 -0.346916
O6    O     O_3   0.100652 0.263365 0.050820 -0.751246
O7    O     O_3   0.211029 0.430869 0.814847 -0.696352
O8    O     O_3   0.753110 0.303035 0.984766 -0.647109
O9    O     O_2   0.239784 0.664810 0.195779 -0.260461
O10   O     O_2   0.141280 0.675726 0.983257 -0.358177
O11   O     O_3   0.018954 0.637727 0.199826 -0.594846
O12   O     O_R   0.499940 0.683150 0.379130 -0.532223
O13   O     O_2   0.864421 0.125864 0.748898 -0.204154
O14   O     O_2   0.672613 0.208929 0.746490 -0.294368
O15   O     O_3   0.802423 0.234270 0.537490 -0.443805
O16   O     O_2   0.924251 0.178112 0.289478 -0.153429
O17   O     O_2   0.748275 0.300683 0.275101 -0.236919
O18   O     O_3   0.920510 0.339350 0.116509 -0.525255
O19   O     O_2   0.224247 0.240184 0.609633 -0.316248
O20   O     O_2   0.055490 0.241650 0.765739 -0.281885
O21   O     O_3   0.026848 0.170568 0.519328 -0.443186
O22   O     O_3   0.475037 0.092680 0.756795 -0.646018
O23   O     O_R   0.500000 0.316860 0.379090 -0.485079
O24   O     O_3   0.479339 0.896588 0.246763 -0.626825
O25   O     O_2   0.176826 0.991533 0.697574 -0.249977
O26   O     O_2   0.197536 0.817232 0.533961 -0.310745
O27   O     O_3   0.298170 0.803427 0.763931 -0.494436
O28   O     O_2   0.720548 0.063464 0.215178 -0.121320
O29   O     O_2   0.817935 0.013425 0.425479 -0.204936
O30   O     O_3   0.715450 0.838046 0.293792 -0.445597
O31   O     O_R   0.500000 0.683140 0.620910 -0.513383
O32   O     O_R   0.319670 0.500010 0.620890 -0.540541
O33   O     O_R   0.680330 0.499990 0.379110 -0.567659
O34   O     O_R   0.319620 0.500010 0.379110 -0.521540
O35   O     O_R   0.680380 0.499990 0.620890 -0.542283
O36   O     O_2   0.538746 0.813820 0.881168 -0.259825
S1    S     S_3+6 0.634866 0.724362 0.903798 0.038607
S2    S     S_3+6 0.327630 0.297646 0.118066 -0.188600
S3    S     S_3+6 0.143972 0.610062 0.113548 -0.070290
S4    S     S_3+6 0.795122 0.233726 0.704223 0.053712
S5    S     S_3+6 0.877511 0.304386 0.266354 0.074068
S6    S     S_3+6 0.097028 0.266384 0.625836 0.047885
S7    S     S_3+6 0.258303 0.894510 0.639853 0.014578
S8    S     S_3+6 0.714532 0.990128 0.340510 0.118527

loop_
_geom_bond_atom_site_label_1
_geom_bond_atom_site_label_2
_ccdc_geom_bond_type
C2    C35   S    
C1    O23   A    
C8    C13   S    
H7    O7    S    
C14   C31   S    
Cu2   O34   S    
H13   O21   S    
Cu2   O12   S    
O5    S2    D    
C7    C11   S    
O30   S8    S    
C24   H23   S    
C23   C29   A    
H10   O15   S    
C19   C21   A    
C24   C26   A    
O26   S7    D    
C11   N1    S    
H17   O30   S    
C8    H21   S    
C22   H22   S    
C30   C31   A    
C29   C33   A    
C6    C35   S    
Cu1   O31   S    
C18   C20   A    
C34   O22   S    
O18   S5    S    
C9    C13   S    
C3    C12   S    
C28   H12   S    
O28   S8    D    
C27   H1    S    
C22   C25   A    
Cu1   O1    S    
C1    O1    A    
C31   C33   A    
C12   O31   A    
H6    O6    S    
O4    S2    D    
C7    H20   S    
H8    O8    S    
C18   S3    S    
C16   C27   A    
C15   C23   S    
C30   S6    S    
O11   S3    S    
O2    S1    D    
C29   S5    S    
C36   H3    S    
C16   O7    S    
C15   O33   A    
Cu2   O33   S    
C14   O32   A    
Cu1   N1    S    
C14   O34   A    
Cu2   N2    S    
C21   C32   S    
O17   S5    D    
O14   S4    D    
O27   S7    S    
C10   H19   S    
C4    C6    S    
O16   S5    D    
Cu1   O32   S    
H11   O18   S    
C2    C4    S    
H5    O3    S    
Cu1   Cu2   S    
C35   O24   S    
O20   S6    D    
C3    C35   S    
C5    C34   S    
O25   S7    D    
C11   S1    S    
C9    H18   S    
C20   C33   S    
C8    C10   S    
C20   C22   A    
C12   O12   A    
O15   S4    S    
C2    C5    S    
O21   S6    S    
Cu1   O35   S    
O3    S1    S    
C5    S7    S    
C7    C9    S    
C9    N1    S    
C17   C28   A    
C10   N2    S    
C15   O35   A    
C3    C5    S    
C19   S4    S    
O6    S2    S    
C25   C27   A    
C26   C28   A    
O19   S6    D    
Cu2   O23   S    
C1    C4    S    
C23   C32   A    
H14   O22   S    
H9    O11   S    
H16   O27   S    
O29   S8    D    
C30   C32   A    
C26   H2    S    
C13   N2    S    
C3    C36   S    
C2    H4    S    
O36   S1    D    
C17   C19   A    
C6    C36   S    
H15   O24   S    
C34   C36   S    
C25   H24   S    
C4    C34   S    
C7    N2    S    
C10   C11   S    
C8    N1    S    
O9    S3    D    
C17   O8    S    
C16   C18   A    
C21   C24   A    
C6    S8    S    
O13   S4    D    
C13   S2    S    
O10   S3    D    
