data_mof_unit_18170.cif
_audit_creation_date              2012-10-26T19:17:54-0400
_audit_creation_method            fapswitch 2.2
_symmetry_space_group_name_H-M    P1
_symmetry_Int_Tables_number       1
_space_group_crystal_system       triclinic
_cell_length_a                    10.785729
_cell_length_b                    12.318389
_cell_length_c                    13.201697
_cell_angle_alpha                 116.723131
_cell_angle_beta                  77.089601
_cell_angle_gamma                 101.355124
_cell_volume                      1517.66992998

loop_
_atom_site_label
_atom_site_type_symbol
_atom_type_description
_atom_site_fract_x
_atom_site_fract_y
_atom_site_fract_z
_atom_type_partial_charge
C1    C     C_R   0.513918 0.854878 0.286563 0.521479
C2    C     C_R   0.302760 0.220006 0.268810 -0.092684
C3    C     C_R   0.372455 0.129731 0.179083 -0.125926
C4    C     C_R   0.737190 0.000516 0.501237 0.541543
C5    C     C_R   0.347647 0.009161 0.166632 -0.105729
C6    C     C_R   0.254273 0.978842 0.244815 -0.087463
C7    C     C_R   0.184301 0.069093 0.336159 0.057765
C8    C     C_R   0.317936 0.281133 0.017503 -0.141564
C9    C     C_R   0.455264 0.227591 0.834558 -0.006652
C10   C     C_R   0.624664 0.811129 0.090555 -0.145581
C11   C     C_R   0.663747 0.728985 0.979183 -0.153998
C12   C     C_R   0.620874 0.855765 0.805655 -0.104765
C13   C     C_R   0.612364 0.607117 0.939688 -0.124807
C14   C     C_R   0.517172 0.564758 0.011117 0.034401
C15   C     C_R   0.470594 0.651205 0.122149 0.021309
C16   C     C_R   0.481413 0.144973 0.713359 0.543043
C17   C     C_R   0.466946 0.439637 0.976421 0.031482
C18   C     C_R   0.367613 0.404300 0.050352 0.047306
C19   C     C_R   0.315926 0.492493 0.154571 -0.142202
C20   C     C_R   0.364566 0.614367 0.188839 -0.124467
C21   C     C_R   0.511304 0.348251 0.869802 -0.136176
C22   C     C_R   0.361553 0.192948 0.909840 -0.147022
C23   C     C_R   0.038130 0.959665 0.570348 -0.150536
C24   C     C_R   0.531346 0.772733 0.163861 -0.007071
C25   C     C_R   0.702689 0.344972 0.325965 -0.140761
C26   C     C_R   0.329433 0.761675 0.648497 0.054932
C27   C     C_R   0.295113 0.667489 0.683614 -0.145082
C28   C     C_R   0.262881 0.998920 0.497983 0.545416
C29   C     C_R   0.360216 0.563844 0.628448 -0.113350
C30   C     C_R   0.460614 0.552792 0.536457 -0.003370
C31   C     C_R   0.493960 0.652907 0.504941 0.187460
C32   C     C_R   0.530200 0.447507 0.475758 -0.015105
C33   C     C_R   0.632554 0.445878 0.386686 0.030482
C34   C     C_R   0.129191 0.997430 0.495361 0.004979
C35   C     C_R   0.664960 0.545112 0.358865 -0.178035
C36   C     C_R   0.597524 0.646281 0.416800 -0.093055
C37   C     C_R   0.503062 0.342766 0.498838 0.054083
C38   C     C_R   0.671680 0.245568 0.353371 0.057567
C39   C     C_R   0.645783 0.978495 0.824402 -0.094904
C40   C     C_R   0.742753 0.014277 0.751862 -0.057478
C41   C     C_R   0.815635 0.927109 0.660074 0.046678
C42   C     C_R   0.792172 0.804420 0.643427 -0.086586
C43   C     C_R   0.694642 0.768961 0.715837 -0.111130
C44   C     C_R   0.091299 0.035737 0.421912 -0.006918
C45   C     C_R   0.961726 0.036675 0.426449 -0.123446
C46   C     C_R   0.870897 0.000815 0.502711 0.003818
C47   C     C_R   0.908814 0.962252 0.575867 -0.032886
C48   C     C_R   0.208094 0.190509 0.347069 0.112143
Cu1   Cu    Cu3+1 0.529370 0.098270 0.475420 0.947799
Cu2   Cu    Cu3+1 0.470630 0.901730 0.524580 0.921166
H1    H     H_    0.544369 0.827935 0.860720 0.111421
H2    H     H_    0.649284 0.549369 0.852629 0.105390
H3    H     H_    0.737802 0.759124 0.924104 0.126151
H4    H     H_    0.588676 0.045590 0.894060 0.100685
H5    H     H_    0.316430 0.679452 0.267723 0.146778
H6    H     H_    0.725337 0.167279 0.306815 0.118110
H7    H     H_    0.743848 0.544838 0.291446 0.112237
H8    H     H_    0.781106 0.343085 0.257784 0.095963
H9    H     H_    0.425963 0.335353 0.563918 0.133966
H10   H     H_    0.278844 0.842083 0.692154 0.118440
H11   H     H_    0.330241 0.494154 0.659721 0.124613
H12   H     H_    0.445688 0.153266 0.119104 0.112306
H13   H     H_    0.218000 0.674959 0.754015 0.110519
H14   H     H_    0.631213 0.717967 0.390076 0.183706
H15   H     H_    0.759043 0.109117 0.765348 0.099698
H16   H     H_    0.846494 0.735875 0.572340 0.115108
H17   H     H_    0.675140 0.673914 0.701444 0.113050
H18   H     H_    0.067999 0.931640 0.627437 0.123999
H19   H     H_    0.931528 0.063234 0.368479 0.137496
H20   H     H_    0.322884 0.313297 0.277856 0.134021
H21   H     H_    0.401585 0.939310 0.096910 0.109205
H22   H     H_    0.237550 0.885258 0.235155 0.090014
H23   H     H_    0.317166 0.099434 0.883175 0.118551
H24   H     H_    0.236645 0.467313 0.209588 0.119508
H25   H     H_    0.242009 0.253772 0.073427 0.114705
H26   H     H_    0.586875 0.368215 0.809956 0.119070
H27   H     H_    0.671840 0.903822 0.120940 0.123570
I1    I     I_    0.108458 0.333836 0.481469 -0.474941
N1    N     N_R   0.573890 0.246290 0.438210 -0.230524
N2    N     N_R   0.426890 0.754320 0.561170 -0.229331
O1    O     O_R   0.536940 0.972510 0.318130 -0.503247
O2    O     O_R   0.487330 0.806530 0.359650 -0.526753
O3    O     O_R   0.705160 0.082990 0.479250 -0.498036
O4    O     O_R   0.655550 0.917010 0.520760 -0.509314
O5    O     O_R   0.512670 0.193470 0.640350 -0.505638
O6    O     O_R   0.463060 0.027490 0.681870 -0.504958
O7    O     O_R   0.344450 0.082990 0.479240 -0.482007
O8    O     O_R   0.294840 0.917010 0.520750 -0.519635

loop_
_geom_bond_atom_site_label_1
_geom_bond_atom_site_label_2
_ccdc_geom_bond_type
C27   C29   A    
C41   C42   A    
Cu1   O7    S    
C19   C20   A    
C26   N2    A    
Cu2   O4    S    
C31   N2    A    
C4    C46   S    
C45   C46   A    
C6    H22   S    
C37   N1    A    
C21   H26   S    
C26   C27   A    
C9    C16   S    
C12   C43   A    
C30   C31   A    
C9    C22   A    
C39   H4    S    
C38   N1    A    
C1    O1    A    
C18   C19   A    
C48   I1    S    
C35   C36   A    
C28   O8    A    
C8    C22   A    
C11   H3    S    
Cu2   O8    S    
C28   C34   S    
C13   C14   A    
C16   O6    A    
C14   C17   A    
C20   H5    S    
C10   H27   S    
C15   C20   A    
C29   H11   S    
C23   C47   A    
C45   H19   S    
Cu1   O5    S    
C34   C44   A    
C39   C40   A    
C2    C48   A    
C1    O2    A    
C32   C37   A    
C8    H25   S    
C8    C18   A    
Cu1   N1    S    
C23   H18   S    
C29   C30   A    
C25   C38   A    
C13   H2    S    
C4    O4    A    
C23   C34   A    
C28   O7    A    
C17   C18   A    
C41   C47   S    
C7    C44   S    
C37   H9    S    
C27   H13   S    
C40   C41   A    
C40   H15   S    
C16   O5    A    
C42   C43   A    
C12   H1    S    
C44   C45   A    
Cu2   O2    S    
C3    H12   S    
C46   C47   A    
C15   C24   A    
C14   C15   A    
C19   H24   S    
C3    C5    A    
Cu2   N2    S    
C6    C7    A    
C35   H7    S    
C10   C24   A    
C7    C48   A    
Cu1   O3    S    
C12   C39   A    
C2    C3    A    
C5    H21   S    
C36   H14   S    
C32   C33   A    
C30   C32   A    
C11   C13   A    
C9    C21   A    
C5    C6    A    
C4    O3    A    
C33   C35   A    
Cu1   O1    S    
C17   C21   A    
C10   C11   A    
Cu2   O6    S    
C38   H6    S    
C1    C24   S    
C43   H17   S    
Cu1   Cu2   S    
C25   H8    S    
C42   H16   S    
C31   C36   A    
C22   H23   S    
C2    H20   S    
C26   H10   S    
C25   C33   A    
