data_mof_unit_10800.cif
_audit_creation_date              2012-12-11T14:17:34-0500
_audit_creation_method            fapswitch 2.2
_symmetry_space_group_name_H-M    P1
_symmetry_Int_Tables_number       1
_space_group_crystal_system       triclinic
_cell_length_a                    6.934473
_cell_length_b                    13.74476
_cell_length_c                    20.40232
_cell_angle_alpha                 102.022952
_cell_angle_beta                  89.984992
_cell_angle_gamma                 90.367272
_cell_volume                      1901.90303672

loop_
_atom_site_label
_atom_site_type_symbol
_atom_type_description
_atom_site_fract_x
_atom_site_fract_y
_atom_site_fract_z
_atom_type_partial_charge
O1    O     O_R   0.506860 0.599390 0.449240 -0.546739
O2    O     O_R   0.180220 0.594600 0.586780 -0.520339
O3    O     O_R   0.004500 0.400610 0.550760 -0.531691
C1    C     C_R   0.347968 0.615127 0.613617 0.827181
O4    O     O_R   0.177490 0.611290 0.451970 -0.542534
O5    O     O_R   0.001750 0.417420 0.414990 -0.509718
C2    C     C_R   0.346162 0.637191 0.434608 0.710731
O6    O     O_R   0.509610 0.582580 0.585010 -0.539030
O7    O     O_3   0.337420 0.436370 0.488020 -0.363864
V1    V     V_3+5 0.064680 0.511800 0.502220 1.586129
O8    O     O_R   0.671710 0.405400 0.413220 -0.534576
C3    C     C_R   0.840992 0.384849 0.386100 0.776450
O9    O     O_R   0.674440 0.388710 0.548030 -0.547556
C4    C     C_R   0.843284 0.363486 0.565712 0.724035
V2    V     V_3+5 0.564010 0.488200 0.497780 1.543309
O10   O     O_3   0.841140 0.563630 0.511980 -0.373670
C5    C     C_R   0.870192 0.109100 0.603558 -0.080817
H1    H     H_    0.843846 0.167095 0.514277 0.108462
H2    H     H_    0.863418 0.033581 0.574842 0.174739
C6    C     C_R   0.855231 0.283895 0.602878 -0.061415
C7    C     C_R   0.897138 0.307102 0.920795 0.243733
C8    C     C_R   0.965887 0.375507 0.884329 0.401321
C9    C     C_R   0.993310 0.345850 0.815174 0.317085
C10   C     C_R   0.921588 0.252761 0.780082 -0.114622
C11   C     C_R   0.879156 0.177919 0.816983 -0.165759
C12   C     C_R   0.898825 0.230936 0.709144 0.076143
C13   C     C_R   0.884766 0.130707 0.674116 -0.011167
C14   C     C_R   0.877305 0.054420 0.710148 0.344105
C15   C     C_R   0.856864 0.077751 0.780233 0.327180
C16   C     C_R   0.875838 0.306798 0.672556 -0.071977
C17   C     C_R   0.856443 0.185219 0.568407 -0.197821
C18   C     C_R   0.869392 0.206841 0.888740 -0.204972
H3    H     H_    0.865574 0.383956 0.697871 0.190956
C19   C     C_2   0.010172 0.294532 0.280995 0.398114
C20   C     C_2   0.848744 0.315993 0.319316 -0.352552
H4    H     H_    0.712839 0.280865 0.301729 0.138244
C21   C     C_2   0.013458 0.223124 0.214933 -0.161536
C22   C     C_2   0.857195 0.184941 0.179340 -0.328773
H5    H     H_    0.155138 0.202947 0.193853 0.174708
H6    H     H_    0.713243 0.204848 0.197778 0.147755
C23   C     C_2   0.205738 0.759781 0.792799 0.416365
C24   C     C_2   0.362636 0.804960 0.824949 -0.394906
H7    H     H_    0.504083 0.782752 0.805413 0.185782
C25   C     C_2   0.219228 0.687138 0.726867 0.400541
C26   C     C_2   0.353610 0.689661 0.677630 -0.169888
C27   C     C_R   0.313920 0.885763 0.387022 -0.152664
H8    H     H_    0.311976 0.835241 0.479672 0.125813
H9    H     H_    0.313889 0.010510 0.304095 0.134617
H10   H     H_    0.300024 0.963082 0.412078 0.121120
C28   C     C_R   0.351794 0.714152 0.394728 -0.046791
C29   C     C_R   0.352388 0.686039 0.070693 -0.140564
C30   C     C_R   0.316559 0.610425 0.104811 -0.034512
C31   C     C_R   0.289061 0.631182 0.174450 0.099540
C32   C     C_R   0.321365 0.730323 0.212189 0.063982
C33   C     C_R   0.338705 0.808272 0.175675 0.035902
C34   C     C_R   0.331727 0.756652 0.284048 0.076690
C35   C     C_R   0.320415 0.858515 0.316787 0.136510
C36   C     C_R   0.319892 0.932674 0.279447 -0.201295
C37   C     C_R   0.336144 0.908258 0.210259 -0.181453
C38   C     C_R   0.363474 0.686620 0.324783 -0.217403
C39   C     C_R   0.323686 0.813542 0.425637 -0.161863
C40   C     C_R   0.354949 0.784940 0.104922 -0.095065
H11   H     H_    0.399664 0.610500 0.303544 0.147364
H12   H     H_    0.366150 0.667708 0.016598 0.172106
H13   H     H_    0.298812 0.535224 0.075939 0.189677
H14   H     H_    0.343824 0.968941 0.183962 0.113371
O11   O     O_R   0.203230 0.917310 0.915020 -0.507073
O12   O     O_R   0.535500 0.888690 0.048040 -0.549597
O13   O     O_R   0.711080 0.082610 0.085000 -0.553545
C41   C     C_R   0.366465 0.862585 0.065267 0.671698
O14   O     O_R   0.532630 0.905370 0.913230 -0.507045
O15   O     O_R   0.708190 0.099410 0.949230 -0.521669
C42   C     C_R   0.363617 0.879864 0.888498 0.858577
O16   O     O_R   0.206120 0.900510 0.050790 -0.547125
O17   O     O_3   0.375360 0.063570 0.011990 -0.387223
V3    V     V_3+5 0.648170 0.988200 0.997780 1.609255
O18   O     O_R   0.038240 0.111390 0.951940 -0.540865
C43   C     C_R   0.870640 0.134046 0.932177 0.908363
O19   O     O_R   0.041120 0.094710 0.086750 -0.551429
C44   C     C_R   0.871978 0.116069 0.113295 0.766566
V4    V     V_3+5 0.148810 0.011930 0.002180 1.574295
O20   O     O_3   0.871750 0.936430 0.988010 -0.346823
Cl1   Cl    Cl    0.978920 0.769716 0.833583 -0.460412
Cl2   Cl    Cl    0.035180 0.594617 0.713420 -0.527236
C45   C     C_3   0.495662 0.774128 0.679694 -0.671821
H15   H     H_    0.531894 0.782414 0.628065 0.224038
H16   H     H_    0.434034 0.846424 0.705298 0.239328
H17   H     H_    0.632097 0.758324 0.703793 0.289897
Cl3   Cl    Cl    0.883677 0.927925 0.667413 -0.644752
C46   C     C_3   0.194382 0.549203 0.202385 -0.712025
H18   H     H_    0.304653 0.495888 0.212296 0.241929
H19   H     H_    0.108304 0.578947 0.247893 0.213838
H20   H     H_    0.089815 0.507174 0.165639 0.243317
Cl4   Cl    Cl    0.869704 0.344637 0.008791 -0.602702
Cl5   Cl    Cl    0.167714 0.411358 0.777896 -0.528396
Cl6   Cl    Cl    0.033305 0.496840 0.926194 -0.477664
Cl7   Cl    Cl    0.793260 0.977411 0.817096 -0.576776
Cl8   Cl    Cl    0.237424 0.348891 0.306064 -0.699149

loop_
_geom_bond_atom_site_label_1
_geom_bond_atom_site_label_2
_ccdc_geom_bond_type
C33   C37   A    
C19   C21   S    
C23   C24   D    
O2    C1    A    
C20   H4    S    
O15   V3    S    
V4    O20   S    
C35   C36   A    
C6    C16   A    
C31   C32   A    
C30   C31   A    
C27   H10   S    
C12   C13   A    
C38   H11   S    
C14   C15   A    
C10   C12   A    
C37   H14   S    
O5    C3    A    
O14   V3    S    
C7    Cl4   S    
V2    O10   S    
C23   Cl1   S    
C33   C40   A    
C34   C35   A    
C40   C41   S    
O13   V3    S    
C19   C20   D    
O15   C43   A    
C5    H2    S    
O8    V2    S    
C41   O16   A    
C9    C10   A    
C14   Cl3   S    
O11   C42   A    
O7    V1    S    
C1    O6    A    
C11   C18   A    
C7    C8    A    
C29   C40   A    
O4    C2    A    
C1    C26   S    
C45   H16   S    
C11   C15   A    
C7    C18   A    
C32   C34   A    
C27   C39   A    
C29   C30   A    
C5    C13   A    
C4    C6    S    
C10   C11   A    
V3    O20   S    
O14   C42   A    
O17   V4    S    
C36   C37   A    
O18   C43   A    
C34   C38   A    
C26   C45   S    
O17   V3    S    
H8    C39   S    
C21   C22   D    
C46   H19   S    
O18   V4    S    
C3    C20   S    
C45   H15   S    
O3    C4    A    
O1    V2    S    
C12   C16   A    
O11   V4    S    
O6    V2    S    
O9    V2    S    
C27   C35   A    
C5    C17   A    
C23   C25   S    
C24   H7    S    
O16   V4    S    
O2    V1    S    
C31   C46   S    
C25   C26   D    
C46   H20   S    
O19   V4    S    
C45   H17   S    
C32   C33   A    
C24   C42   S    
C16   H3    S    
O1    C2    A    
C8    Cl6   S    
C29   H12   S    
C2    C28   S    
C25   Cl2   S    
O5    V1    S    
O8    C3    A    
H9    C36   S    
O12   V3    S    
C15   Cl7   S    
C28   C38   A    
O7    V2    S    
O4    V1    S    
C21   H5    S    
O3    V1    S    
V1    O10   S    
C22   H6    S    
C46   H18   S    
C22   C44   S    
C19   Cl8   S    
C9    Cl5   S    
C18   C43   S    
O19   C44   A    
O12   C41   A    
C13   C14   A    
C28   C39   A    
C8    C9    A    
O13   C44   A    
H1    C17   S    
O9    C4    A    
C30   H13   S    
C6    C17   A    
