data_mof_unit_23077.cif
_audit_creation_date              2013-03-05T16:33:41-0500
_audit_creation_method            fapswitch 2.2
_symmetry_space_group_name_H-M    P1
_symmetry_Int_Tables_number       1
_space_group_crystal_system       triclinic
_cell_length_a                    9.075936
_cell_length_b                    10.861185
_cell_length_c                    9.550584
_cell_angle_alpha                 89.993263
_cell_angle_beta                  90.009849
_cell_angle_gamma                 90.171545
_cell_volume                      941.448588475

loop_
_atom_site_label
_atom_site_type_symbol
_atom_site_description
_atom_site_fract_x
_atom_site_fract_y
_atom_site_fract_z
_atom_type_partial_charge
O1    O     O_R   0.500000 0.319640 0.618810 -0.587026
O2    O     O_R   0.500020 0.319680 0.381230 -0.594925
C1    C     C_R   0.499116 0.262715 0.499864 0.796029
O3    O     O_R   0.288380 0.499980 0.618770 -0.582255
O4    O     O_R   0.288400 0.500020 0.381190 -0.572763
C2    C     C_R   0.220684 0.500028 0.499968 0.841558
Cu1   Cu    Cu3+1 0.499990 0.499980 0.640670 0.950717
Cu2   Cu    Cu3+1 0.500010 0.500020 0.359330 0.976499
O5    O     O_R   0.499980 0.680320 0.618770 -0.582809
O6    O     O_R   0.500000 0.680360 0.381190 -0.565002
O7    O     O_R   0.711600 0.499980 0.618810 -0.586971
O8    O     O_R   0.711620 0.500020 0.381230 -0.572928
C3    C     C_R   0.499321 0.737289 0.499844 0.826601
C4    C     C_R   0.779299 0.500174 0.500028 0.867255
C5    C     C_1   0.065533 0.500172 0.499964 -0.163734
C6    C     C_1   0.934423 0.500227 0.500016 -0.158110
C7    C     C_R   0.503734 0.062017 0.620870 0.118816
C8    C     C_R   0.496298 0.130095 0.498246 -0.103721
C9    C     C_R   0.485995 0.064553 0.370901 -0.199125
H1    H     H_    0.478491 0.112284 0.271583 0.171042
C10   C     C_R   0.485762 0.935390 0.370980 -0.133980
H2    H     H_    0.477380 0.887594 0.271823 0.201863
C11   C     C_R   0.496539 0.869905 0.498284 -0.104379
C12   C     C_R   0.504131 0.938050 0.620880 0.099907
C13   C     C_3   0.519705 0.929281 0.775845 -0.408632
C14   C     C_3   0.518986 0.071085 0.775840 -0.447062
H3    H     H_    0.421158 0.887536 0.826318 0.205644
H4    H     H_    0.627262 0.889402 0.807335 0.220400
H5    H     H_    0.419754 0.111462 0.826008 0.191218
H6    H     H_    0.625968 0.112585 0.807676 0.210158
C15   C     C_R   0.575472 0.588605 0.073745 0.212039
N1    N     N_R   0.500920 0.500930 0.147930 -0.214592
C16   C     C_R   0.414802 0.419876 0.074392 -0.068559
H7    H     H_    0.348099 0.353333 0.130171 0.141421
C17   C     C_R   0.414638 0.419984 0.925562 -0.063942
H8    H     H_    0.347698 0.353617 0.869777 0.136179
N2    N     N_R   0.500930 0.500890 0.852020 -0.182493
C18   C     C_R   0.576291 0.588024 0.926192 0.212041
C19   C     C_3   0.738344 0.611528 0.919744 -0.551242
C20   C     C_3   0.737615 0.612444 0.078993 0.120796
H9    H     H_    0.800454 0.532269 0.876148 0.196191
H10   H     H_    0.764963 0.701558 0.870520 0.220002
H11   H     H_    0.802011 0.536000 0.126328 0.129148
N3    N     N_R   0.772200 0.733175 0.138862 0.155252
O9    O     O_R   0.705549 0.832060 0.095312 -0.399091
O10   O     O_R   0.868652 0.741838 0.239191 -0.357433

loop_
_geom_bond_atom_site_label_1
_geom_bond_atom_site_label_2
_geom_bond_distance
_ccdc_geom_bond_type
C9    C10   1.402858 A    
O4    Cu2   1.931909 S    
C11   C12   1.386845 A    
N2    C18   1.364324 A    
C13   H3    1.111564 S    
C15   N1    1.364825 A    
C15   C18   1.409246 A    
Cu2   O8    1.931880 S    
N1    C16   1.369309 A    
C7    C8    1.386687 A    
Cu1   N2    2.018559 S    
Cu1   Cu2   2.686960 S    
C19   H9    1.111422 S    
C10   H2    1.082569 S    
C12   C13   1.489776 S    
C13   H4    1.110581 S    
Cu1   O7    1.931910 S    
C18   C19   1.493296 S    
C14   H5    1.111564 S    
O3    Cu1   1.931879 S    
C7    C14   1.489737 S    
Cu2   O6    1.969826 S    
C17   N2    1.369232 A    
O8    C4    1.290098 A    
C14   H6    1.111621 S    
C19   H10   1.110875 S    
O2    C1    1.290901 A    
C10   C11   1.412039 A    
O4    C2    1.290279 A    
O7    C4    1.290236 A    
C4    C6    1.407895 S    
C2    C5    1.408149 S    
C7    C12   1.346444 A    
C5    C6    1.189944 T    
Cu2   N1    2.019036 S    
C20   N3    1.463759 S    
C16   H7    1.081686 S    
N3    O9    1.302349 A    
C3    C11   1.440747 S    
C1    C8    1.440638 S    
O3    C2    1.290209 A    
C8    C9    1.412248 A    
C19   C20   1.520973 S    
Cu1   O5    1.969819 S    
O5    C3    1.293371 A    
C15   C20   1.494273 S    
C16   C17   1.421410 A    
C13   C14   1.540183 S    
O1    Cu1   1.969826 S    
O6    C3    1.291015 A    
C20   H11   1.112670 S    
O2    Cu2   1.969817 S    
C9    H1    1.083141 S    
N3    O10   1.300982 A    
O1    C1    1.293431 A    
C17   H8    1.081624 S    
