data_mof_unit_42188.cif
_audit_creation_date              2012-12-10T16:57:43-0500
_audit_creation_method            fapswitch 2.2
_symmetry_space_group_name_H-M    P1
_symmetry_Int_Tables_number       1
_space_group_crystal_system       triclinic
_cell_length_a                    7.81031
_cell_length_b                    8.54638
_cell_length_c                    19.125288
_cell_angle_alpha                 91.732726
_cell_angle_beta                  86.025522
_cell_angle_gamma                 93.21442
_cell_volume                      1271.09166707

loop_
_atom_site_label
_atom_site_type_symbol
_atom_type_description
_atom_site_fract_x
_atom_site_fract_y
_atom_site_fract_z
_atom_type_partial_charge
C1    C     C_R   0.545303 0.794488 0.499777 0.949470
C2    C     C_R   0.454830 0.205668 0.502764 0.946316
C3    C     C_2   0.569119 0.958009 0.502861 -0.349957
C4    C     C_2   0.430766 0.042410 0.504688 -0.351151
C5    C     C_R   0.502645 0.501579 0.634271 0.968147
C6    C     C_R   0.497843 0.499816 0.366113 1.021087
C7    C     C_R   0.398469 0.603022 0.750812 0.558997
C8    C     C_R   0.587741 0.621729 0.254389 0.566891
C9    C     C_R   0.405326 0.609801 0.822890 -0.328489
C10   C     C_R   0.582195 0.626140 0.182267 -0.308932
C11   C     C_R   0.521753 0.521527 0.854705 -0.199888
C12   C     C_R   0.484282 0.511095 0.146724 -0.208071
C13   C     C_R   0.639275 0.431641 0.814151 0.387690
C14   C     C_R   0.387587 0.392623 0.183871 0.401692
C15   C     C_R   0.631569 0.424137 0.741638 0.487462
C16   C     C_R   0.394255 0.388483 0.256310 0.453275
C17   C     C_R   0.510211 0.508780 0.709875 -0.379452
C18   C     C_R   0.493254 0.503279 0.291205 -0.363080
C19   C     C_R   0.489014 0.513556 0.070928 0.348725
C20   C     C_R   0.513629 0.519092 0.930261 0.341449
H1    H     H_    0.315862 0.680214 0.854134 0.197267
H2    H     H_    0.657385 0.717271 0.153976 0.207982
H3    H     H_    0.699836 0.008565 0.503196 0.176496
H4    H     H_    0.299771 0.992084 0.505709 0.157189
N1    N     N_R   0.504629 0.654629 0.968499 -0.178957
N2    N     N_R   0.496048 0.378012 0.032542 -0.128528
N3    N     N_R   0.493983 0.651967 0.037966 -0.176205
N4    N     N_R   0.508524 0.380707 0.963102 -0.132663
N5    N     N_2   0.950330 0.457950 0.481240 0.167503
N6    N     N_2   0.049670 0.542050 0.518760 0.165733
O1    O     O_R   0.389250 0.738570 0.504600 -0.664659
O2    O     O_R   0.610750 0.261430 0.495400 -0.650068
O3    O     O_R   0.678400 0.711620 0.492580 -0.612648
O4    O     O_R   0.321600 0.288380 0.507420 -0.625183
O5    O     O_R   0.355380 0.513500 0.607880 -0.590542
O6    O     O_R   0.644620 0.486500 0.392120 -0.632493
O7    O     O_R   0.644530 0.486550 0.595850 -0.535356
O8    O     O_R   0.355470 0.513450 0.404150 -0.555323
Zn1   Zn    Zn3+2 0.306930 0.517990 0.508030 1.047708
Zn2   Zn    Zn3+2 0.693070 0.482010 0.491970 1.048979
F1    F     F_    0.283746 0.689720 0.721330 -0.682793
F2    F     F_    0.683782 0.733308 0.288373 -0.661872
O9    O     O_3   0.756442 0.344920 0.845047 -0.577587
C21   C     C_3   0.903190 0.443506 0.857589 0.134849
H5    H     H_    0.868572 0.542784 0.893971 0.094022
H6    H     H_    0.963619 0.492454 0.807787 0.175437
C22   C     C_3   0.034413 0.350595 0.892308 -0.363021
H7    H     H_    0.137757 0.432902 0.910867 0.179397
H8    H     H_    0.970991 0.290646 0.938765 0.234463
C23   C     C_3   0.114917 0.229375 0.841746 -0.721852
H9    H     H_    0.180215 0.287492 0.795210 0.248369
H10   H     H_    0.014949 0.142038 0.824356 0.285270
H11   H     H_    0.211701 0.167112 0.868565 0.240563
O10   O     O_3   0.292329 0.276956 0.149466 -0.588897
C24   C     C_3   0.123676 0.326403 0.146308 0.120628
H12   H     H_    0.124656 0.437486 0.117091 0.125864
H13   H     H_    0.062021 0.344709 0.200073 0.157935
C25   C     C_3   0.017379 0.199951 0.107948 -0.337816
H14   H     H_    0.078657 0.179003 0.054514 0.231054
H15   H     H_    0.013483 0.088839 0.136923 0.247189
C26   C     C_3   0.834232 0.248553 0.101830 -0.905657
H16   H     H_    0.769139 0.266907 0.154725 0.269410
H17   H     H_    0.760439 0.155095 0.073335 0.289351
H18   H     H_    0.835718 0.358624 0.072309 0.259601
F3    F     F_    0.740221 0.332000 0.702739 -0.631904
F4    F     F_    0.307930 0.270608 0.292184 -0.668242
O11   O     O_3   0.033696 0.412658 0.420389 -0.536820
C27   C     C_3   0.951211 0.276680 0.392090 0.225442
H19   H     H_    0.973554 0.280738 0.334170 0.170618
H20   H     H_    0.811453 0.269180 0.402444 0.159526
C28   C     C_3   0.028543 0.129359 0.417074 -0.429380
H21   H     H_    0.170248 0.139479 0.407024 0.286572
H22   H     H_    0.997682 0.117954 0.474327 0.199426
C29   C     C_3   0.960676 0.982298 0.378378 -0.801220
H23   H     H_    0.818123 0.972561 0.383220 0.279685
H24   H     H_    0.010213 0.876851 0.400928 0.266617
H25   H     H_    0.004526 0.986114 0.321912 0.294647
O12   O     O_3   0.967579 0.603888 0.576314 -0.525200
C30   C     C_3   0.040576 0.755916 0.586874 0.213712
H26   H     H_    0.044291 0.823256 0.537698 0.094629
H27   H     H_    0.172001 0.750718 0.604673 0.219522
C31   C     C_3   0.930680 0.841090 0.643526 -0.380162
H28   H     H_    0.797485 0.845591 0.626890 0.222869
H29   H     H_    0.925587 0.775562 0.693048 0.253361
C32   C     C_3   0.003653 0.007931 0.656899 -0.841628
H30   H     H_    0.005698 0.076839 0.608489 0.260677
H31   H     H_    0.136266 0.006344 0.674369 0.273217
H32   H     H_    0.921822 0.065988 0.698597 0.311718

loop_
_geom_bond_atom_site_label_1
_geom_bond_atom_site_label_2
_ccdc_geom_bond_type
C24   H12   S    
C5    O7    A    
C3    H3    S    
C1    O3    A    
C22   H8    S    
C32   H30   S    
C10   H2    S    
C29   H24   S    
C8    F2    S    
O7    Zn2   S    
O8    Zn1   S    
C4    H4    S    
C5    C17   S    
C20   N1    A    
C25   H15   S    
C15   F3    S    
C1    O1    A    
N5    Zn2   S    
C2    O2    A    
C26   H17   S    
C19   N2    A    
N5    O11   S    
C6    O6    A    
C27   H19   S    
C7    C17   A    
C29   H25   S    
C23   H10   S    
C6    O8    A    
C19   N3    A    
C21   C22   S    
C2    O4    A    
C25   C26   S    
C7    F1    S    
C21   H6    S    
C22   C23   S    
C32   H31   S    
C6    C18   S    
C11   C20   S    
O3    Zn2   S    
C29   H23   S    
O4    Zn1   S    
C23   H11   S    
O6    Zn2   S    
C30   H27   S    
O12   C30   S    
C20   N4    A    
C25   H14   S    
C8    C18   A    
O11   C27   S    
C1    C3    S    
C26   H18   S    
C2    C4    S    
O9    C21   S    
N5    N6    D    
C28   C29   S    
C22   H7    S    
C23   H9    S    
C16   C18   A    
C9    C11   A    
C10   C12   A    
C8    C10   A    
C14   O10   S    
C12   C14   A    
C31   H29   S    
C24   H13   S    
C14   C16   A    
C16   F4    S    
C3    C4    D    
C13   O9    S    
C21   H5    S    
C28   H22   S    
C32   H32   S    
C15   C17   A    
O10   C24   S    
C30   C31   S    
N1    N3    A    
C31   C32   S    
N2    N4    A    
C13   C15   A    
C28   H21   S    
C11   C13   A    
C9    H1    S    
C27   C28   S    
O5    Zn1   S    
C5    O5    A    
C12   C19   S    
O1    Zn1   S    
N6    Zn1   S    
O2    Zn2   S    
C26   H16   S    
C30   H26   S    
N6    O12   S    
C7    C9    A    
C27   H20   S    
C31   H28   S    
C24   C25   S    
