data_mof_unit_65860.cif
_audit_creation_date              2012-12-10T21:05:00-0500
_audit_creation_method            fapswitch 2.2
_symmetry_space_group_name_H-M    P1
_symmetry_Int_Tables_number       1
_space_group_crystal_system       triclinic
_cell_length_a                    26.05722
_cell_length_b                    59.929427
_cell_length_c                    32.468031
_cell_angle_alpha                 90.0
_cell_angle_beta                  113.224199
_cell_angle_gamma                 89.999877
_cell_volume                      46593.4597041

loop_
_atom_site_label
_atom_site_type_symbol
_atom_type_description
_atom_site_fract_x
_atom_site_fract_y
_atom_site_fract_z
_atom_type_partial_charge
C1    C     C_R   0.500000 0.810657 0.500000 0.886955
C2    C     C_R   0.170115 0.750622 0.740319 -0.225059
C3    C     C_R   0.131629 0.279871 0.905167 -0.143515
C4    C     C_R   0.692890 0.208893 0.903526 -0.143487
C5    C     C_R   0.368411 0.779855 0.094833 -0.143530
C6    C     C_R   0.307123 0.208894 0.096475 -0.143482
C7    C     C_R   0.631602 0.779862 0.905167 -0.143530
C8    C     C_R   0.238200 0.713766 0.046540 -0.236320
C9    C     C_R   0.767651 0.286356 0.953106 -0.237096
C10   C     C_R   0.761783 0.713764 0.953459 -0.236319
C11   C     C_R   0.232329 0.286352 0.046894 -0.237098
C12   C     C_R   0.738244 0.213757 0.046541 -0.236326
C13   C     C_R   0.162485 0.254227 0.743343 -0.218241
C14   C     C_R   0.267719 0.786343 0.953106 -0.237100
C15   C     C_R   0.261766 0.213759 0.953459 -0.236326
C16   C     C_R   0.732296 0.786347 0.046894 -0.237100
C17   C     C_R   0.451802 0.582303 0.475370 0.675891
C18   C     C_R   0.539458 0.417568 0.534953 0.676293
C19   C     C_R   0.548199 0.582303 0.524629 0.675886
C20   C     C_R   0.460549 0.417568 0.465046 0.676285
C21   C     C_R   0.951806 0.082302 0.475361 0.675913
C22   C     C_R   0.039448 0.917567 0.534959 0.676310
C23   C     C_R   0.048196 0.082302 0.524638 0.675905
C24   C     C_R   0.829884 0.750625 0.259681 -0.225053
C25   C     C_R   0.960558 0.917567 0.465041 0.676301
C26   C     C_R   0.498062 0.629289 0.537179 -0.141911
C27   C     C_R   0.460593 0.370574 0.511737 -0.131050
C28   C     C_R   0.501936 0.629289 0.462820 -0.141911
C29   C     C_R   0.539413 0.370574 0.488263 -0.131057
C30   C     C_R   0.998048 0.129289 0.537174 -0.141897
C31   C     C_R   0.960583 0.870574 0.511726 -0.131096
C32   C     C_R   0.001951 0.129289 0.462825 -0.141901
C33   C     C_R   0.039422 0.870573 0.488275 -0.131102
C34   C     C_R   0.498721 0.652742 0.536979 0.490437
C35   C     C_R   0.373406 0.749438 0.235144 0.115943
C36   C     C_R   0.460833 0.347121 0.511298 0.504427
C37   C     C_R   0.501276 0.652742 0.463019 0.490397
C38   C     C_R   0.539171 0.347121 0.488703 0.504425
C39   C     C_R   0.998707 0.152741 0.536974 0.490472
C40   C     C_R   0.960824 0.847121 0.511287 0.504410
C41   C     C_R   0.001290 0.152742 0.463024 0.490420
C42   C     C_R   0.039179 0.847120 0.488714 0.504408
C43   C     C_R   0.500000 0.617516 0.499999 0.017962
C44   C     C_R   0.500003 0.382355 0.500000 0.011496
C45   C     C_R   0.000000 0.117515 0.499999 0.017950
C46   C     C_R   0.635777 0.250511 0.764293 0.118237
C47   C     C_R   0.000003 0.882355 0.500000 0.011506
C48   C     C_R   0.500002 0.547053 0.499999 -0.058964
C49   C     C_R   0.500003 0.452818 0.499999 -0.058907
C50   C     C_R   0.000001 0.047053 0.499999 -0.058963
C51   C     C_R   0.000003 0.952817 0.500000 -0.058905
C52   C     C_R   0.451003 0.558874 0.474659 -0.109269
C53   C     C_R   0.540446 0.440996 0.535446 -0.110221
C54   C     C_R   0.549000 0.558874 0.525340 -0.109266
C55   C     C_R   0.459561 0.440996 0.464553 -0.110220
C56   C     C_R   0.951007 0.058874 0.474649 -0.109294
C57   C     C_R   0.626593 0.749440 0.764855 0.115907
C58   C     C_R   0.040436 0.940996 0.535452 -0.110201
C59   C     C_R   0.048996 0.058874 0.525350 -0.109289
C60   C     C_R   0.959569 0.940996 0.464547 -0.110200
C61   C     C_R   0.402066 0.547079 0.450249 -0.205013
C62   C     C_R   0.579884 0.452792 0.571084 -0.203782
C63   C     C_R   0.597937 0.547079 0.549750 -0.205015
C64   C     C_R   0.420123 0.452792 0.428915 -0.203783
C65   C     C_R   0.902073 0.047078 0.450230 -0.204922
C66   C     C_R   0.079864 0.952791 0.571096 -0.203716
C67   C     C_R   0.097929 0.047079 0.549769 -0.204926
C68   C     C_R   0.364221 0.250510 0.235707 0.118208
C69   C     C_R   0.920141 0.952791 0.428903 -0.203716
C70   C     C_R   0.640231 0.749704 0.500122 0.809910
C71   C     C_R   0.359982 0.250070 0.500361 0.813306
C72   C     C_R   0.359769 0.749705 0.499879 0.809921
C73   C     C_R   0.640018 0.250070 0.499639 0.813312
C74   C     C_R   0.140231 0.249704 0.500122 0.810046
C75   C     C_R   0.859982 0.750070 0.500361 0.813418
C76   C     C_R   0.859770 0.249705 0.499880 0.810062
C77   C     C_R   0.140018 0.750070 0.499639 0.813424
C78   C     C_R   0.499999 0.664569 0.499999 -0.305204
C79   C     C_R   0.873402 0.249441 0.235145 0.115942
C80   C     C_R   0.500001 0.335342 0.500000 -0.291772
C81   C     C_R   0.999999 0.164569 0.499999 -0.305189
C82   C     C_R   0.000001 0.835342 0.500000 -0.291740
C83   C     C_R   0.955869 0.988202 0.466530 -0.049943
C84   C     C_R   0.047865 0.011668 0.529065 -0.049477
C85   C     C_R   0.044136 0.988202 0.533469 -0.049941
C86   C     C_R   0.952139 0.011668 0.470933 -0.049477
C87   C     C_R   0.455862 0.488202 0.466537 -0.049966
C88   C     C_R   0.547871 0.511668 0.529057 -0.049463
C89   C     C_R   0.544144 0.488202 0.533461 -0.049967
C90   C     C_R   0.135781 0.750511 0.764293 0.118210
C91   C     C_R   0.452134 0.511668 0.470942 -0.049463
C92   C     C_R   0.000003 0.976465 0.499999 -0.058836
C93   C     C_R   0.000002 0.023405 0.499999 -0.058854
C94   C     C_R   0.500003 0.476465 0.499999 -0.058855
C95   C     C_R   0.500002 0.523405 0.499999 -0.058867
C96   C     C_R   0.918555 0.976023 0.429386 0.709176
C97   C     C_R   0.097841 0.023847 0.551260 0.708442
C98   C     C_R   0.081451 0.976023 0.570613 0.709175
C99   C     C_R   0.902163 0.023847 0.448739 0.708441
C100  C     C_R   0.418537 0.476023 0.429398 0.709163
C101  C     C_R   0.126596 0.249440 0.764855 0.115882
C102  C     C_R   0.597850 0.523848 0.551241 0.708406
C103  C     C_R   0.581470 0.476023 0.570600 0.709162
C104  C     C_R   0.402155 0.523847 0.448757 0.708406
C105  C     C_R   0.370960 0.680204 0.560488 -0.153924
C106  C     C_R   0.641885 0.319859 0.422348 -0.096019
C107  C     C_R   0.629056 0.680192 0.439593 -0.153960
C108  C     C_R   0.358074 0.319873 0.577616 -0.095964
C109  C     C_R   0.870963 0.180210 0.560536 -0.153839
C110  C     C_R   0.141896 0.819864 0.422364 -0.096007
C111  C     C_R   0.129063 0.180193 0.439576 -0.153888
C112  C     C_R   0.500000 0.189359 0.500000 0.888660
C113  C     C_R   0.864217 0.750511 0.235707 0.118198
C114  C     C_R   0.858063 0.819877 0.577601 -0.095951
C115  C     C_R   0.333963 0.696448 0.534250 -0.125359
C116  C     C_R   0.676464 0.304119 0.452256 -0.094629
C117  C     C_R   0.666041 0.696444 0.465815 -0.125340
C118  C     C_R   0.323502 0.304128 0.547718 -0.094732
C119  C     C_R   0.833960 0.196450 0.534287 -0.125529
C120  C     C_R   0.176473 0.804122 0.452268 -0.094858
C121  C     C_R   0.166045 0.196444 0.465802 -0.125493
C122  C     C_R   0.823492 0.804131 0.547707 -0.094963
C123  C     C_R   0.326021 0.716279 0.554000 0.045066
C124  C     C_R   0.312497 0.747370 0.093959 -0.125716
C125  C     C_R   0.672030 0.281462 0.440429 0.027317
C126  C     C_R   0.673998 0.716264 0.446037 0.045054
C127  C     C_R   0.327959 0.281471 0.559552 0.027330
C128  C     C_R   0.826031 0.216288 0.554022 0.045060
C129  C     C_R   0.172034 0.781465 0.440436 0.027359
C130  C     C_R   0.173996 0.216267 0.446030 0.045043
C131  C     C_R   0.827956 0.781474 0.559545 0.027373
C132  C     C_R   0.354911 0.719587 0.600253 -0.229296
C133  C     C_R   0.633128 0.274759 0.398199 -0.210285
C134  C     C_R   0.645134 0.719552 0.399777 -0.229332
C135  C     C_R   0.715451 0.248232 0.905160 -0.126082
C136  C     C_R   0.366877 0.274774 0.601780 -0.210206
C137  C     C_R   0.854939 0.219607 0.600269 -0.229205
C138  C     C_R   0.133128 0.774765 0.398206 -0.210223
C139  C     C_R   0.145129 0.219559 0.399771 -0.229268
C140  C     C_R   0.866879 0.774779 0.601773 -0.210137
C141  C     C_R   0.391985 0.703316 0.626378 0.686761
C142  C     C_R   0.598426 0.290557 0.368467 0.701588
C143  C     C_R   0.608071 0.703274 0.373669 0.686822
C144  C     C_R   0.401573 0.290577 0.631502 0.701578
C145  C     C_R   0.892018 0.203341 0.626404 0.686710
C146  C     C_R   0.687501 0.747372 0.906041 -0.125717
C147  C     C_R   0.098427 0.790565 0.368478 0.701576
C148  C     C_R   0.108069 0.203281 0.373659 0.686815
C149  C     C_R   0.901574 0.790585 0.631491 0.701564
C150  C     C_R   0.400028 0.683651 0.606490 -0.105448
C151  C     C_R   0.602723 0.313080 0.380596 -0.175414
C152  C     C_R   0.600014 0.683620 0.393583 -0.105426
C153  C     C_R   0.397253 0.313099 0.619366 -0.175340
C154  C     C_R   0.900048 0.183668 0.606531 -0.105414
C155  C     C_R   0.102730 0.813087 0.380612 -0.175370
C156  C     C_R   0.100018 0.183623 0.393567 -0.105399
C157  C     C_R   0.284545 0.248230 0.094840 -0.126083
C158  C     C_R   0.897247 0.813106 0.619350 -0.175296
C159  C     C_R   0.561212 0.749653 0.621291 0.888790
C160  C     C_R   0.438805 0.250331 0.378841 0.891240
C161  C     C_R   0.438788 0.749652 0.378709 0.888785
C162  C     C_R   0.561195 0.250331 0.621159 0.891232
C163  C     C_R   0.061212 0.249653 0.621291 0.888755
C164  C     C_R   0.938805 0.750331 0.378841 0.891241
C165  C     C_R   0.938788 0.249653 0.378709 0.888761
C166  C     C_R   0.061195 0.750331 0.621159 0.891234
C167  C     C_R   0.234678 0.734636 0.525462 -0.220998
C168  C     C_R   0.812490 0.247376 0.093960 -0.125716
C169  C     C_R   0.764460 0.264423 0.472589 -0.231022
C170  C     C_R   0.765329 0.734630 0.474553 -0.220996
C171  C     C_R   0.235535 0.264427 0.527402 -0.231035
C172  C     C_R   0.734682 0.234639 0.525470 -0.221135
C173  C     C_R   0.264462 0.764424 0.472592 -0.231227
C174  C     C_R   0.265328 0.234631 0.474550 -0.221137
C175  C     C_R   0.735534 0.764428 0.527400 -0.231239
C176  C     C_R   0.195538 0.750072 0.498431 -0.070153
C177  C     C_R   0.803616 0.249091 0.499757 -0.066085
C178  C     C_R   0.804463 0.750071 0.501571 -0.070158
C179  C     C_R   0.215458 0.748227 0.905160 -0.126085
C180  C     C_R   0.196387 0.249089 0.500250 -0.066086
C181  C     C_R   0.695539 0.250072 0.498432 -0.070122
C182  C     C_R   0.303615 0.749090 0.499754 -0.066023
C183  C     C_R   0.304463 0.250071 0.501571 -0.070125
C184  C     C_R   0.696387 0.749088 0.500251 -0.066028
C185  C     C_R   0.210555 0.764997 0.471135 0.036127
C186  C     C_R   0.788201 0.233747 0.526080 0.033509
C187  C     C_R   0.789441 0.765001 0.528857 0.036134
C188  C     C_R   0.211811 0.233736 0.473945 0.033531
C189  C     C_R   0.710554 0.264996 0.471132 0.036081
C190  C     C_R   0.187506 0.247375 0.906040 -0.125718
C191  C     C_R   0.288196 0.733742 0.526069 0.033493
C192  C     C_R   0.289442 0.265000 0.528860 0.036089
C193  C     C_R   0.711812 0.733735 0.473948 0.033507
C194  C     C_R   0.530383 0.917340 0.480516 0.596532
C195  C     C_R   0.475846 0.082746 0.524475 0.597021
C196  C     C_R   0.469616 0.917340 0.519485 0.596534
C197  C     C_R   0.524154 0.082746 0.475526 0.597023
C198  C     C_R   0.029737 0.417340 0.479951 0.596502
C199  C     C_R   0.976500 0.582752 0.524944 0.597040
C200  C     C_R   0.970262 0.417340 0.520049 0.596504
C201  C     C_R   0.784540 0.748229 0.094840 -0.126084
C202  C     C_R   0.023500 0.582752 0.475057 0.597041
C203  C     C_R   0.451391 0.870590 0.474454 -0.170405
C204  C     C_R   0.550018 0.129481 0.521166 -0.170315
C205  C     C_R   0.548608 0.870589 0.525547 -0.170406
C206  C     C_R   0.449983 0.129481 0.478834 -0.170313
C207  C     C_R   0.951158 0.370586 0.475004 -0.170336
C208  C     C_R   0.050099 0.629486 0.520767 -0.170323
C209  C     C_R   0.048841 0.370586 0.524996 -0.170339
C210  C     C_R   0.949901 0.629487 0.479233 -0.170322
C211  C     C_R   0.451123 0.847331 0.474329 0.576182
C212  C     C_R   0.295032 0.731220 0.117330 -0.188768
C213  C     C_R   0.550269 0.152740 0.521283 0.575715
C214  C     C_R   0.548876 0.847331 0.525671 0.576179
C215  C     C_R   0.449731 0.152740 0.478718 0.575716
C216  C     C_R   0.950891 0.347327 0.474883 0.576096
C217  C     C_R   0.050348 0.652746 0.520886 0.575643
C218  C     C_R   0.049108 0.347327 0.525117 0.576093
C219  C     C_R   0.949652 0.652746 0.479115 0.575643
C220  C     C_R   0.499999 0.882273 0.500001 0.091841
C221  C     C_R   0.500000 0.117802 0.500000 0.092945
C222  C     C_R   1.000000 0.382272 0.500000 0.091839
C223  C     C_R   1.000000 0.310656 0.500000 0.887345
C224  C     C_R   0.713211 0.268460 0.882226 -0.191921
C225  C     C_R   0.000000 0.617807 0.500000 0.093132
C226  C     C_R   0.500000 0.952694 0.500001 -0.207269
C227  C     C_R   0.500000 0.047391 0.500001 -0.207103
C228  C     C_R   1.000000 0.452696 0.500000 -0.207268
C229  C     C_R   0.000000 0.547396 0.500000 -0.207099
C230  C     C_R   0.531188 0.940810 0.480179 -0.157752
C231  C     C_R   0.475139 0.059276 0.524916 -0.158251
C232  C     C_R   0.468811 0.940810 0.519822 -0.157753
C233  C     C_R   0.524861 0.059276 0.475085 -0.158252
C234  C     C_R   0.030533 0.440811 0.479603 -0.157786
C235  C     C_R   0.704960 0.731219 0.882670 -0.188768
C236  C     C_R   0.975816 0.559281 0.525403 -0.158307
C237  C     C_R   0.969467 0.440812 0.520397 -0.157787
C238  C     C_R   0.024184 0.559281 0.474597 -0.158308
C239  C     C_R   0.562486 0.952640 0.460823 0.717422
C240  C     C_R   0.450800 0.047445 0.549873 0.718192
C241  C     C_R   0.437514 0.952640 0.539179 0.717424
C242  C     C_R   0.549200 0.047445 0.450128 0.718193
C243  C     C_R   0.061188 0.452641 0.459676 0.717453
C244  C     C_R   0.952158 0.547451 0.550848 0.718217
C245  C     C_R   0.938812 0.452641 0.540324 0.717454
C246  C     C_R   0.286778 0.268458 0.117774 -0.191915
C247  C     C_R   0.047842 0.547451 0.449152 0.718216
C248  C     C_R   0.315870 0.732305 0.164430 0.605614
C249  C     C_R   0.685195 0.268913 0.835242 0.612015
C250  C     C_R   0.684122 0.732305 0.835570 0.605615
C251  C     C_R   0.314794 0.268911 0.164758 0.611997
C252  C     C_R   0.815888 0.232302 0.164430 0.605625
C253  C     C_R   0.185231 0.768908 0.835242 0.611985
C254  C     C_R   0.184114 0.232302 0.835569 0.605621
C255  C     C_R   0.814776 0.768909 0.164758 0.611985
C256  C     C_R   0.500000 0.835351 0.500000 -0.319154
C257  C     C_R   0.795050 0.231217 0.117331 -0.188767
C258  C     C_R   0.500000 0.164696 0.500000 -0.316025
C259  C     C_R   1.000000 0.335349 0.500000 -0.318888
C260  C     C_R   0.000000 0.664700 0.500000 -0.315713
C261  C     C_R   0.026369 0.511890 0.475762 0.011909
C262  C     C_R   0.970917 0.488202 0.522097 0.012280
C263  C     C_R   0.973631 0.511890 0.524238 0.011908
C264  C     C_R   0.029083 0.488202 0.477903 0.012280
C265  C     C_R   0.527052 0.011886 0.476286 0.011901
C266  C     C_R   0.470247 0.988200 0.521542 0.012295
C267  C     C_R   0.472948 0.011886 0.523716 0.011900
C268  C     C_R   0.213248 0.768454 0.882227 -0.191908
C269  C     C_R   0.529752 0.988200 0.478460 0.012295
C270  C     C_R   0.000000 0.523647 0.500000 0.086960
C271  C     C_R   1.000000 0.476445 0.500000 0.086893
C272  C     C_R   0.500000 0.023643 0.500001 0.086975
C273  C     C_R   0.500000 0.976443 0.500001 0.086915
C274  C     C_R   0.048726 0.524295 0.449699 -0.280513
C275  C     C_R   0.939469 0.475798 0.540991 -0.281024
C276  C     C_R   0.951274 0.524295 0.550301 -0.280512
C277  C     C_R   0.060531 0.475797 0.459009 -0.281024
C278  C     C_R   0.550090 0.024289 0.450691 -0.280559
C279  C     C_R   0.204953 0.231217 0.882669 -0.188765
C280  C     C_R   0.438169 0.975796 0.539857 -0.281060
C281  C     C_R   0.449909 0.024289 0.549310 -0.280558
C282  C     C_R   0.561831 0.975796 0.460144 -0.281060
C283  C     C_R   0.369073 0.764779 0.164859 0.619530
C284  C     C_R   0.661843 0.230352 0.834072 0.610541
C285  C     C_R   0.630933 0.764783 0.835140 0.619529
C286  C     C_R   0.338161 0.230352 0.165928 0.610562
C287  C     C_R   0.869043 0.264790 0.164860 0.619510
C288  C     C_R   0.161820 0.730353 0.834072 0.610570
C289  C     C_R   0.130947 0.264787 0.835140 0.619514
C290  C     C_R   0.786759 0.768456 0.117773 -0.191907
C291  C     C_R   0.838170 0.730353 0.165928 0.610573
C292  C     C_R   0.429464 0.744382 0.260583 0.752443
C293  C     C_R   0.577694 0.251056 0.741418 0.762198
C294  C     C_R   0.570533 0.744387 0.739417 0.752493
C295  C     C_R   0.422305 0.251053 0.258581 0.762228
C296  C     C_R   0.929465 0.244393 0.260582 0.752457
C297  C     C_R   0.077698 0.751058 0.741419 0.762206
C298  C     C_R   0.070532 0.244392 0.739417 0.752530
C299  C     C_R   0.922302 0.751055 0.258581 0.762233
C300  C     C_R   0.449620 0.744340 0.307164 -0.263035
C301  C     C_R   0.256748 0.714722 0.092978 0.728665
C302  C     C_R   0.554091 0.251471 0.694703 -0.256529
C303  C     C_R   0.550377 0.744345 0.692835 -0.263022
C304  C     C_R   0.445908 0.251468 0.305296 -0.256563
C305  C     C_R   0.949623 0.244350 0.307164 -0.263043
C306  C     C_R   0.054094 0.751474 0.694704 -0.256518
C307  C     C_R   0.050375 0.244350 0.692835 -0.263015
C308  C     C_R   0.945906 0.751471 0.305296 -0.256554
C309  C     C_R   0.356837 0.753767 0.303598 -0.064080
C310  C     C_R   0.647130 0.251327 0.693332 -0.061938
C311  C     C_R   0.643164 0.753763 0.696401 -0.064072
C312  C     C_R   0.738471 0.287606 0.906890 0.728685
C313  C     C_R   0.352870 0.251330 0.306669 -0.061941
C314  C     C_R   0.856831 0.253758 0.303600 -0.064111
C315  C     C_R   0.147131 0.751326 0.693331 -0.061958
C316  C     C_R   0.143167 0.253759 0.696400 -0.064103
C317  C     C_R   0.852869 0.751329 0.306670 -0.061954
C318  C     C_2   0.315403 0.756756 0.324072 1.001917
C319  C     C_2   0.685776 0.253019 0.669814 0.989763
C320  C     C_2   0.684599 0.756748 0.675927 1.001907
C321  C     C_2   0.314225 0.253025 0.330187 0.989762
C322  C     C_2   0.815397 0.256738 0.324077 1.001763
C323  C     C_R   0.743236 0.714719 0.907022 0.728662
C324  C     C_2   0.185777 0.753016 0.669812 0.989707
C325  C     C_2   0.184602 0.256739 0.675924 1.001767
C326  C     C_2   0.814224 0.753022 0.330189 0.989701
C327  C     C_2   0.505090 0.617289 0.423671 1.024236
C328  C     C_2   0.580831 0.382554 0.475208 1.030498
C329  C     C_2   0.494909 0.617289 0.576327 1.024253
C330  C     C_2   0.419175 0.382555 0.524792 1.030496
C331  C     C_2   0.005121 0.117289 0.423682 1.024246
C332  C     C_2   0.080850 0.882554 0.475231 1.030547
C333  C     C_2   0.994878 0.117288 0.576317 1.024266
C334  C     C_R   0.000000 0.689361 0.500000 0.889172
C335  C     C_R   0.261509 0.287603 0.093110 0.728683
C336  C     C_2   0.919155 0.882555 0.524769 1.030547
C337  C     C_2   0.233943 0.684868 0.970114 0.925972
C338  C     C_2   0.880048 0.292981 0.027109 0.927758
C339  C     C_2   0.766028 0.684868 0.029885 0.925975
C340  C     C_2   0.119929 0.292972 0.972890 0.927762
C341  C     C_2   0.734031 0.184869 0.970116 0.925956
C342  C     C_2   0.380128 0.792945 0.027109 0.927745
C343  C     C_2   0.265991 0.184868 0.029884 0.925956
C344  C     C_2   0.619890 0.792956 0.972890 0.927744
C345  C     C_R   0.756791 0.214712 0.092979 0.728656
C346  C     C_R   0.238539 0.787595 0.906890 0.728673
C347  C     C_R   0.243218 0.214714 0.907021 0.728650
C348  C     C_R   0.761476 0.787599 0.093110 0.728673
C349  C     C_R   0.349680 0.764293 0.117923 -0.027070
C350  C     C_R   0.689123 0.229101 0.880915 -0.025598
C351  C     C_R   0.650326 0.764298 0.882076 -0.027070
C352  C     C_R   0.310881 0.229101 0.119085 -0.025603
C353  C     C_R   0.849648 0.264306 0.117924 -0.027067
C354  C     C_R   0.337521 0.754234 0.256655 -0.218221
C355  C     C_R   0.189100 0.729101 0.880915 -0.025609
C356  C     C_R   0.150341 0.264303 0.882076 -0.027069
C357  C     C_R   0.810890 0.729101 0.119085 -0.025610
C358  C     C_R   0.414146 0.749173 0.329273 -0.180663
C359  C     C_R   0.588139 0.251354 0.670284 -0.178834
C360  C     C_R   0.585853 0.749173 0.670727 -0.180689
C361  C     C_R   0.411861 0.251354 0.329716 -0.178845
C362  C     C_R   0.914146 0.249173 0.329273 -0.180682
C363  C     C_R   0.088141 0.751355 0.670284 -0.178860
C364  C     C_R   0.085853 0.249173 0.670726 -0.180735
C365  C     C_R   0.670112 0.250624 0.740320 -0.225053
C366  C     C_R   0.911860 0.751355 0.329716 -0.178869
C367  C     C_R   0.241301 0.727408 0.975548 0.046285
C368  C     C_R   0.805694 0.264246 0.023156 0.044402
C369  C     C_R   0.758688 0.727409 0.024452 0.046285
C370  C     C_R   0.194295 0.264242 0.976844 0.044403
C371  C     C_R   0.741324 0.227410 0.975549 0.046281
C372  C     C_R   0.305728 0.764232 0.023156 0.044403
C373  C     C_R   0.258680 0.227409 0.024451 0.046281
C374  C     C_R   0.694277 0.764236 0.976844 0.044403
C375  C     C_R   0.273823 0.765980 0.976272 -0.019828
C376  C     C_R   0.662481 0.754231 0.743344 -0.218216
C377  C     C_R   0.758010 0.228795 0.022782 -0.018091
C378  C     C_R   0.726183 0.765984 0.023728 -0.019828
C379  C     C_R   0.241994 0.228794 0.977218 -0.018092
C380  C     C_R   0.773786 0.265992 0.976272 -0.019833
C381  C     C_R   0.257989 0.728794 0.022782 -0.018095
C382  C     C_R   0.226202 0.265989 0.023728 -0.019831
C383  C     C_R   0.742001 0.728794 0.977218 -0.018096
C384  C     C_R   0.243766 0.747160 0.952374 0.086683
C385  C     C_R   0.792305 0.246746 0.046578 0.086768
C386  C     C_R   0.756232 0.747162 0.047626 0.086683
C387  C     C_R   0.329886 0.250626 0.259680 -0.225037
C388  C     C_R   0.207691 0.246744 0.953422 0.086767
C389  C     C_R   0.743759 0.247166 0.952375 0.086681
C390  C     C_R   0.292312 0.746739 0.046578 0.086767
C391  C     C_R   0.256237 0.247164 0.047625 0.086681
C392  C     C_R   0.707686 0.746742 0.953422 0.086767
C393  C     C_R   0.500000 0.689281 0.500000 0.933269
C394  C     C_R   0.500000 0.310687 0.500000 0.955378
C395  C     C_R   1.000000 0.189281 0.500000 0.933251
C396  C     C_R   0.000000 0.810686 0.500000 0.955383
C397  C     C_R   0.220424 0.707553 0.950238 -0.079685
C398  C     C_R   0.837513 0.254227 0.256657 -0.218245
C399  C     C_R   0.848694 0.279553 0.047965 -0.079716
C400  C     C_R   0.779557 0.707553 0.049762 -0.079685
C401  C     C_R   0.151289 0.279547 0.952034 -0.079719
C402  C     C_R   0.720478 0.207553 0.950239 -0.079667
C403  C     C_R   0.348752 0.779530 0.047965 -0.079706
C404  C     C_R   0.279535 0.207553 0.049761 -0.079668
C405  C     C_R   0.651261 0.779537 0.952034 -0.079707
C406  C     C_R   0.192836 0.708895 0.903525 -0.143459
C407  C     C_R   0.868354 0.279877 0.094833 -0.143517
C408  C     C_R   0.807144 0.708895 0.096475 -0.143456
F1    F     F_    0.884428 0.986294 0.391153 -0.575325
F2    F     F_    0.561120 0.284099 0.327621 -0.630391
F3    F     F_    0.579775 0.706591 0.329065 -0.605922
F4    F     F_    0.438897 0.284124 0.672345 -0.630404
F5    F     F_    0.920353 0.206686 0.670994 -0.605997
F6    F     F_    0.061117 0.784109 0.327633 -0.630389
F7    F     F_    0.079770 0.206601 0.329057 -0.605917
F8    F     F_    0.938904 0.784134 0.672333 -0.630406
F9    F     F_    0.597131 0.836708 0.550794 -0.605834
F10   F     F_    0.400149 0.163411 0.458217 -0.607859
F11   F     F_    0.402868 0.836708 0.449207 -0.605828
F12   F     F_    0.148131 0.013576 0.570403 -0.576497
F13   F     F_    0.599851 0.163411 0.541783 -0.607861
F14   F     F_    0.097597 0.336700 0.549653 -0.606141
F15   F     F_    0.900003 0.663423 0.459029 -0.608158
F16   F     F_    0.902403 0.336700 0.450347 -0.606137
F17   F     F_    0.099997 0.663423 0.540972 -0.608159
F18   F     F_    0.594377 0.941991 0.442442 -0.576458
F19   F     F_    0.427610 0.058093 0.575269 -0.575324
F20   F     F_    0.405622 0.941991 0.557559 -0.576457
F21   F     F_    0.572390 0.058093 0.424732 -0.575322
F22   F     F_    0.092448 0.441992 0.440718 -0.576350
F23   F     F_    0.115577 0.986295 0.608846 -0.575326
F24   F     F_    0.929645 0.558099 0.576713 -0.575268
F25   F     F_    0.907551 0.441992 0.559282 -0.576349
F26   F     F_    0.070355 0.558099 0.423288 -0.575266
F27   F     F_    0.236357 0.699510 0.113627 -0.570573
F28   F     F_    0.735027 0.307730 0.886750 -0.571727
F29   F     F_    0.763621 0.699504 0.886372 -0.570576
F30   F     F_    0.264944 0.307727 0.113250 -0.571729
F31   F     F_    0.736423 0.199491 0.113628 -0.570593
F32   F     F_    0.235126 0.807718 0.886751 -0.571743
F33   F     F_    0.263592 0.199496 0.886372 -0.570598
F34   F     F_    0.851873 0.013575 0.429595 -0.576496
F35   F     F_    0.764898 0.807722 0.113249 -0.571744
F36   F     F_    0.044128 0.751069 0.764457 -0.592138
F37   F     F_    0.964439 0.239332 0.240119 -0.588279
F38   F     F_    0.955871 0.751063 0.235543 -0.592116
F39   F     F_    0.035558 0.239330 0.759880 -0.588203
F40   F     F_    0.544123 0.251065 0.764455 -0.592155
F41   F     F_    0.464434 0.739311 0.240121 -0.588277
F42   F     F_    0.455875 0.251059 0.235544 -0.592128
F43   F     F_    0.535560 0.739321 0.759879 -0.588232
F44   F     F_    0.502148 0.664086 0.427044 -0.615994
F45   F     F_    0.384399 0.486295 0.391169 -0.575311
F46   F     F_    0.577262 0.335675 0.478070 -0.632231
F47   F     F_    0.497845 0.664086 0.572953 -0.615995
F48   F     F_    0.422741 0.335677 0.521931 -0.632226
F49   F     F_    0.002177 0.164086 0.427054 -0.615997
F50   F     F_    0.077280 0.835675 0.478092 -0.632239
F51   F     F_    0.997815 0.164085 0.572944 -0.616008
F52   F     F_    0.922723 0.835676 0.521909 -0.632232
F53   F     F_    0.648141 0.513576 0.570374 -0.576571
F54   F     F_    0.615607 0.486295 0.608829 -0.575312
F55   F     F_    0.351864 0.513575 0.429625 -0.576571
F56   F     F_    0.420304 0.706651 0.670973 -0.605974
H1    H     H_    0.363082 0.555787 0.432595 0.232434
H2    H     H_    0.576015 0.325314 0.357537 0.189234
H3    H     H_    0.299661 0.264988 0.382721 0.344566
H4    H     H_    0.788052 0.247367 0.371647 0.346012
H5    H     H_    0.200348 0.764978 0.617281 0.344544
H6    H     H_    0.211950 0.247369 0.628355 0.346013
H7    H     H_    0.799659 0.764985 0.382722 0.344546
H8    H     H_    0.531406 0.590272 0.400318 0.361822
H9    H     H_    0.599163 0.409573 0.446413 0.360729
H10   H     H_    0.468595 0.590271 0.599680 0.361819
H11   H     H_    0.400845 0.409575 0.553588 0.360726
H12   H     H_    0.031450 0.090271 0.400339 0.361838
H13   H     H_    0.571265 0.671040 0.373405 0.214124
H14   H     H_    0.099197 0.909573 0.446446 0.360816
H15   H     H_    0.968552 0.090270 0.599660 0.361835
H16   H     H_    0.900810 0.909574 0.553555 0.360814
H17   H     H_    0.289730 0.664809 0.016052 0.376639
H18   H     H_    0.911111 0.295119 0.979291 0.373953
H19   H     H_    0.710232 0.664813 0.983947 0.376637
H20   H     H_    0.088864 0.295105 0.020709 0.373952
H21   H     H_    0.789849 0.164820 0.016054 0.376626
H22   H     H_    0.411194 0.795067 0.979291 0.373941
H23   H     H_    0.210181 0.164817 0.983946 0.376625
H24   H     H_    0.423957 0.325337 0.642417 0.189228
H25   H     H_    0.588824 0.795082 0.020708 0.373942
H26   H     H_    0.928810 0.171097 0.626731 0.214087
H27   H     H_    0.076022 0.825323 0.357556 0.189232
H28   H     H_    0.071272 0.171044 0.373385 0.214122
H29   H     H_    0.923950 0.825346 0.642397 0.189225
H30   H     H_    0.377269 0.664986 0.545139 0.190935
H31   H     H_    0.645564 0.337332 0.431471 0.228182
H32   H     H_    0.622737 0.664983 0.454963 0.190888
H33   H     H_    0.609372 0.444083 0.599959 0.232512
H34   H     H_    0.354378 0.337345 0.568488 0.228177
H35   H     H_    0.877261 0.164986 0.545199 0.190988
H36   H     H_    0.145578 0.837336 0.431490 0.228184
H37   H     H_    0.122749 0.164981 0.454941 0.190925
H38   H     H_    0.854361 0.837349 0.568469 0.228175
H39   H     H_    0.311953 0.693714 0.498581 0.157545
H40   H     H_    0.706847 0.309561 0.484451 0.175244
H41   H     H_    0.688032 0.693725 0.501490 0.157519
H42   H     H_    0.293106 0.309566 0.515524 0.175233
H43   H     H_    0.811937 0.193707 0.498622 0.157545
H44   H     H_    0.636921 0.555788 0.567403 0.232433
H45   H     H_    0.206859 0.809562 0.484464 0.175164
H46   H     H_    0.188039 0.193722 0.501476 0.157507
H47   H     H_    0.793092 0.809566 0.515513 0.175152
H48   H     H_    0.349154 0.734836 0.615830 0.179346
H49   H     H_    0.629918 0.257368 0.388407 0.161218
H50   H     H_    0.650902 0.734793 0.384178 0.179381
H51   H     H_    0.370104 0.257384 0.611578 0.161197
H52   H     H_    0.849192 0.234863 0.615834 0.179342
H53   H     H_    0.129913 0.757374 0.388411 0.161237
H54   H     H_    0.150893 0.234802 0.384178 0.179394
H55   H     H_    0.390636 0.444083 0.400039 0.232511
H56   H     H_    0.870112 0.757390 0.611574 0.161215
H57   H     H_    0.223537 0.722922 0.546040 0.198597
H58   H     H_    0.775632 0.276092 0.451945 0.193915
H59   H     H_    0.776476 0.722912 0.453985 0.198597
H60   H     H_    0.224357 0.276101 0.548035 0.193918
H61   H     H_    0.723543 0.222928 0.546053 0.198552
H62   H     H_    0.275635 0.776095 0.451952 0.193805
H63   H     H_    0.276473 0.222915 0.453979 0.198550
H64   H     H_    0.724355 0.776103 0.548031 0.193809
H65   H     H_    0.293923 0.757634 0.236437 0.207512
H66   H     H_    0.863091 0.055787 0.432568 0.232479
H67   H     H_    0.715021 0.250590 0.758702 0.207491
H68   H     H_    0.706079 0.757628 0.763562 0.207515
H69   H     H_    0.284977 0.250594 0.241300 0.207501
H70   H     H_    0.793911 0.257620 0.236440 0.207518
H71   H     H_    0.215024 0.750586 0.758700 0.207502
H72   H     H_    0.206086 0.257620 0.763561 0.207522
H73   H     H_    0.784975 0.750592 0.241301 0.207504
H74   H     H_    0.586288 0.879608 0.545429 0.199616
H75   H     H_    0.411199 0.120461 0.462403 0.198907
H76   H     H_    0.413710 0.879608 0.454573 0.199618
H77   H     H_    0.109344 0.944083 0.599976 0.232501
H78   H     H_    0.588801 0.120461 0.537597 0.198906
H79   H     H_    0.086706 0.379604 0.544447 0.199612
H80   H     H_    0.911055 0.620466 0.463118 0.198775
H81   H     H_    0.913293 0.379604 0.455553 0.199614
H82   H     H_    0.088946 0.620466 0.536883 0.198774
H83   H     H_    0.066213 0.516577 0.428209 0.192661
H84   H     H_    0.913486 0.483515 0.555778 0.192330
H85   H     H_    0.933787 0.516577 0.571791 0.192661
H86   H     H_    0.086514 0.483514 0.444222 0.192330
H87   H     H_    0.568135 0.016570 0.429580 0.192683
H88   H     H_    0.136911 0.055788 0.567430 0.232478
H89   H     H_    0.411687 0.983515 0.554173 0.192299
H90   H     H_    0.431864 0.016570 0.570421 0.192682
H91   H     H_    0.588312 0.983515 0.445828 0.192299
H92   H     H_    0.009052 0.751346 0.677438 0.218895
H93   H     H_    0.993422 0.240716 0.326084 0.216726
H94   H     H_    0.990947 0.751340 0.322562 0.218897
H95   H     H_    0.006577 0.240716 0.673915 0.216829
H96   H     H_    0.509050 0.251342 0.677436 0.218881
H97   H     H_    0.493415 0.740700 0.326085 0.216741
H98   H     H_    0.490949 0.251336 0.322563 0.218886
H99   H     H_    0.890662 0.944083 0.400024 0.232501
H100  H     H_    0.506580 0.740708 0.673914 0.216795
H101  H     H_    0.176269 0.693798 0.884537 0.225495
H102  H     H_    0.900277 0.291838 0.113484 0.226307
H103  H     H_    0.823706 0.693797 0.115463 0.225496
H104  H     H_    0.099701 0.291830 0.886516 0.226309
H105  H     H_    0.676345 0.193794 0.884538 0.225481
H106  H     H_    0.400352 0.791809 0.113484 0.226300
H107  H     H_    0.323674 0.193794 0.115462 0.225483
H108  H     H_    0.599666 0.791818 0.886516 0.226300
H109  H     H_    0.206477 0.701551 0.029349 0.185278
H110  H     H_    0.428787 0.671077 0.626681 0.214093
H111  H     H_    0.783726 0.301784 0.970665 0.184227
H112  H     H_    0.793501 0.701547 0.970650 0.185279
H113  H     H_    0.216248 0.301779 0.029335 0.184226
H114  H     H_    0.706540 0.201536 0.029350 0.185272
H115  H     H_    0.283818 0.801768 0.970665 0.184221
H116  H     H_    0.293475 0.201539 0.970650 0.185272
H117  H     H_    0.716203 0.801773 0.029335 0.184221
H118  H     H_    0.288039 0.747391 0.371634 0.346031
H119  H     H_    0.700346 0.264981 0.617283 0.344563
H120  H     H_    0.711956 0.747381 0.628362 0.346030
N1    N     N_R   0.352150 0.748894 0.187056 -0.346182
N2    N     N_R   0.500004 0.406375 0.500000 -0.302189
N3    N     N_R   0.000000 0.093495 0.499999 -0.301019
N4    N     N_R   0.000003 0.906375 0.500000 -0.302200
N5    N     N_R   0.499999 0.906207 0.500001 -0.346728
N6    N     N_R   0.500000 0.093873 0.500000 -0.347003
N7    N     N_R   1.000000 0.406207 0.500000 -0.346724
N8    N     N_R   0.000000 0.593879 0.500000 -0.347066
N9    N     N_R   0.660671 0.250000 0.812338 -0.344109
N10   N     N_R   0.647849 0.748896 0.812943 -0.346182
N11   N     N_R   0.339326 0.249999 0.187661 -0.344110
N12   N     N_R   0.852144 0.248897 0.187057 -0.346182
N13   N     N_R   0.160676 0.749999 0.812339 -0.344109
N14   N     N_R   0.147852 0.248896 0.812943 -0.346181
N15   N     N_R   0.839322 0.749999 0.187661 -0.344110
N16   N     N_R   0.500000 0.593495 0.499999 -0.301002
O1    O     O_3   0.500000 0.749990 0.500000 -0.529236
O2    O     O_2   0.077444 0.906032 0.569091 -0.519652
O3    O     O_R   0.829623 0.765103 0.370136 -0.799407
O4    O     O_2   0.484349 0.625521 0.386213 -0.515119
O5    O     O_R   0.532268 0.596693 0.429471 -0.810818
O6    O     O_2   0.626713 0.374306 0.483221 -0.551509
O7    O     O_R   0.567455 0.403161 0.453349 -0.806288
O8    O     O_2   0.515649 0.625520 0.613786 -0.515136
O9    O     O_R   0.467732 0.596693 0.570527 -0.810816
O10   O     O_2   0.373291 0.374308 0.516777 -0.551539
O11   O     O_R   0.432554 0.403162 0.546653 -0.806286
O12   O     O_2   0.984392 0.125520 0.386223 -0.515132
O13   O     O_2   0.095111 0.093838 0.548248 -0.524287
O14   O     O_R   0.032300 0.096693 0.429488 -0.810770
O15   O     O_2   0.126735 0.874305 0.483254 -0.551394
O16   O     O_R   0.067481 0.903161 0.453372 -0.806262
O17   O     O_2   0.015607 0.125520 0.613775 -0.515158
O18   O     O_R   0.967701 0.096692 0.570510 -0.810767
O19   O     O_2   0.873269 0.874308 0.516744 -0.551426
O20   O     O_R   0.932526 0.903161 0.546629 -0.806261
O21   O     O_2   0.200962 0.669511 0.954713 -0.564618
O22   O     O_R   0.285284 0.680896 0.005562 -0.758080
O23   O     O_2   0.899466 0.311137 0.042827 -0.568954
O24   O     O_2   0.922562 0.906032 0.430909 -0.519656
O25   O     O_R   0.888976 0.284517 0.990327 -0.761569
O26   O     O_2   0.799002 0.669509 0.045286 -0.564618
O27   O     O_R   0.714685 0.680900 0.994437 -0.758081
O28   O     O_2   0.100502 0.311126 0.957172 -0.568957
O29   O     O_R   0.111005 0.284505 0.009673 -0.761569
O30   O     O_2   0.701074 0.169505 0.954715 -0.564674
O31   O     O_R   0.785378 0.180907 0.005564 -0.758085
O32   O     O_2   0.399576 0.811097 0.042828 -0.568998
O33   O     O_R   0.389041 0.784473 0.990327 -0.761572
O34   O     O_2   0.298955 0.169506 0.045285 -0.564671
O35   O     O_2   0.559236 0.905641 0.461218 -0.438324
O36   O     O_R   0.214646 0.180904 0.994436 -0.758087
O37   O     O_2   0.600450 0.811109 0.957171 -0.568994
O38   O     O_R   0.610973 0.784486 0.009672 -0.761573
O39   O     O_2   0.452959 0.094452 0.548466 -0.437844
O40   O     O_2   0.440763 0.905641 0.538784 -0.438321
O41   O     O_2   0.547041 0.094452 0.451535 -0.437843
O42   O     O_2   0.057956 0.405642 0.460107 -0.438256
O43   O     O_2   0.954238 0.594459 0.549377 -0.437696
O44   O     O_2   0.942044 0.405642 0.539893 -0.438254
O45   O     O_3   0.500000 0.250010 0.500000 -0.530200
O46   O     O_2   0.045762 0.594459 0.450624 -0.437694
O47   O     O_R   0.456550 0.799940 0.473830 -0.582160
O48   O     O_R   0.543450 0.200060 0.526170 -0.584780
O49   O     O_R   0.543450 0.799940 0.526170 -0.582160
O50   O     O_R   0.456550 0.200060 0.473830 -0.584779
O51   O     O_R   0.956550 0.299940 0.473830 -0.582309
O52   O     O_R   0.043450 0.700060 0.526170 -0.584990
O53   O     O_R   0.043450 0.299940 0.526170 -0.582308
O54   O     O_R   0.956550 0.700060 0.473830 -0.584990
O55   O     O_R   0.517270 0.700050 0.473810 -0.590524
O56   O     O_3   1.000000 0.249990 0.500000 -0.529221
O57   O     O_R   0.482730 0.299950 0.526190 -0.590938
O58   O     O_R   0.482730 0.700050 0.526190 -0.590515
O59   O     O_R   0.517270 0.299950 0.473810 -0.590938
O60   O     O_R   0.017270 0.200050 0.473810 -0.590515
O61   O     O_R   0.982730 0.799950 0.526190 -0.590956
O62   O     O_R   0.982730 0.200050 0.526190 -0.590507
O63   O     O_R   0.017270 0.799950 0.473810 -0.590956
O64   O     O_R   0.628900 0.763090 0.526200 -0.626346
O65   O     O_R   0.371100 0.236910 0.473800 -0.625388
O66   O     O_R   0.371100 0.763090 0.473800 -0.626345
O67   O     O_3   1.000000 0.750010 0.500000 -0.530176
O68   O     O_R   0.628900 0.236910 0.526200 -0.625391
O69   O     O_R   0.128900 0.263090 0.526200 -0.626128
O70   O     O_R   0.871100 0.736910 0.473800 -0.625278
O71   O     O_R   0.871100 0.263090 0.473800 -0.626125
O72   O     O_R   0.128900 0.736910 0.526200 -0.625281
O73   O     O_R   0.397280 0.736900 0.526180 -0.646942
O74   O     O_R   0.602720 0.263100 0.473820 -0.639178
O75   O     O_R   0.602720 0.736900 0.473820 -0.646933
O76   O     O_R   0.397280 0.263100 0.526180 -0.639189
O77   O     O_R   0.897280 0.236900 0.526180 -0.646967
O78   O     O_2   0.404883 0.593838 0.451770 -0.524344
O79   O     O_R   0.102720 0.763100 0.473820 -0.639194
O80   O     O_R   0.102720 0.236900 0.473820 -0.646954
O81   O     O_R   0.897280 0.763100 0.526180 -0.639205
O82   O     O_R   0.580290 0.763090 0.599890 -0.612873
O83   O     O_R   0.419710 0.236910 0.400110 -0.614587
O84   O     O_R   0.419710 0.763090 0.400110 -0.612878
O85   O     O_R   0.580290 0.236910 0.599890 -0.614593
O86   O     O_R   0.080290 0.263090 0.599890 -0.613145
O87   O     O_R   0.919710 0.736910 0.400110 -0.614756
O88   O     O_R   0.919710 0.263090 0.400110 -0.613153
O89   O     O_2   0.577463 0.406032 0.569079 -0.519661
O90   O     O_R   0.080290 0.736910 0.599890 -0.614764
O91   O     O_R   0.519560 0.736900 0.599880 -0.632207
O92   O     O_R   0.480440 0.263100 0.400120 -0.634776
O93   O     O_R   0.480440 0.736900 0.400120 -0.632191
O94   O     O_R   0.519560 0.263100 0.599880 -0.634760
O95   O     O_R   0.019560 0.236900 0.599880 -0.632172
O96   O     O_R   0.980440 0.763100 0.400120 -0.634751
O97   O     O_R   0.980440 0.236900 0.400120 -0.632139
O98   O     O_R   0.019560 0.763100 0.599880 -0.634733
O99   O     O_2   0.300634 0.716818 0.187598 -0.429719
O100  O     O_2   0.595118 0.593839 0.548229 -0.524357
O101  O     O_2   0.682593 0.287992 0.812444 -0.428634
O102  O     O_2   0.699351 0.716816 0.812402 -0.429726
O103  O     O_2   0.317389 0.287989 0.187555 -0.428648
O104  O     O_2   0.800675 0.216808 0.187599 -0.429718
O105  O     O_2   0.182655 0.787985 0.812446 -0.428652
O106  O     O_2   0.199333 0.216810 0.812401 -0.429732
O107  O     O_2   0.817359 0.787987 0.187554 -0.428657
O108  O     O_2   0.137219 0.712030 0.810318 -0.505130
O109  O     O_2   0.904320 0.281075 0.188179 -0.503143
O110  O     O_2   0.862763 0.712029 0.189682 -0.505125
O111  O     O_2   0.422545 0.406032 0.430920 -0.519665
O112  O     O_2   0.095665 0.281070 0.811821 -0.503137
O113  O     O_2   0.637270 0.212025 0.810318 -0.505164
O114  O     O_2   0.404373 0.781057 0.188178 -0.503138
O115  O     O_2   0.362742 0.212026 0.189682 -0.505150
O116  O     O_2   0.595640 0.781063 0.811821 -0.503136
O117  O     O_2   0.276914 0.769973 0.307607 -0.582881
O118  O     O_R   0.318820 0.743840 0.360951 -0.788384
O119  O     O_2   0.731992 0.244368 0.686152 -0.582632
O120  O     O_R   0.670381 0.265100 0.629868 -0.799407
O121  O     O_2   0.723096 0.769962 0.692394 -0.582886
O122  O     O_2   0.904891 0.093838 0.451751 -0.524270
O123  O     O_R   0.681174 0.743833 0.639045 -0.788402
O124  O     O_2   0.268006 0.244377 0.313849 -0.582623
O125  O     O_R   0.329626 0.265105 0.370135 -0.799414
O126  O     O_2   0.776888 0.269947 0.307608 -0.583006
O127  O     O_R   0.818835 0.243823 0.360963 -0.788377
O128  O     O_2   0.231990 0.744363 0.686148 -0.582683
O129  O     O_R   0.170384 0.765098 0.629867 -0.799399
O130  O     O_2   0.223109 0.269948 0.692393 -0.583009
O131  O     O_R   0.181166 0.243824 0.639039 -0.788388
O132  O     O_2   0.768007 0.744373 0.313852 -0.582678
Zn1   Zn    Zn3+2 0.524680 0.731290 0.462590 1.026933
Zn2   Zn    Zn3+2 0.437910 0.231300 0.462580 1.048207
Zn3   Zn    Zn3+2 0.437910 0.768700 0.462580 1.047441
Zn4   Zn    Zn3+2 0.562090 0.231300 0.537420 1.048204
Zn5   Zn    Zn3+2 0.062090 0.268700 0.537420 1.047416
Zn6   Zn    Zn3+2 0.937910 0.731300 0.462580 1.048192
Zn7   Zn    Zn3+2 0.937910 0.268700 0.462580 1.047425
Zn8   Zn    Zn3+2 0.062090 0.731300 0.537420 1.048188
Zn9   Zn    Zn3+2 0.475320 0.268710 0.537410 1.038158
Zn10  Zn    Zn3+2 0.475320 0.731290 0.537410 1.026921
Zn11  Zn    Zn3+2 0.524680 0.268710 0.462590 1.038151
Zn12  Zn    Zn3+2 0.024680 0.231290 0.462590 1.026978
Zn13  Zn    Zn3+2 0.975320 0.768710 0.537410 1.038192
Zn14  Zn    Zn3+2 0.975320 0.231290 0.537410 1.026952
Zn15  Zn    Zn3+2 0.024680 0.768710 0.462590 1.038185
Zn16  Zn    Zn3+2 0.562090 0.768700 0.537420 1.047434

loop_
_geom_bond_atom_site_label_1
_geom_bond_atom_site_label_2
_ccdc_geom_bond_type
C317  C326  S    
C144  F4    S    
C313  C361  A    
C289  N14   A    
O67   Zn6   S    
C344  O37   D    
C159  O82   A    
C129  C185  S    
C17   N16   A    
C262  C275  A    
C32   C45   A    
C194  C230  A    
C30   C45   A    
C143  F3    S    
H4    O127  S    
C111  H37   S    
C1    O49   A    
C205  C220  A    
C61   H1    S    
C142  F2    S    
O79   Zn15  S    
C197  N6    A    
C195  N6    A    
C5    H106  S    
C170  C178  A    
C57   C376  A    
C371  C377  A    
C218  C259  A    
C202  O46   S    
C215  C258  A    
C199  N8    A    
H3    O125  S    
C224  C312  A    
C16   C348  A    
C255  C290  A    
C87   C91   A    
C52   C61   A    
C339  C400  S    
C206  H75   S    
C54   C63   A    
O67   Zn13  S    
C206  C221  A    
C199  O43   S    
C184  C193  A    
C87   C94   A    
C322  O127  S    
C21   O122  S    
C62   H33   S    
C197  O41   S    
O66   Zn3   S    
C2    C90   A    
C200  C237  A    
C377  C385  A    
C131  C140  A    
C323  F29   S    
C262  C271  A    
C298  F39   S    
C263  C270  A    
C108  C153  A    
C36   F48   S    
C299  F38   S    
C238  C247  A    
C26   C43   A    
C14   H115  S    
C106  C151  A    
C25   C60   A    
H7    O3    S    
O1    Zn10  S    
C150  H110  S    
C147  C155  A    
C117  C126  A    
O74   Zn11  S    
C316  C364  A    
C124  C390  A    
C101  N14   S    
C119  C128  A    
C337  C397  S    
C324  O129  S    
C88   C95   A    
O77   Zn14  S    
C183  C192  A    
C249  O101  S    
C276  H85   S    
C112  O48   A    
C80   C394  S    
C278  H87   S    
C6    H107  S    
C17   C52   A    
C149  F8    S    
C15   C347  A    
H19   O27   S    
C227  C233  A    
C295  F42   S    
C115  C123  A    
C222  N7    S    
C158  H29   S    
C232  C241  A    
C71   C183  S    
C8    C381  A    
C61   C104  A    
C127  C136  A    
C65   C99   A    
C76   C177  S    
C36   C80   A    
C166  C363  S    
C285  C351  A    
C300  C358  A    
C342  O32   D    
O82   Zn16  S    
C396  O61   A    
C177  C186  A    
C310  C365  A    
C142  C151  A    
C168  C257  A    
C20   O111  S    
C164  O96   A    
C151  H2    S    
C39   F51   S    
C51   C92   A    
C73   C181  S    
C267  C272  A    
C314  C398  A    
H10   O9    S    
C288  O108  S    
C311  C320  S    
C201  C357  A    
H16   O20   S    
C237  C245  A    
C31   C336  S    
C10   C323  A    
C101  C298  A    
C86   C99   A    
C336  O19   D    
C204  H78   S    
C294  C303  A    
C365  H67   S    
C35   C292  A    
H119  O120  S    
C315  C363  A    
C173  C182  A    
C19   N16   A    
C264  C271  A    
C29   C44   A    
C198  C234  A    
C343  O36   S    
C33   C47   A    
C4    C350  A    
C109  H35   S    
C161  C358  S    
C9    C380  A    
C167  C191  A    
C124  C349  A    
C268  C346  A    
C208  C217  A    
C254  O106  S    
C194  O35   S    
C35   N1    S    
C321  O124  D    
C211  F11   S    
C9    H111  S    
C30   C333  S    
C370  C388  A    
C34   F47   S    
C313  C387  A    
C275  H84   S    
C116  H40   S    
C338  C399  S    
C291  C357  A    
C67   H88   S    
C22   C58   A    
C170  C193  A    
C88   C102  A    
C250  N10   A    
C162  O94   A    
C369  C383  A    
C249  N9    A    
C77   O79   A    
C27   C330  S    
O47   Zn3   S    
C37   C78   A    
C21   N3    A    
C357  C408  A    
C372  C375  A    
C253  O105  S    
C100  F45   S    
C229  C236  A    
C304  H98   S    
O65   Zn2   S    
C49   C55   A    
C223  C259  S    
C280  H89   S    
C126  C193  S    
C12   H114  S    
C332  O15   D    
C226  C232  A    
C221  N6    S    
C207  C216  A    
C171  C192  A    
C246  C335  A    
C115  H39   S    
C84   C93   A    
C161  O93   A    
O45   Zn9   S    
C325  O130  D    
C28   C327  S    
C48   C52   A    
C83   C86   A    
C88   C89   A    
C126  C134  A    
C136  C144  A    
C2    H71   S    
C57   N10   S    
C319  O119  D    
C152  H13   S    
O85   Zn4   S    
C378  C386  A    
C216  F16   S    
C131  C187  S    
C157  C352  A    
C227  C231  A    
C167  H57   S    
C247  F26   S    
C213  C258  A    
C33   C332  S    
C96   F1    S    
C169  C189  A    
C211  C256  A    
C134  H50   S    
C70   O75   A    
C243  C277  A    
C171  H60   S    
C218  F14   S    
C165  O88   A    
C23   C59   A    
C396  O63   A    
C173  C185  A    
C133  C142  A    
C73   O74   A    
O81   Zn13  S    
C380  C389  A    
C164  O87   A    
C43   N16   S    
O51   Zn7   S    
C354  H65   S    
C265  C272  A    
C337  O21   D    
C47   N4    S    
C368  C380  A    
C205  H74   S    
C49   C53   A    
C265  C278  A    
C310  C319  S    
C15   H116  S    
C266  C273  A    
C41   F49   S    
C10   C383  A    
C190  C388  A    
C89   C94   A    
C294  F43   S    
C81   C395  S    
C292  F41   S    
C286  C352  A    
H20   O29   S    
C59   C67   A    
C170  H59   S    
C172  C181  A    
C314  C322  S    
C160  O92   A    
C196  C232  A    
C307  C364  A    
C251  N11   A    
C29   C38   A    
C343  O34   D    
C32   C41   A    
C174  H63   S    
C327  O5    S    
C226  C273  A    
O71   Zn7   S    
C368  C385  A    
C71   O76   A    
C149  C158  A    
C395  O62   A    
C18   C53   A    
C1    C256  S    
C298  C307  A    
C338  O23   D    
C333  O17   D    
C134  C143  A    
C89   C103  A    
C408  H103  S    
C164  C366  S    
C248  N1    A    
C203  C211  A    
C230  C239  A    
C114  H38   S    
C181  C189  A    
C63   C102  A    
C179  C384  A    
C169  C177  A    
C157  C391  A    
C85   C92   A    
C141  C150  A    
C290  C348  A    
C246  C251  A    
C66   H77   S    
C225  N8    S    
C353  C407  A    
C324  O128  D    
C102  F53   S    
C317  C366  A    
C139  C148  A    
C72   O66   A    
C343  C404  S    
C113  N15   S    
C214  C256  A    
C120  C129  A    
C110  H36   S    
C310  C359  A    
C195  C231  A    
C341  C402  S    
C46   C365  A    
C108  H34   S    
C197  C233  A    
C121  C130  A    
C261  C274  A    
C226  C230  A    
C318  O118  S    
C99   F34   S    
C50   C56   A    
C210  C219  A    
O73   Zn10  S    
C231  C240  A    
C314  C362  A    
C4    H105  S    
O45   Zn11  S    
C260  C334  S    
C24   C317  A    
C86   C93   A    
C315  C324  S    
C40   C82   A    
C309  C318  S    
C304  C361  A    
C103  F54   S    
O63   Zn15  S    
C264  C277  A    
C64   H55   S    
C217  F17   S    
C121  H46   S    
O91   Zn10  S    
C44   N2    S    
C146  C351  A    
O68   Zn4   S    
C15   C379  A    
C145  C154  A    
C75   O70   A    
C70   C184  S    
C46   C293  A    
C77   C176  S    
C195  O39   S    
C116  C125  A    
C381  C390  A    
O56   Zn5   S    
C105  C150  A    
C118  C127  A    
C284  O113  S    
C212  C301  A    
H21   O31   S    
C374  C378  A    
C7    H108  S    
C19   C54   A    
C87   C100  A    
C157  C246  A    
C132  C141  A    
C341  O31   S    
O97   Zn12  S    
O70   Zn6   S    
C8    C301  A    
C344  O38   S    
C303  C360  A    
C74   O69   A    
C7    C405  A    
C328  O7    S    
C291  N15   A    
C3    C356  A    
C105  C115  A    
C327  O4    D    
C159  O91   A    
C212  C248  A    
C202  C238  A    
C261  C264  A    
C105  H30   S    
C305  C362  A    
C255  O107  S    
C406  H101  S    
C302  C359  A    
C8    H109  S    
C335  F30   S    
O56   Zn14  S    
H6    O131  S    
C289  C356  A    
C66   C98   A    
C305  H93   S    
C373  C379  A    
C306  C363  A    
C28   C37   A    
C190  C356  A    
C83   C96   A    
C73   O68   A    
C30   C39   A    
C160  C361  S    
C395  O60   A    
C240  F19   S    
C301  F27   S    
C77   O72   A    
C175  C187  A    
C37   F44   S    
C12   C345  A    
C252  O104  S    
C11   C382  A    
C113  C299  A    
C118  H42   S    
C244  C276  A    
H5    O129  S    
H8    O5    S    
C168  C353  A    
C31   C47   A    
C51   C60   A    
C235  C250  A    
C140  C149  A    
C326  O132  D    
C206  C215  A    
C68   C387  A    
O92   Zn11  S    
C201  C290  A    
C209  C222  A    
C379  C388  A    
C6    C404  A    
C344  C405  S    
C122  C131  A    
C223  O51   A    
C162  C359  S    
C138  H53   S    
C22   N4    A    
C394  O59   A    
C4    C402  A    
C159  C360  S    
C398  H70   S    
C348  F35   S    
C176  C185  A    
C340  C401  S    
C284  N9    A    
C146  C392  A    
H17   O22   S    
C371  C402  A    
C11   C335  A    
C203  C220  A    
C128  C186  S    
C84   C97   A    
C345  F31   S    
O1    Zn16  S    
C137  C145  A    
C245  F25   S    
C241  F20   S    
C6    C352  A    
C17   O78   S    
C19   O100  S    
C79   N12   S    
C123  C132  A    
H120  O123  S    
C244  F24   S    
C296  C305  A    
C71   O65   A    
C68   C295  A    
C31   C40   A    
C302  H96   S    
C284  C350  A    
C137  H52   S    
C50   C59   A    
C265  C269  A    
C114  C158  A    
C16   C378  A    
C57   C294  A    
C180  C188  A    
C342  C403  S    
H11   O11   S    
C65   H66   S    
C146  C235  A    
O59   Zn11  S    
C338  O25   S    
C242  C278  A    
C367  C381  A    
C5    C349  A    
O56   Zn7   S    
C376  H68   S    
O60   Zn12  S    
C155  H27   S    
C7    C351  A    
C336  O20   S    
O69   Zn5   S    
O98   Zn13  S    
C375  C384  A    
C69   C96   A    
C141  F56   S    
C18   N2    A    
C166  O98   A    
C241  C280  A    
C253  N13   A    
C136  H51   S    
C130  C139  A    
C331  O12   D    
C252  C257  A    
O54   Zn6   S    
O75   Zn1   S    
C253  C268  A    
C239  C282  A    
C369  C386  A    
C277  H86   S    
O93   Zn1   S    
C70   O64   A    
C84   C85   A    
C331  O14   S    
C190  C279  A    
C23   N3    A    
C9    C312  A    
C132  H48   S    
C163  C364  S    
C252  N12   A    
O62   Zn14  S    
C175  H64   S    
C165  O97   A    
O72   Zn8   S    
C106  C116  A    
O76   Zn9   S    
C332  O16   S    
C374  C405  A    
O96   Zn15  S    
O55   Zn1   S    
C209  H79   S    
C204  C221  A    
C79   C296  A    
C372  C403  A    
C46   N9    S    
C210  H80   S    
C229  C270  A    
C308  C366  A    
C309  C358  A    
C239  F18   S    
C41   C81   A    
C32   C331  S    
C235  C323  A    
O45   Zn2   S    
C320  O123  S    
C13   C316  A    
C24   H73   S    
O49   Zn16  S    
C286  O115  S    
C217  C260  A    
C308  H94   S    
C169  H58   S    
C262  C263  A    
C178  C187  A    
C143  C152  A    
C250  O102  S    
C334  O54   A    
C173  H62   S    
C269  C282  A    
C292  C300  A    
C79   C398  A    
H118  O118  S    
C182  C191  A    
C33   C42   A    
C394  O57   A    
C123  C191  S    
C373  C391  A    
C215  F10   S    
C374  C392  A    
C109  C119  A    
C312  F28   S    
C286  N11   A    
C120  H45   S    
C14   C346  A    
H18   O25   S    
C82   C396  S    
C220  N5    S    
C203  H76   S    
O56   Zn12  S    
C10   H112  S    
C16   H117  S    
C370  C401  A    
C340  O29   S    
C174  C183  A    
H9    O7    S    
C21   C56   A    
C369  C400  A    
C153  H24   S    
O64   Zn16  S    
C27   C36   A    
C124  C212  A    
C28   C43   A    
C383  C392  A    
C269  C273  A    
C45   N3    S    
C328  O6    D    
C29   C328  S    
C63   H44   S    
C228  C237  A    
C400  C408  A    
O84   Zn3   S    
C199  C236  A    
C339  O26   D    
C255  N15   A    
C311  C360  A    
C135  C389  A    
C243  F22   S    
C393  O55   A    
C320  O121  D    
C382  C391  A    
C67   C97   A    
O95   Zn14  S    
C393  O58   A    
C64   C100  A    
C293  F40   S    
C372  C390  A    
C13   H72   S    
C122  H47   S    
C135  C350  A    
O50   Zn2   S    
C148  C156  A    
C289  O112  S    
C229  C238  A    
C1    O47   A    
C163  O86   A    
C107  C117  A    
C163  O95   A    
C34   C78   A    
C11   H113  S    
C175  C184  A    
C322  O126  D    
C76   O71   A    
C321  O125  S    
C48   C95   A    
C119  H43   S    
C111  C121  A    
C145  F5    S    
C196  O40   S    
C42   C82   A    
C291  O110  S    
C287  O109  S    
C91   C104  A    
C97   F12   S    
C154  H26   S    
C342  O33   S    
C74   O80   A    
C165  C362  S    
C162  O85   A    
C202  N8    A    
C69   H99   S    
C48   C54   A    
C135  C224  A    
C208  H82   S    
O87   Zn6   S    
C373  C404  A    
C5    C403  A    
C209  C218  A    
C60   C69   A    
C368  C399  A    
O86   Zn5   S    
C3    C401  A    
C106  H31   S    
O1    Zn1   S    
C130  C188  S    
C299  C308  A    
C42   F50   S    
O83   Zn2   S    
O80   Zn12  S    
C267  C281  A    
C56   C65   A    
C283  O114  S    
C78   C393  S    
O45   Zn4   S    
C254  C279  A    
C219  F15   S    
C144  C153  A    
C75   C178  S    
C257  C345  A    
C85   C98   A    
C25   O24   S    
C174  C188  A    
C325  O131  S    
C161  O84   A    
C26   C34   A    
C90   N13   S    
C129  C138  A    
C18   O89   S    
C172  C186  A    
C334  O52   A    
C75   O81   A    
C306  H92   S    
C303  H100  S    
C110  C155  A    
H12   O14   S    
C49   C94   A    
C111  C156  A    
C228  C234  A    
C234  C243  A    
C112  C258  S    
C347  F33   S    
C213  F13   S    
C24   C113  A    
C214  F9    S    
C98   F23   S    
C200  N7    A    
H25   O38   S    
C156  H28   S    
C20   C55   A    
C288  N13   A    
C27   C44   A    
C58   C66   A    
C397  C406  A    
C311  C376  A    
O53   Zn5   S    
C341  O30   D    
C355  C406  A    
O67   Zn8   S    
O52   Zn8   S    
C296  F37   S    
H14   O16   S    
C112  O50   A    
C198  O42   S    
C337  O22   S    
C39   C81   A    
C14   C375  A    
C140  H56   S    
C139  H54   S    
C110  C120  A    
C196  N5    A    
C51   C58   A    
C194  N5    A    
C201  C386  A    
C172  H61   S    
C371  C389  A    
C329  O8    D    
C266  C280  A    
C198  N7    A    
C283  N1    A    
C147  F6    S    
C91   C95   A    
C204  C213  A    
O61   Zn13  S    
C297  F36   S    
C300  H97   S    
C281  H90   S    
C128  C137  A    
C109  C154  A    
C208  C225  A    
H22   O33   S    
C53   C62   A    
C227  C272  A    
O94   Zn9   S    
C326  O3    S    
O48   Zn4   S    
O67   Zn15  S    
C138  C147  A    
C72   O73   A    
C55   C64   A    
C22   O2    S    
C20   N2    A    
C76   O77   A    
C330  O10   D    
C288  C355  A    
C247  C274  A    
C329  O9    S    
C108  C118  A    
C261  C270  A    
C330  O11   S    
C224  C249  A    
C207  C222  A    
C166  O90   A    
C107  C152  A    
C90   C297  A    
C333  O18   S    
C346  F32   S    
C263  C276  A    
C240  C281  A    
C179  C355  A    
C210  C225  A    
C171  C180  A    
H23   O36   S    
C13   C101  A    
C297  C306  A    
C26   C329  S    
C107  H32   S    
C62   C103  A    
O58   Zn10  S    
C104  F55   S    
C125  C133  A    
C319  O120  S    
O88   Zn7   S    
O57   Zn9   S    
C254  N14   A    
C2    C315  A    
C68   N11   S    
O90   Zn8   S    
C12   C377  A    
C40   F52   S    
C313  C321  S    
C228  C271  A    
C205  C214  A    
C168  C385  A    
C38   F46   S    
C50   C93   A    
C200  O44   S    
C219  C260  A    
H15   O18   S    
C309  C354  A    
C35   C354  A    
C274  H83   S    
C318  O117  D    
C127  C192  S    
C216  C259  A    
C245  C275  A    
C25   N4    A    
C236  C244  A    
C133  H49   S    
C72   C182  S    
C340  O28   D    
C285  O116  S    
C179  C268  A    
C307  H95   S    
C23   O13   S    
C38   C80   A    
C316  C325  S    
C207  H81   S    
C370  C382  A    
C399  C407  A    
C160  O83   A    
C282  H91   S    
C223  O53   A    
C279  C347  A    
C287  C353  A    
C387  H69   S    
C283  C349  A    
C266  C267  A    
C367  C397  A    
C251  O103  S    
C114  C122  A    
C248  O99   S    
C339  O27   S    
C285  N10   A    
C74   C180  S    
C407  H102  S    
C83   C92   A    
O1    Zn3   S    
C233  C242  A    
C367  C384  A    
C117  H41   S    
C295  C304  A    
C125  C189  S    
C3    H104  S    
C293  C302  A    
C242  F21   S    
C287  N12   A    
C167  C176  A    
C148  F7    S    
