data_mof_unit_43558.cif
_audit_creation_date              2013-03-05T16:04:21-0500
_audit_creation_method            fapswitch 2.2
_symmetry_space_group_name_H-M    P1
_symmetry_Int_Tables_number       1
_space_group_crystal_system       triclinic
_cell_length_a                    18.302211
_cell_length_b                    18.378354
_cell_length_c                    18.306563
_cell_angle_alpha                 119.996438
_cell_angle_beta                  60.069687
_cell_angle_gamma                 120.242917
_cell_volume                      4348.47891449

loop_
_atom_site_label
_atom_site_type_symbol
_atom_site_description
_atom_site_fract_x
_atom_site_fract_y
_atom_site_fract_z
_atom_type_partial_charge
Zn1   Zn    Zn3+2 0.206570 0.293400 0.880180 0.976771
Zn2   Zn    Zn3+2 0.793430 0.706600 0.119820 0.994041
Zn3   Zn    Zn3+2 0.380110 0.293420 0.706660 1.033409
Zn4   Zn    Zn3+2 0.619890 0.706580 0.293340 1.036193
Zn5   Zn    Zn3+2 0.206560 0.293420 0.706670 1.015544
Zn6   Zn    Zn3+2 0.793440 0.706580 0.293330 1.028913
Zn7   Zn    Zn3+2 0.206610 0.119900 0.706640 1.020604
Zn8   Zn    Zn3+2 0.793390 0.880100 0.293360 0.991707
O1    O     O_3   0.249960 0.250040 0.750040 -0.513077
O2    O     O_3   0.750040 0.749960 0.249960 -0.516333
O3    O     O_R   0.305100 0.073510 0.634200 -0.593737
O4    O     O_R   0.694900 0.926490 0.365800 -0.611404
O5    O     O_R   0.134110 0.365830 0.926590 -0.665243
O6    O     O_R   0.865890 0.634170 0.073410 -0.653605
O7    O     O_R   0.426490 0.365840 0.805130 -0.596890
O8    O     O_R   0.573510 0.634160 0.194870 -0.596448
O9    O     O_R   0.134150 0.194970 0.634230 -0.595376
O10   O     O_R   0.865850 0.805030 0.365770 -0.608824
O11   O     O_R   0.426480 0.365860 0.634240 -0.620738
O12   O     O_R   0.573520 0.634140 0.365760 -0.638601
O13   O     O_R   0.134190 0.073490 0.805100 -0.634006
O14   O     O_R   0.865810 0.926510 0.194900 -0.672646
O15   O     O_R   0.305020 0.365860 0.634250 -0.645065
O16   O     O_R   0.694980 0.634140 0.365750 -0.635090
O17   O     O_R   0.134160 0.194930 0.926560 -0.648691
O18   O     O_R   0.865840 0.805070 0.073440 -0.636232
O19   O     O_R   0.305030 0.365830 0.926580 -0.658722
O20   O     O_R   0.694970 0.634170 0.073420 -0.649847
O21   O     O_R   0.134180 0.073510 0.634210 -0.663691
O22   O     O_R   0.865820 0.926490 0.365790 -0.640487
O23   O     O_R   0.426530 0.194970 0.634210 -0.643866
O24   O     O_R   0.573470 0.805030 0.365790 -0.608645
O25   O     O_R   0.134110 0.365840 0.805150 -0.608197
O26   O     O_R   0.865890 0.634160 0.194850 -0.591741
C1    C     C_R   0.390338 0.110030 0.609715 0.953509
C2    C     C_R   0.609703 0.890094 0.387439 0.926351
C3    C     C_R   0.110659 0.390994 0.890010 0.826225
C4    C     C_R   0.889266 0.608845 0.110041 0.847858
C5    C     C_R   0.390049 0.388544 0.890072 0.896795
C6    C     C_R   0.609904 0.611631 0.110028 0.895392
C7    C     C_R   0.111611 0.110055 0.608388 0.864892
C8    C     C_R   0.888572 0.889953 0.391455 0.879715
C9    C     C_R   0.390274 0.391045 0.610738 0.869992
C10   C     C_R   0.609625 0.609115 0.389318 0.880971
C11   C     C_R   0.111569 0.110255 0.890301 0.846311
C12   C     C_R   0.889460 0.889691 0.109475 0.823679
H1    H     H_    0.257579 0.410877 0.194347 0.210090
H2    H     H_    0.804994 0.560095 0.802619 0.202519
C13   C     C_R   0.257034 0.280165 0.096398 0.218179
C14   C     C_R   0.789864 0.688657 0.864350 0.233067
C15   C     C_R   0.203530 0.195792 0.052871 0.248277
C16   C     C_R   0.827710 0.780848 0.908544 0.252128
C17   C     C_R   0.110921 0.177890 0.077872 -0.087604
C18   C     C_R   0.914050 0.813955 0.913326 -0.116674
C19   C     C_R   0.073312 0.244337 0.143463 -0.256691
C20   C     C_R   0.960443 0.755508 0.877216 -0.207842
H3    H     H_    0.002308 0.230535 0.163419 0.166166
H4    H     H_    0.025770 0.781124 0.883221 0.177738
C21   C     C_R   0.126823 0.329227 0.182487 0.486149
C22   C     C_R   0.922689 0.663993 0.837108 0.511403
C23   C     C_R   0.217952 0.346372 0.159891 -0.356617
C24   C     C_R   0.836489 0.630831 0.831820 -0.372410
C25   C     C_R   0.993944 0.033949 0.089489 -0.231004
C26   C     C_R   0.010777 0.965231 0.909164 -0.166311
H5    H     H_    0.989457 0.060323 0.158907 0.175501
H6    H     H_    0.016473 0.938219 0.839310 0.176724
C27   C     C_R   0.946068 0.944656 0.052036 -0.060163
C28   C     C_R   0.057710 0.054690 0.946891 -0.053356
C29   C     C_R   0.956203 0.909301 0.960083 0.104819
C30   C     C_R   0.051914 0.088796 0.037349 0.101593
C31   C     C_R   0.048269 0.496322 0.910759 0.496882
C32   C     C_R   0.950512 0.503022 0.090631 0.493307
C33   C     C_R   0.991605 0.546256 0.965173 -0.368374
C34   C     C_R   0.008263 0.453058 0.035281 -0.402996
H7    H     H_    0.986305 0.582784 0.937480 0.228053
H8    H     H_    0.016923 0.417889 0.061630 0.171534
C35   C     C_R   0.944351 0.551603 0.054791 -0.145723
C36   C     C_R   0.055234 0.447765 0.945714 -0.149268
C37   C     C_R   0.069436 0.078393 0.482413 0.338270
C38   C     C_R   0.930635 0.921799 0.517616 0.335682
C39   C     C_R   0.010877 0.024601 0.433386 -0.291169
C40   C     C_R   0.989563 0.975348 0.566262 -0.287192
H9    H     H_    0.020683 0.041980 0.379820 0.203667
H10   H     H_    0.979770 0.958129 0.619928 0.211559
C41   C     C_R   0.942853 0.946349 0.449487 -0.177255
C42   C     C_R   0.057515 0.053616 0.550210 -0.180524
C43   C     C_R   0.539811 0.092598 0.533949 0.311135
C44   C     C_R   0.459982 0.907758 0.456660 0.321602
C45   C     C_R   0.593731 0.040482 0.467512 0.361329
C46   C     C_R   0.409015 0.963892 0.501910 0.293705
C47   C     C_R   0.553699 0.946579 0.437356 -0.324537
C48   C     C_R   0.446883 0.054440 0.548761 -0.332543
C49   C     C_R   0.418489 0.435510 0.490640 -0.368862
C50   C     C_R   0.580120 0.568156 0.512305 -0.397798
H11   H     H_    0.357107 0.382126 0.480681 0.210694
H12   H     H_    0.641925 0.621778 0.519640 0.205367
C51   C     C_R   0.470190 0.488530 0.435914 0.492649
C52   C     C_R   0.528407 0.514988 0.567751 0.502930
C53   C     C_R   0.552468 0.553566 0.446014 -0.146789
C54   C     C_R   0.446798 0.448670 0.555905 -0.145436
C55   C     C_R   0.419482 0.510607 0.024388 -0.267761
C56   C     C_R   0.579739 0.489071 0.976628 -0.188739
H13   H     H_    0.358345 0.520211 0.041459 0.180229
H14   H     H_    0.640728 0.479414 0.959922 0.182031
C57   C     C_R   0.473252 0.569121 0.078204 0.365781
C58   C     C_R   0.525830 0.430268 0.922991 0.406356
C59   C     C_R   0.553814 0.557303 0.053914 -0.144203
C60   C     C_R   0.445830 0.442748 0.946570 -0.150726
O27   O     O_3   0.572800 0.169379 0.598343 -0.560117
C61   C     C_3   0.625524 0.244226 0.568848 0.239213
H15   H     H_    0.594378 0.296856 0.615960 0.195001
H16   H     H_    0.628374 0.231655 0.501513 0.051621
C62   C     C_3   0.719773 0.280784 0.573482 -0.311615
H17   H     H_    0.714680 0.292873 0.641329 0.284125
H18   H     H_    0.754839 0.231666 0.526083 0.254379
C63   C     C_3   0.776160 0.367737 0.552661 -1.015210
H19   H     H_    0.775593 0.359758 0.488641 0.267510
H20   H     H_    0.846572 0.387348 0.546429 0.273302
H21   H     H_    0.749556 0.421488 0.607969 0.301163
O28   O     O_3   0.420098 0.816125 0.421595 -0.578125
C64   C     C_3   0.357578 0.778598 0.490624 0.164034
H22   H     H_    0.298176 0.727987 0.469689 0.166773
H23   H     H_    0.332585 0.827197 0.556456 0.153527
C65   C     C_3   0.398417 0.732306 0.503073 -0.329108
H24   H     H_    0.423767 0.683984 0.437838 0.260175
H25   H     H_    0.455602 0.782940 0.527715 0.223485
C66   C     C_3   0.329700 0.682808 0.569803 -1.015392
H26   H     H_    0.303698 0.730040 0.635771 0.286316
H27   H     H_    0.361853 0.650993 0.577985 0.271374
H28   H     H_    0.272935 0.630000 0.545439 0.260634
O29   O     O_3   0.685406 0.081042 0.433913 -0.597591
C67   C     C_3   0.705051 0.111042 0.365748 0.035024
H29   H     H_    0.746633 0.182881 0.382323 0.163672
H30   H     H_    0.644902 0.105453 0.358761 0.105173
C68   C     C_3   0.759828 0.061235 0.275365 -0.269645
H31   H     H_    0.820611 0.068263 0.281546 0.249992
H32   H     H_    0.719121 0.989379 0.254681 0.233293
C69   C     C_3   0.788470 0.098409 0.203305 -0.927652
H33   H     H_    0.728723 0.091998 0.195738 0.281635
H34   H     H_    0.827279 0.060419 0.138374 0.290759
H35   H     H_    0.831229 0.169845 0.220920 0.248628
O30   O     O_3   0.319467 0.927925 0.508816 -0.610210
C70   C     C_3   0.311801 0.907571 0.426846 0.139053
H36   H     H_    0.247504 0.851980 0.422769 0.171878
H37   H     H_    0.365511 0.883392 0.366837 0.175323
C71   C     C_3   0.309449 0.988324 0.424062 -0.397286
H38   H     H_    0.256295 0.012212 0.484353 0.259147
H39   H     H_    0.374873 0.043269 0.423880 0.197124
C72   C     C_3   0.290451 0.964615 0.341146 -0.870376
H40   H     H_    0.343108 0.941015 0.279683 0.272907
H41   H     H_    0.290007 0.024607 0.340762 0.295817
H42   H     H_    0.223973 0.911638 0.341289 0.260814
O31   O     O_3   0.447288 0.470313 0.365181 -0.614622
C73   C     C_3   0.360597 0.472992 0.394455 0.071352
H43   H     H_    0.367694 0.524424 0.373988 0.182977
H44   H     H_    0.326537 0.491956 0.468354 0.124898
C74   C     C_3   0.301402 0.382804 0.348329 -0.298652
H45   H     H_    0.332776 0.367111 0.274762 0.271261
H46   H     H_    0.295546 0.329541 0.365366 0.265587
C75   C     C_3   0.207898 0.383624 0.376634 -0.852694
H47   H     H_    0.173663 0.395089 0.449498 0.269785
H48   H     H_    0.167496 0.318301 0.340011 0.292662
H49   H     H_    0.212099 0.437023 0.360996 0.255595
O32   O     O_3   0.550050 0.527211 0.637381 -0.638553
C76   C     C_3   0.641680 0.572322 0.630253 0.178008
H50   H     H_    0.646916 0.579800 0.691607 0.238027
H51   H     H_    0.665663 0.641748 0.631889 0.173254
C77   C     C_3   0.701265 0.518348 0.550229 -0.447910
H52   H     H_    0.675518 0.451276 0.555024 0.236396
H53   H     H_    0.699253 0.508856 0.486479 0.228442
C78   C     C_3   0.798582 0.565438 0.547732 -0.874143
H54   H     H_    0.826015 0.630471 0.538065 0.310677
H55   H     H_    0.839450 0.523677 0.491033 0.258206
H56   H     H_    0.803758 0.576943 0.610865 0.275906
N1    N     N_R   0.447002 0.641643 0.154416 0.220722
O33   O     O_R   0.362558 0.630882 0.199935 -0.426776
O34   O     O_R   0.505717 0.721599 0.170719 -0.353322
N2    N     N_R   0.551626 0.356992 0.847749 0.222394
O35   O     O_R   0.636021 0.365391 0.806491 -0.418681
O36   O     O_R   0.491921 0.277955 0.829949 -0.310162
N3    N     N_R   0.348976 0.297900 0.080894 0.226030
O37   O     O_R   0.401454 0.379489 0.107302 -0.433746
O38   O     O_R   0.376909 0.233054 0.053452 -0.291170
N4    N     N_R   0.705845 0.653302 0.849943 0.216404
O39   O     O_R   0.677151 0.704743 0.849085 -0.333291
O40   O     O_R   0.664351 0.567516 0.824296 -0.432399
N5    N     N_R   0.242993 0.129284 0.982605 0.225610
O41   O     O_R   0.210012 0.049210 0.985992 -0.374916
O42   O     O_R   0.309490 0.147537 0.912781 -0.329102
N6    N     N_R   0.776578 0.839212 0.953852 0.234240
O43   O     O_R   0.810056 0.914118 0.939439 -0.380910
O44   O     O_R   0.698623 0.820363 0.014455 -0.333379
O45   O     O_3   0.087323 0.392335 0.249416 -0.642383
C79   C     C_3   0.112631 0.459667 0.216648 0.077989
H57   H     H_    0.090560 0.430540 0.157978 0.136510
H58   H     H_    0.186595 0.494183 0.196815 0.178364
C80   C     C_3   0.067742 0.528667 0.290356 -0.333724
H59   H     H_    0.993774 0.495565 0.311128 0.223924
H60   H     H_    0.088991 0.557814 0.349369 0.235120
C81   C     C_3   0.092763 0.603586 0.258975 -0.886636
H61   H     H_    0.166174 0.639892 0.241407 0.276969
H62   H     H_    0.057680 0.651476 0.313326 0.273044
H63   H     H_    0.072625 0.576110 0.199698 0.279488
O46   O     O_3   0.969446 0.610467 0.813432 -0.657030
C82   C     C_3   0.959313 0.533256 0.737402 0.063720
H64   H     H_    0.027222 0.528638 0.694379 0.176899
H65   H     H_    0.933914 0.535625 0.694809 0.121999
C83   C     C_3   0.901047 0.450035 0.765966 -0.316087
H66   H     H_    0.925924 0.452020 0.811437 0.259517
H67   H     H_    0.830707 0.448768 0.802882 0.235263
C84   C     C_3   0.903344 0.364492 0.685758 -0.862476
H68   H     H_    0.879400 0.360607 0.638605 0.258917
H69   H     H_    0.859094 0.305723 0.708749 0.280095
H70   H     H_    0.972617 0.362314 0.650553 0.274434
O47   O     O_3   0.094503 0.493790 0.822770 -0.621270
C85   C     C_3   0.182528 0.556565 0.814525 0.113509
H71   H     H_    0.228311 0.526247 0.749842 0.177425
H72   H     H_    0.207729 0.573205 0.867380 0.105412
C86   C     C_3   0.188265 0.641852 0.812964 -0.367679
H73   H     H_    0.168947 0.625160 0.756244 0.243485
H74   H     H_    0.141252 0.672220 0.876023 0.235060
C87   C     C_3   0.282866 0.709989 0.803002 -0.898920
H75   H     H_    0.302094 0.729927 0.860860 0.277306
H76   H     H_    0.285410 0.770396 0.800533 0.281067
H77   H     H_    0.331651 0.681518 0.740460 0.263123
O48   O     O_3   0.904486 0.510997 0.180721 -0.618315
C88   C     C_3   0.867533 0.428896 0.195413 0.070581
H78   H     H_    0.920253 0.415115 0.195101 0.143116
H79   H     H_    0.836510 0.372642 0.144051 0.145758
C89   C     C_3   0.795322 0.435597 0.287437 -0.285363
H80   H     H_    0.824633 0.493561 0.338902 0.236240
H81   H     H_    0.740033 0.446616 0.289064 0.232544
C90   C     C_3   0.757689 0.350872 0.309564 -1.007105
H82   H     H_    0.728897 0.291734 0.258403 0.280499
H83   H     H_    0.703926 0.356594 0.375641 0.263592
H84   H     H_    0.811308 0.341001 0.312246 0.265398
N7    N     N_R   0.142179 0.155071 0.459973 0.217360
O49   O     O_R   0.131502 0.200139 0.431479 -0.415274
O50   O     O_R   0.222324 0.172187 0.455257 -0.434832
N8    N     N_R   0.856753 0.846214 0.541398 0.219404
O51   O     O_R   0.865184 0.803301 0.574149 -0.416197
O52   O     O_R   0.777302 0.829337 0.544539 -0.404611

loop_
_geom_bond_atom_site_label_1
_geom_bond_atom_site_label_2
_geom_bond_distance
_ccdc_geom_bond_type
C70   C71   1.532703 S    
C79   H58   1.114253 S    
C78   H54   1.109162 S    
C25   H5    1.084763 S    
C76   H50   1.108798 S    
Zn7   O21   1.930668 S    
C83   H67   1.109934 S    
C19   C21   1.395759 A    
C68   C69   1.527113 S    
O10   C8    1.279635 A    
Zn2   O20   1.929075 S    
C69   H33   1.110794 S    
C85   C86   1.531251 S    
C89   H81   1.111847 S    
N2    O35   1.300906 A    
C68   H31   1.110546 S    
N1    O34   1.301547 A    
N3    O37   1.300909 A    
C21   O45   1.381607 S    
Zn7   O3    1.940874 S    
C7    C42   1.450380 S    
C78   H55   1.110367 S    
C74   H45   1.110596 S    
C34   H8    1.080182 S    
O24   C2    1.280341 A    
O32   C76   1.416349 S    
C85   H72   1.117994 S    
C71   H38   1.109763 S    
C72   H41   1.110221 S    
N4    O40   1.300927 A    
C10   C53   1.453982 S    
C31   O47   1.384695 S    
C77   H53   1.107540 S    
C88   H79   1.115700 S    
C79   C80   1.528427 S    
C86   H74   1.110325 S    
C50   C52   1.407939 A    
O17   C11   1.275202 A    
C70   H36   1.111077 S    
C31   C33   1.386994 A    
O15   C9    1.278933 A    
C63   H19   1.110821 S    
C89   C90   1.528065 S    
C22   C24   1.412320 A    
C80   H60   1.111779 S    
C33   C35   1.399182 A    
C61   H15   1.111331 S    
C64   C65   1.529342 S    
C32   C35   1.414673 A    
C39   H9    1.084251 S    
H2    C24   1.079735 S    
C22   O46   1.392634 S    
C77   C78   1.526106 S    
C84   H68   1.107539 S    
O11   C9    1.277118 A    
C81   H61   1.110919 S    
C13   C15   1.418423 A    
Zn5   O25   1.942411 S    
C14   C16   1.418256 A    
C44   C47   1.410823 A    
Zn3   O11   1.937586 S    
C51   O31   1.389701 S    
C45   C47   1.413228 A    
C90   H82   1.110797 S    
O13   C11   1.282327 A    
Zn3   O23   1.944009 S    
C62   C63   1.522931 S    
O21   C7    1.279440 A    
C1    C48   1.460380 S    
C55   C60   1.400407 A    
C17   C19   1.400954 A    
C79   H57   1.115124 S    
C73   H44   1.116288 S    
C76   H51   1.110097 S    
C32   O48   1.395488 S    
C43   C48   1.409414 A    
Zn1   O17   1.936464 S    
C33   H7    1.082630 S    
C44   O28   1.388999 S    
C80   H59   1.111489 S    
C17   C30   1.483689 S    
O12   C10   1.273963 A    
C16   C18   1.411100 A    
C71   H39   1.111244 S    
N3    O38   1.301092 A    
C55   C57   1.391978 A    
C5    C60   1.450293 S    
Zn6   O10   1.930759 S    
C78   H56   1.110933 S    
C25   C27   1.398899 A    
C21   C23   1.401664 A    
O9    C7    1.279635 A    
C13   C23   1.405733 A    
C75   H49   1.110825 S    
C67   C68   1.528200 S    
Zn1   O1    1.947504 S    
C85   H71   1.111403 S    
C81   H62   1.110432 S    
C73   C74   1.529253 S    
C32   C34   1.402048 A    
C63   H20   1.109133 S    
C51   C53   1.405075 A    
C72   H42   1.111029 S    
O19   C5    1.276347 A    
C86   H73   1.111687 S    
C37   C39   1.391746 A    
C83   H66   1.110261 S    
C87   H77   1.110561 S    
C40   C42   1.399310 A    
Zn8   O14   1.935861 S    
O25   C3    1.275819 A    
Zn6   O26   1.942413 S    
C27   C29   1.416480 A    
C26   H6    1.084882 S    
Zn4   O8    1.931692 S    
C80   C81   1.526043 S    
C87   H76   1.110298 S    
O47   C85   1.417192 S    
C66   H27   1.110304 S    
N6    O43   1.300925 A    
Zn5   O1    1.948608 S    
C38   C41   1.411321 A    
Zn3   O1    1.942351 S    
O6    C4    1.283868 A    
C71   C72   1.525629 S    
C57   C59   1.410923 A    
C46   C48   1.410494 A    
C88   H78   1.111048 S    
Zn5   O15   1.934299 S    
C25   C30   1.388146 A    
Zn8   O4    1.940873 S    
Zn6   O16   1.934298 S    
C88   C89   1.527937 S    
C11   C28   1.453448 S    
N8    O52   1.301559 A    
C73   H43   1.110228 S    
C56   C59   1.398165 A    
Zn2   O18   1.936463 S    
C8    C41   1.450791 S    
C16   N6    1.435713 S    
C26   C29   1.384876 A    
C9    C54   1.456883 S    
Zn5   O9    1.930757 S    
C50   H12   1.079385 S    
C90   H83   1.109870 S    
C49   C54   1.398925 A    
O7    C5    1.278120 A    
C64   H22   1.111167 S    
C46   O30   1.387256 S    
C69   H34   1.110007 S    
O8    C6    1.276656 A    
C6    C59   1.449249 S    
C13   N3    1.442865 S    
C2    C47   1.466959 S    
C67   H30   1.119049 S    
C77   H52   1.109522 S    
O14   C12   1.285424 A    
C44   C46   1.401598 A    
O48   C88   1.415191 S    
C76   C77   1.536816 S    
C40   H10   1.084183 S    
N7    O50   1.301526 A    
C57   N1    1.438952 S    
O16   C10   1.280701 A    
C68   H32   1.110342 S    
O23   C1    1.277346 A    
O4    C2    1.278137 A    
C37   N7    1.438854 S    
Zn4   O2    1.942349 S    
C66   H26   1.110326 S    
Zn2   O2    1.947506 S    
C26   C28   1.397119 A    
C49   C51   1.396391 A    
Zn3   O7    1.931694 S    
O28   C64   1.419662 S    
C65   H25   1.111372 S    
C62   H17   1.109115 S    
C55   H13   1.084293 S    
C82   C83   1.533010 S    
C70   H37   1.115754 S    
C82   H64   1.111241 S    
N6    O44   1.301278 A    
C84   H69   1.110343 S    
O26   C4    1.274891 A    
O5    C3    1.281772 A    
Zn8   O2    1.949017 S    
C14   N4    1.443344 S    
C69   H35   1.110678 S    
H1    C23   1.082586 S    
N2    O36   1.301292 A    
C18   C20   1.400148 A    
C43   O27   1.390730 S    
C4    C35   1.460505 S    
N5    O42   1.301049 A    
C65   C66   1.525484 S    
C74   C75   1.526648 S    
C3    C36   1.458608 S    
C52   C54   1.410175 A    
C45   O29   1.384876 S    
C63   H21   1.109306 S    
C81   H63   1.110002 S    
Zn8   O22   1.930672 S    
C52   O32   1.400050 S    
C38   N8    1.439706 S    
C19   H3    1.083241 S    
C66   H28   1.110895 S    
N5    O41   1.301133 A    
N1    O33   1.301480 A    
Zn7   O13   1.935866 S    
C72   H40   1.110827 S    
C75   H47   1.110940 S    
C86   C87   1.525894 S    
C49   H11   1.083115 S    
C18   C29   1.481840 S    
C58   C60   1.411175 A    
C50   C53   1.396993 A    
C56   H14   1.084281 S    
C83   C84   1.525196 S    
C14   C24   1.409215 A    
N7    O49   1.301202 A    
O3    C1    1.278048 A    
N8    O51   1.301158 A    
C38   C40   1.392015 A    
C20   H4    1.084274 S    
C82   H65   1.114451 S    
C67   H29   1.110002 S    
C31   C36   1.410350 A    
C89   H80   1.111481 S    
Zn2   O6    1.943095 S    
C90   H84   1.111166 S    
C61   H16   1.113015 S    
C64   H23   1.115589 S    
C15   N5    1.435418 S    
Zn6   O2    1.948607 S    
O18   C12   1.273668 A    
Zn4   O24   1.944012 S    
Zn4   O12   1.937586 S    
Zn7   O1    1.949017 S    
Zn1   O5    1.943096 S    
C12   C27   1.456084 S    
C84   H70   1.111007 S    
C20   C22   1.395050 A    
O46   C82   1.415227 S    
C74   H46   1.110493 S    
O45   C79   1.411830 S    
C34   C36   1.398265 A    
C56   C58   1.391815 A    
C61   C62   1.534828 S    
Zn1   O19   1.929072 S    
C43   C45   1.400050 A    
O20   C6    1.277250 A    
O30   C70   1.416814 S    
O22   C8    1.279623 A    
N4    O39   1.301168 A    
C15   C17   1.416076 A    
O31   C73   1.418057 S    
O27   C61   1.414386 S    
C28   C30   1.414286 A    
C87   H75   1.110829 S    
C58   N2    1.438932 S    
C37   C42   1.410721 A    
C39   C41   1.399714 A    
O29   C67   1.425109 S    
C75   H48   1.110499 S    
C65   H24   1.109873 S    
C62   H18   1.106509 S    
