data_mof_unit_45539.cif
_audit_creation_date              2012-12-10T18:00:20-0500
_audit_creation_method            fapswitch 2.2
_symmetry_space_group_name_H-M    P1
_symmetry_Int_Tables_number       1
_space_group_crystal_system       triclinic
_cell_length_a                    10.830002
_cell_length_b                    9.689128
_cell_length_c                    10.621998
_cell_angle_alpha                 90.276739
_cell_angle_beta                  94.976696
_cell_angle_gamma                 89.997452
_cell_volume                      1110.38603923

loop_
_atom_site_label
_atom_site_type_symbol
_atom_type_description
_atom_site_fract_x
_atom_site_fract_y
_atom_site_fract_z
_atom_type_partial_charge
C1    C     C_R   0.871589 0.500001 0.500375 -0.012115
C2    C     C_R   0.128411 0.499999 0.499625 -0.012115
C3    C     C_R   0.262523 0.499999 0.499540 0.765246
C4    C     C_R   0.737477 0.500001 0.500459 0.765246
C5    C     C_R   0.499499 0.499623 0.259644 0.767595
C6    C     C_R   0.500501 0.500377 0.740356 0.767595
C7    C     C_3   0.398888 0.566581 0.033306 -0.180556
C8    C     C_3   0.601112 0.433419 0.966694 -0.180556
C9    C     C_3   0.501709 0.631417 0.960325 -0.134279
C10   C     C_3   0.498291 0.368582 0.039675 -0.134279
C11   C     C_3   0.397481 0.436456 0.948251 -0.161057
C12   C     C_3   0.602519 0.563544 0.051748 -0.161057
C13   C     C_3   0.500302 0.501168 0.877520 0.029801
C14   C     C_3   0.499698 0.498832 0.122480 0.029800
C15   C     C_R   0.419428 0.073713 0.417249 0.235725
C16   C     C_R   0.580572 0.926287 0.582751 0.235725
C17   C     C_R   0.580602 0.074532 0.582750 0.241642
C18   C     C_R   0.419398 0.925468 0.417249 0.241642
C19   C     C_R   0.063953 0.374626 0.500483 -0.193912
C20   C     C_R   0.936047 0.625374 0.499517 -0.193912
C21   C     C_R   0.936176 0.374628 0.500873 -0.192464
C22   C     C_R   0.063824 0.625372 0.499127 -0.192464
Cu1   Cu    Cu3+1 0.500000 0.640660 0.500000 0.924944
Cu2   Cu    Cu3+1 0.500000 0.359340 0.500000 0.924944
H1    H     H_    0.313615 0.384564 0.902786 0.130384
H2    H     H_    0.686385 0.615436 0.097213 0.130384
H3    H     H_    0.316230 0.621018 0.063755 0.124135
H4    H     H_    0.683770 0.378982 0.936245 0.124135
H5    H     H_    0.503145 0.739165 0.925381 0.137561
H6    H     H_    0.496855 0.260835 0.074619 0.137561
H7    H     H_    0.111919 0.276516 0.500967 0.153406
H8    H     H_    0.888081 0.723484 0.499033 0.153406
H9    H     H_    0.888315 0.276518 0.501497 0.153451
H10   H     H_    0.111685 0.723482 0.498502 0.153451
N1    N     N_R   0.500000 0.852070 0.500000 -0.191112
N2    N     N_R   0.500000 0.147930 0.500000 -0.191112
O1    O     O_R   0.319640 0.618740 0.499990 -0.588699
O2    O     O_R   0.680360 0.381260 0.500010 -0.588699
O3    O     O_R   0.680360 0.618740 0.500010 -0.589242
O4    O     O_R   0.319640 0.381260 0.499990 -0.589242
O5    O     O_R   0.499970 0.618770 0.316850 -0.581592
O6    O     O_R   0.500030 0.381230 0.683150 -0.581592
O7    O     O_R   0.500030 0.618770 0.683150 -0.587098
O8    O     O_R   0.499970 0.381230 0.316850 -0.587097
C23   C     C_3   0.327385 0.144928 0.322723 -0.787205
H11   H     H_    0.327560 0.256601 0.323341 0.274678
H12   H     H_    0.345544 0.115280 0.225024 0.194023
H13   H     H_    0.231372 0.115806 0.340346 0.192377
C24   C     C_3   0.672615 0.855072 0.677277 -0.787205
H14   H     H_    0.672440 0.743398 0.676659 0.274678
H15   H     H_    0.768627 0.884194 0.659654 0.192377
H16   H     H_    0.654456 0.884720 0.774976 0.194023
C25   C     C_3   0.672580 0.146575 0.677516 -0.786103
H17   H     H_    0.673458 0.258233 0.676325 0.272213
H18   H     H_    0.653456 0.118804 0.775160 0.197922
H19   H     H_    0.768572 0.116245 0.660813 0.190329
C26   C     C_3   0.327420 0.853425 0.322484 -0.786103
H20   H     H_    0.326542 0.741767 0.323675 0.272213
H21   H     H_    0.231428 0.883755 0.339187 0.190329
H22   H     H_    0.346544 0.881196 0.224840 0.197922

loop_
_geom_bond_atom_site_label_1
_geom_bond_atom_site_label_2
_ccdc_geom_bond_type
C2    C22   A    
C15   C18   A    
Cu2   O2    S    
Cu1   Cu2   S    
C1    C21   A    
C8    C13   S    
C17   N2    A    
Cu1   O1    S    
C20   C22   A    
Cu2   O6    S    
C18   N1    A    
C10   H6    S    
C18   C26   S    
Cu1   O5    S    
C4    O3    A    
C9    H5    S    
C8    C12   S    
C24   H16   S    
C19   H7    S    
C1    C4    S    
C23   H12   S    
C2    C3    S    
C26   H20   S    
C7    H3    S    
C22   H10   S    
C25   H17   S    
C6    C13   S    
C7    C11   S    
C11   C13   S    
C5    C14   S    
Cu2   N2    S    
Cu1   O3    S    
C19   C21   A    
C5    O8    A    
C12   C14   S    
C3    O4    A    
Cu1   N1    S    
C6    O7    A    
C25   H18   S    
C16   N1    A    
C20   H8    S    
Cu2   O8    S    
C9    C12   S    
C26   H21   S    
C21   H9    S    
C10   C11   S    
C15   C23   S    
C11   H1    S    
C17   C25   S    
C15   N2    A    
C26   H22   S    
Cu1   O7    S    
C16   C24   S    
C3    O1    A    
C8    H4    S    
C8    C10   S    
C24   H14   S    
C10   C14   S    
C25   H19   S    
C7    C9    S    
C5    O5    A    
C1    C20   A    
C9    C13   S    
C23   H13   S    
Cu2   O4    S    
C2    C19   A    
C4    O2    A    
C6    O6    A    
C7    C14   S    
C12   H2    S    
C16   C17   A    
C24   H15   S    
C23   H11   S    
