data_mof_unit_24703.cif
_audit_creation_date              2012-12-11T15:42:57-0500
_audit_creation_method            fapswitch 2.2
_symmetry_space_group_name_H-M    P1
_symmetry_Int_Tables_number       1
_space_group_crystal_system       triclinic
_cell_length_a                    18.989548
_cell_length_b                    10.952746
_cell_length_c                    18.745986
_cell_angle_alpha                 89.886686
_cell_angle_beta                  89.607702
_cell_angle_gamma                 90.131015
_cell_volume                      3898.82510559

loop_
_atom_site_label
_atom_site_type_symbol
_atom_type_description
_atom_site_fract_x
_atom_site_fract_y
_atom_site_fract_z
_atom_type_partial_charge
C1    C     C_R   0.730670 0.378440 0.146398 0.552802
C2    C     C_R   0.288075 0.330637 0.861441 0.543835
C3    C     C_R   0.230672 0.878442 0.146400 0.556246
C4    C     C_R   0.788078 0.830630 0.861442 0.544633
C5    C     C_R   0.534200 0.373804 0.918927 -0.090065
C6    C     C_R   0.515556 0.397424 0.065719 -0.087023
C7    C     C_R   0.034232 0.873779 0.918909 -0.089971
C8    C     C_R   0.015592 0.897426 0.065700 -0.087396
C9    C     C_R   0.042961 0.987120 0.951175 -0.120304
C10   C     C_R   0.031639 0.999574 0.024078 -0.137459
C11   C     C_R   0.542918 0.487144 0.951199 -0.120661
C12   C     C_R   0.531594 0.499584 0.024103 -0.137301
C13   C     C_R   0.777134 0.848834 0.937377 0.009944
C14   C     C_R   0.256041 0.936561 0.081316 0.020917
C15   C     C_R   0.277125 0.348861 0.937369 0.010744
C16   C     C_R   0.756036 0.436559 0.081313 0.020507
C17   C     C_R   0.710719 0.838036 0.968691 -0.000167
C18   C     C_R   0.310721 0.886339 0.040558 0.002915
C19   C     C_R   0.210704 0.338111 0.968669 0.000249
C20   C     C_R   0.810726 0.386358 0.040561 0.002824
C21   C     C_R   0.700419 0.862481 0.040045 0.005655
C22   C     C_R   0.317874 0.915486 0.968911 0.012479
C23   C     C_R   0.200400 0.362563 0.040022 0.005481
C24   C     C_R   0.817881 0.415505 0.968913 0.012600
C25   C     C_R   0.824759 0.898139 0.053854 -0.152143
C26   C     C_R   0.220006 0.053838 0.978289 -0.151902
C27   C     C_R   0.324747 0.398138 0.053848 -0.151993
C28   C     C_R   0.719987 0.553807 0.978281 -0.151652
C29   C     C_R   0.835014 0.871768 0.981594 -0.154042
C30   C     C_R   0.215306 0.030104 0.050977 -0.134823
C31   C     C_R   0.335004 0.371765 0.981590 -0.154116
C32   C     C_R   0.715289 0.530081 0.050969 -0.135174
C33   C     C_3   0.642009 0.892227 0.947676 -0.263633
C34   C     C_3   0.330210 0.755877 0.028358 -0.258456
C35   C     C_3   0.142018 0.392372 0.947638 -0.263849
C36   C     C_3   0.830235 0.255904 0.028364 -0.258325
C37   C     C_3   0.630533 0.919807 0.026185 -0.254535
C38   C     C_3   0.338084 0.787620 0.949926 -0.258516
C39   C     C_3   0.130536 0.419959 0.026145 -0.254865
C40   C     C_3   0.838109 0.287646 0.949933 -0.258191
C41   C     C_R   0.756179 0.902239 0.082379 0.014747
C42   C     C_R   0.269244 0.992636 0.935772 0.013423
C43   C     C_R   0.256165 0.402271 0.082365 0.014623
C44   C     C_R   0.769241 0.492630 0.935770 0.014200
C45   C     C_R   0.530963 0.156726 0.147136 0.541795
C46   C     C_R   0.468205 0.154714 0.853425 0.533677
C47   C     C_R   0.030964 0.656728 0.147137 0.546738
C48   C     C_R   0.968210 0.654712 0.853422 0.524188
C49   C     C_R   0.451060 0.159565 0.563378 -0.003160
C50   C     C_R   0.491876 0.161311 0.419303 0.020023
C51   C     C_R   0.001573 0.671923 0.577634 0.031183
C52   C     C_R   0.046981 0.667999 0.435100 0.023841
C53   C     C_R   0.469527 0.052531 0.528776 0.006876
C54   C     C_R   0.491468 0.054622 0.459396 0.071181
C55   C     C_R   0.956500 0.704395 0.522579 0.008885
C56   C     C_R   0.979575 0.708516 0.452390 0.018697
C57   C     C_R   0.464462 0.268149 0.450102 -0.166351
C58   C     C_R   0.445731 0.267706 0.522995 -0.160922
C59   C     C_R   0.095404 0.646209 0.490198 -0.165494
C60   C     C_R   0.072621 0.648168 0.561843 -0.140087
C61   C     C_3   0.525182 0.963463 0.549117 -0.223977
C62   C     C_3   0.550823 0.968752 0.473083 -0.231843
C63   C     C_3   0.891366 0.637831 0.501452 -0.263707
C64   C     C_3   0.913074 0.656091 0.424709 -0.248156
C65   C     C_R   0.769579 0.863729 0.565127 -0.020259
C66   C     C_R   0.250182 0.934840 0.419231 0.003222
C67   C     C_R   0.251565 0.417636 0.576296 -0.005801
C68   C     C_R   0.744761 0.408978 0.426897 -0.012034
C69   C     C_R   0.825473 0.912134 0.525815 -0.024948
C70   C     C_R   0.198064 0.996237 0.458603 0.006853
C71   C     C_R   0.309522 0.455832 0.536721 -0.017378
C72   C     C_R   0.686708 0.445616 0.468086 0.041303
C73   C     C_R   0.820972 0.930858 0.454153 -0.011120
C74   C     C_R   0.200901 0.000282 0.531178 0.030257
C75   C     C_R   0.309837 0.457215 0.463940 -0.007906
C76   C     C_R   0.688605 0.448623 0.541177 0.073681
C77   C     C_R   0.708116 0.832675 0.452290 -0.172325
C78   C     C_R   0.314827 0.906563 0.529402 -0.185129
C79   C     C_R   0.192128 0.375016 0.464204 -0.163320
C80   C     C_R   0.807096 0.372780 0.537884 -0.198519
C81   C     C_R   0.710314 0.815044 0.526741 0.009067
C82   C     C_R   0.313553 0.903964 0.454058 0.007302
C83   C     C_R   0.190768 0.375910 0.539563 0.010223
C84   C     C_R   0.807918 0.375444 0.462498 -0.019689
C85   C     C_3   0.870496 0.021776 0.537601 -0.227615
C86   C     C_3   0.118932 0.986846 0.460934 -0.249837
C87   C     C_3   0.349449 0.572320 0.543107 -0.258914
C88   C     C_3   0.614019 0.392756 0.469263 -0.231494
C89   C     C_R   0.742023 0.967685 0.148178 0.537709
C90   C     C_R   0.272102 0.018408 0.859726 0.544565
C91   C     C_R   0.242019 0.467697 0.148173 0.541844
C92   C     C_R   0.772101 0.518406 0.859726 0.542900
C93   C     C_3   0.864709 0.044072 0.458200 -0.209976
C94   C     C_3   0.123439 0.989184 0.541453 -0.262568
C95   C     C_3   0.350076 0.574753 0.462785 -0.210750
C96   C     C_3   0.616743 0.395447 0.549491 -0.257147
C97   C     C_R   0.759266 0.903477 0.417776 -0.019422
C98   C     C_R   0.255522 0.946836 0.568549 -0.022577
C99   C     C_R   0.250271 0.423103 0.426167 -0.012313
C100  C     C_R   0.748304 0.413929 0.577130 -0.030718
C101  C     C_R   0.729393 0.376897 0.353271 0.574980
C102  C     C_R   0.269053 0.380817 0.648534 0.582262
C103  C     C_R   0.230162 0.881190 0.351365 0.562549
C104  C     C_R   0.784966 0.839380 0.639585 0.570604
C105  C     C_R   0.530302 0.156893 0.352235 0.546074
C106  C     C_R   0.435751 0.153043 0.639342 0.564859
C107  C     C_R   0.066241 0.653257 0.360575 0.551344
C108  C     C_R   0.970683 0.657963 0.648259 0.544881
C109  C     C_R   0.742664 0.968108 0.352724 0.541382
C110  C     C_R   0.259789 0.974842 0.643946 0.548284
C111  C     C_R   0.241073 0.471434 0.354753 0.536764
C112  C     C_R   0.758082 0.467866 0.646900 0.548937
C113  C     C_R   0.493326 0.160032 0.926933 -0.005463
C114  C     C_R   0.500236 0.170853 0.076015 -0.004226
C115  C     C_R   0.993338 0.660026 0.926925 -0.003309
C116  C     C_R   0.000247 0.670858 0.076009 -0.006184
C117  C     C_R   0.513319 0.270796 0.959482 0.003744
C118  C     C_R   0.510043 0.279760 0.034834 0.022448
C119  C     C_R   0.013341 0.770786 0.959470 0.004343
C120  C     C_R   0.010066 0.779759 0.034822 0.021767
C121  C     C_R   0.480216 0.063297 0.042336 -0.163273
C122  C     C_R   0.478173 0.057354 0.969323 -0.154461
C123  C     C_R   0.980218 0.563305 0.042331 -0.164286
C124  C     C_R   0.978179 0.557355 0.969318 -0.153337
Cr1   Cr    Cr6+3 0.772010 0.169670 0.250090 1.038361
Cr2   Cr    Cr6+3 0.227990 0.169670 0.749910 1.029653
Cr3   Cr    Cr6+3 0.272010 0.669670 0.250090 1.027047
Cr4   Cr    Cr6+3 0.727990 0.669670 0.749910 1.037541
Cr5   Cr    Cr6+3 0.615000 0.323260 0.249260 1.004943
Cr6   Cr    Cr6+3 0.385000 0.323260 0.750740 0.996639
Cr7   Cr    Cr6+3 0.115000 0.823260 0.249260 1.001599
Cr8   Cr    Cr6+3 0.885000 0.823260 0.750740 1.000714
Cr9   Cr    Cr6+3 0.616710 0.010760 0.250840 1.008268
Cr10  Cr    Cr6+3 0.383290 0.010760 0.749160 1.003088
Cr11  Cr    Cr6+3 0.116710 0.510760 0.250840 1.012456
Cr12  Cr    Cr6+3 0.883290 0.510760 0.749160 1.007872
H1    H     H_    0.470356 0.980273 0.072394 0.138436
H2    H     H_    0.462826 0.970969 0.946220 0.146341
H3    H     H_    0.970348 0.480287 0.072390 0.138429
H4    H     H_    0.962828 0.470971 0.946217 0.146615
H5    H     H_    0.463442 0.352748 0.420225 0.124710
H6    H     H_    0.432095 0.352129 0.548799 0.145080
H7    H     H_    0.149552 0.623632 0.477743 0.101829
H8    H     H_    0.109231 0.626687 0.604016 0.146130
H9    H     H_    0.841148 0.680936 0.515927 0.130266
H10   H     H_    0.921889 0.571162 0.394806 0.211116
H11   H     H_    0.501870 0.873749 0.564013 0.187233
H12   H     H_    0.603089 0.013980 0.467463 0.121028
H13   H     H_    0.563732 0.002043 0.587454 0.182514
H14   H     H_    0.545458 0.881049 0.444160 0.207663
H15   H     H_    0.895733 0.542234 0.519128 0.175016
H16   H     H_    0.881250 0.725048 0.395930 0.146292
H17   H     H_    0.662204 0.803895 0.422697 0.160764
H18   H     H_    0.362026 0.879039 0.557171 0.161252
H19   H     H_    0.144754 0.350670 0.435594 0.180792
H20   H     H_    0.854862 0.349640 0.566117 0.182986
H21   H     H_    0.924650 0.997027 0.554489 0.158502
H22   H     H_    0.098212 0.899051 0.440732 0.160950
H23   H     H_    0.402601 0.559950 0.566405 0.152024
H24   H     H_    0.613091 0.298278 0.448064 0.138064
H25   H     H_    0.833145 0.126005 0.445806 0.178895
H26   H     H_    0.099933 0.071761 0.565859 0.200337
H27   H     H_    0.318115 0.650906 0.441480 0.180242
H28   H     H_    0.578735 0.460481 0.573771 0.179322
H29   H     H_    0.915676 0.035270 0.429134 0.161811
H30   H     H_    0.107905 0.901617 0.567160 0.133348
H31   H     H_    0.403503 0.563844 0.439062 0.173047
H32   H     H_    0.616981 0.302953 0.574167 0.128020
H33   H     H_    0.543824 0.367727 0.862120 0.140747
H34   H     H_    0.503880 0.413793 0.121306 0.135792
H35   H     H_    0.043852 0.867688 0.862100 0.138549
H36   H     H_    0.003918 0.913809 0.121286 0.136405
H37   H     H_    0.057058 0.066034 0.919245 0.112363
H38   H     H_    0.035688 0.088712 0.048600 0.098365
H39   H     H_    0.557007 0.566066 0.919273 0.112111
H40   H     H_    0.535634 0.588719 0.048629 0.098161
H41   H     H_    0.869400 0.925977 0.085504 0.133088
H42   H     H_    0.181750 0.113714 0.954421 0.135533
H43   H     H_    0.369389 0.425946 0.085505 0.133102
H44   H     H_    0.681722 0.613660 0.954410 0.135458
H45   H     H_    0.104864 0.322715 0.926736 0.130913
H46   H     H_    0.786048 0.191536 0.039283 0.158839
H47   H     H_    0.604873 0.822534 0.926783 0.130955
H48   H     H_    0.286015 0.691528 0.039279 0.158572
H49   H     H_    0.630235 0.019241 0.038065 0.157753
H50   H     H_    0.393313 0.781200 0.930332 0.132276
H51   H     H_    0.130268 0.519393 0.038028 0.157152
H52   H     H_    0.893341 0.281246 0.930342 0.132353
H53   H     H_    0.586685 0.866256 0.050423 0.136512
H54   H     H_    0.298455 0.741706 0.915680 0.159349
H55   H     H_    0.086668 0.366446 0.050374 0.136694
H56   H     H_    0.798489 0.241714 0.915685 0.160309
O1    O     O_R   0.787520 0.042810 0.170440 -0.530120
O2    O     O_R   0.212480 0.042810 0.829560 -0.526025
O3    O     O_R   0.287520 0.542810 0.170440 -0.528006
O4    O     O_R   0.712480 0.542810 0.829560 -0.528063
O5    O     O_R   0.556610 0.252880 0.323980 -0.517733
O6    O     O_R   0.443390 0.252880 0.676020 -0.504144
O7    O     O_R   0.056610 0.752880 0.323980 -0.508619
O8    O     O_R   0.943390 0.752880 0.676020 -0.515895
O9    O     O_R   0.545950 0.051210 0.330860 -0.514747
O10   O     O_R   0.454050 0.051210 0.669140 -0.514938
O11   O     O_R   0.045950 0.551210 0.330860 -0.503523
O12   O     O_R   0.954050 0.551210 0.669140 -0.500137
O13   O     O_R   0.681390 0.959480 0.325510 -0.512321
O14   O     O_R   0.318610 0.959480 0.674490 -0.517702
O15   O     O_R   0.181390 0.459480 0.325510 -0.521862
O16   O     O_R   0.818610 0.459480 0.674490 -0.505385
O17   O     O_3   0.667900 0.167900 0.250060 -0.252987
O18   O     O_3   0.332100 0.167900 0.749940 -0.309518
O19   O     O_3   0.167900 0.667900 0.250060 -0.273465
O20   O     O_3   0.832100 0.667900 0.749940 -0.307536
O21   O     O_R   0.765640 0.292100 0.175020 -0.492622
O22   O     O_R   0.234360 0.292100 0.824980 -0.503590
O23   O     O_R   0.265640 0.792100 0.175020 -0.491025
O24   O     O_R   0.734360 0.792100 0.824980 -0.501870
O25   O     O_R   0.670190 0.408840 0.168540 -0.524483
O26   O     O_R   0.329810 0.408840 0.831460 -0.510352
O27   O     O_R   0.170190 0.908840 0.168540 -0.523442
O28   O     O_R   0.829810 0.908840 0.831460 -0.505052
O29   O     O_R   0.556620 0.251410 0.175160 -0.510272
O30   O     O_R   0.443380 0.251410 0.824840 -0.523193
O31   O     O_R   0.056620 0.751410 0.175160 -0.506591
O32   O     O_R   0.943380 0.751410 0.824840 -0.528360
O33   O     O_R   0.545960 0.049620 0.170320 -0.522434
O34   O     O_R   0.454040 0.049620 0.829680 -0.521236
O35   O     O_R   0.045960 0.549620 0.170320 -0.519519
O36   O     O_R   0.954040 0.549620 0.829680 -0.526808
O37   O     O_R   0.681390 0.958010 0.176690 -0.498549
O38   O     O_R   0.318610 0.958010 0.823310 -0.495598
O39   O     O_R   0.181390 0.458010 0.176690 -0.496875
O40   O     O_R   0.818610 0.458010 0.823310 -0.495754
O41   O     O_R   0.787510 0.044390 0.330970 -0.518587
O42   O     O_R   0.212490 0.044390 0.669030 -0.504500
O43   O     O_R   0.287510 0.544390 0.330970 -0.520121
O44   O     O_R   0.712490 0.544390 0.669030 -0.497231
O45   O     O_R   0.765630 0.293570 0.323840 -0.452955
O46   O     O_R   0.234370 0.293570 0.676160 -0.455634
O47   O     O_R   0.265630 0.793570 0.323840 -0.476534
O48   O     O_R   0.734370 0.793570 0.676160 -0.433385
O49   O     O_R   0.670190 0.410420 0.329080 -0.524700
O50   O     O_R   0.329810 0.410420 0.670920 -0.529153
O51   O     O_R   0.170190 0.910420 0.329080 -0.535571
O52   O     O_R   0.829810 0.910420 0.670920 -0.510343
C125  C     C_2   0.646585 0.755607 0.559041 0.578913
O53   O     O_2   0.614139 0.680011 0.524369 -0.565388
O54   O     O_R   0.618430 0.793522 0.624368 -0.675552
H57   H     H_    0.575651 0.744068 0.639559 0.318703
C126  C     C_2   0.377616 0.869233 0.413287 0.567427
O55   O     O_2   0.422199 0.804612 0.440802 -0.581628
O56   O     O_R   0.388346 0.913842 0.344083 -0.678825
H58   H     H_    0.433941 0.883650 0.321976 0.339060
C127  C     C_2   0.123018 0.348449 0.576965 0.577129
O57   O     O_2   0.075658 0.296011 0.545358 -0.517802
O58   O     O_R   0.111253 0.389109 0.646706 -0.694299
H59   H     H_    0.062754 0.366392 0.665456 0.342903
C128  C     C_2   0.876047 0.348364 0.424747 0.537038
O59   O     O_2   0.925730 0.307217 0.458319 -0.515863
O60   O     O_R   0.885446 0.374669 0.352268 -0.691010
H60   H     H_    0.934204 0.352647 0.334111 0.339718
H61   H     H_    0.844006 0.093007 0.570310 0.158491
H62   H     H_    0.093186 0.069392 0.438503 0.172131
H63   H     H_    0.317473 0.646453 0.567476 0.138426
H64   H     H_    0.574714 0.456712 0.446513 0.174881
H65   H     H_    0.887300 0.877851 0.959113 0.152078
H66   H     H_    0.173893 0.074723 0.081114 0.141902
H67   H     H_    0.387292 0.377822 0.959114 0.151919
H68   H     H_    0.673867 0.574685 0.081101 0.141648
H69   H     H_    0.648153 0.975544 0.914172 0.158432
H70   H     H_    0.380947 0.731680 0.053964 0.134499
H71   H     H_    0.148197 0.475680 0.914133 0.157421
H72   H     H_    0.880973 0.231729 0.053974 0.134621

loop_
_geom_bond_atom_site_label_1
_geom_bond_atom_site_label_2
_ccdc_geom_bond_type
Cr4   O44   S    
C49   C106  S    
Cr11  O19   S    
C55   C56   A    
C88   C96   S    
Cr3   O47   S    
C4    O24   A    
C116  C123  A    
C111  O15   A    
C34   H48   S    
C29   H65   S    
C14   C18   A    
C82   C126  S    
C19   C23   A    
C74   C94   S    
Cr8   O20   S    
C73   C93   S    
C72   C76   A    
C94   H30   S    
C75   C95   S    
O56   H58   S    
C74   C98   A    
C66   C70   A    
C53   C54   A    
C105  O9    A    
C15   C19   A    
Cr12  O40   S    
C8    C120  A    
C126  O55   D    
C50   C54   A    
C17   C33   S    
C64   H16   S    
C98   C110  S    
Cr4   O48   S    
Cr10  O34   S    
C13   C29   A    
C69   C73   A    
Cr9   O33   S    
C5    C11   A    
C95   H27   S    
C88   H64   S    
C6    C12   A    
C127  O57   D    
C48   O36   A    
C65   C69   A    
Cr10  O14   S    
C106  O10   A    
C92   O40   A    
C3    O23   A    
Cr10  O18   S    
C22   C38   S    
C31   H67   S    
C123  H3    S    
Cr9   O17   S    
Cr8   O8    S    
C23   C43   A    
C7    C9    A    
C128  O59   D    
Cr7   O19   S    
C121  H1    S    
C4    C13   S    
Cr6   O26   S    
Cr2   O2    S    
C16   C32   A    
C36   C40   S    
Cr5   O25   S    
Cr2   O22   S    
C77   H17   S    
Cr12  O20   S    
C114  C121  A    
C53   C61   S    
C45   C114  S    
Cr8   O52   S    
C37   H49   S    
C113  C122  A    
C20   C24   A    
C52   C107  S    
C51   C108  S    
C38   H54   S    
C55   C63   S    
C78   C98   A    
C50   C105  S    
C111  O43   A    
C96   H32   S    
C9    H37   S    
C30   H66   S    
Cr1   O1    S    
C63   H9    S    
C101  O49   A    
C9    C10   A    
C94   H26   S    
C51   C55   A    
C44   C92   S    
C3    O27   A    
C68   C72   A    
C33   H47   S    
C106  O6    A    
C39   H51   S    
C105  O5    A    
Cr12  O36   S    
C59   H7    S    
C59   C60   A    
C62   H12   S    
C125  O53   D    
C80   C100  A    
C25   C29   A    
C81   C125  S    
C107  O11   A    
C85   H21   S    
C14   C30   A    
C28   C32   A    
C75   C99   A    
C72   C88   S    
Cr10  O10   S    
Cr9   O37   S    
C18   C34   S    
Cr9   O9    S    
C47   C116  S    
C93   H29   S    
C126  O56   S    
C102  O46   A    
C39   H55   S    
C101  O45   A    
C80   C84   A    
C68   C84   A    
C7    C119  A    
C84   C128  S    
C123  C124  A    
Cr6   O30   S    
C76   C100  A    
C68   C101  S    
C122  H2    S    
Cr5   O29   S    
Cr2   O18   S    
C107  O7    A    
C35   H71   S    
C57   H5    S    
Cr12  O16   S    
Cr1   O17   S    
C78   H18   S    
C20   C36   S    
Cr11  O11   S    
C54   C62   S    
C4    O28   A    
C38   H50   S    
C27   C31   A    
C15   C31   A    
C28   C44   A    
C43   C91   S    
Cr1   O21   S    
C96   H28   S    
C91   O39   A    
C42   C90   S    
C34   C38   S    
C108  O8    A    
C73   C97   A    
Cr2   O46   S    
C70   C74   A    
C52   C59   A    
Cr3   O3    S    
O58   H59   S    
C66   C82   A    
C47   O35   A    
C97   C109  S    
C52   C56   A    
C78   C82   A    
C103  O51   A    
C85   C93   S    
C40   H56   S    
C77   C81   A    
C16   C20   A    
C99   C111  S    
C56   C64   S    
C86   C94   S    
C36   H72   S    
C110  O42   A    
C110  O14   A    
C1    C16   S    
C45   O33   A    
C67   C83   A    
C119  C120  A    
C109  O13   A    
C2    C15   S    
C28   H44   S    
C63   H15   S    
C121  C122  A    
C114  C118  A    
C3    C14   S    
Cr11  O35   S    
Cr4   O24   S    
C48   C115  S    
C102  O50   A    
C89   O1    A    
Cr3   O19   S    
C109  O41   A    
C83   C127  S    
C93   H25   S    
C2    O22   A    
C115  C119  A    
C37   H53   S    
C125  O54   S    
C1    O21   A    
C24   C44   A    
C71   C87   S    
Cr6   O18   S    
C36   H46   S    
Cr5   O17   S    
O60   H60   S    
C70   C86   S    
C104  O52   A    
C87   H63   S    
Cr12  O12   S    
C80   H20   S    
C69   C85   S    
C26   C42   A    
Cr11  O15   S    
C6    H34   S    
C113  C117  A    
C79   C99   A    
C90   O2    A    
C104  O48   A    
C27   C43   A    
C47   O31   A    
C87   C95   S    
C64   H10   S    
Cr7   O51   S    
C58   H6    S    
C62   H14   S    
C46   C113  S    
C33   H69   S    
C41   C89   S    
Cr8   O32   S    
C50   C57   A    
C11   H39   S    
C66   C103  S    
C124  H4    S    
C8    C10   A    
C34   H70   S    
Cr4   O4    S    
Cr10  O38   S    
C85   H61   S    
C92   O4    A    
C95   H31   S    
Cr5   O5    S    
Cr7   O31   S    
C11   C12   A    
C86   H22   S    
C100  C112  S    
Cr7   O7    S    
C40   H52   S    
C13   C17   A    
C35   H45   S    
C79   H19   S    
C48   O32   A    
C91   O3    A    
C26   H42   S    
Cr3   O43   S    
C46   O30   A    
C12   H40   S    
C89   O37   A    
C21   C41   A    
C51   C60   A    
C18   C22   A    
Cr7   O27   S    
C61   H11   S    
C45   O29   A    
C61   H13   S    
C108  O12   A    
C112  O44   A    
C117  C118  A    
C60   H8    S    
C71   C75   A    
Cr6   O50   S    
Cr3   O23   S    
C57   C58   A    
C22   C42   A    
Cr5   O49   S    
Cr1   O45   S    
C23   C39   S    
C35   C39   S    
Cr6   O6    S    
C19   C35   S    
C24   C40   S    
C87   H23   S    
C32   H68   S    
C67   C71   A    
C88   H24   S    
C27   H43   S    
C61   C62   S    
Cr2   O42   S    
C33   C37   S    
Cr4   O20   S    
C49   C53   A    
Cr1   O41   S    
C49   C58   A    
C115  C124  A    
C63   C64   S    
C79   C83   A    
C116  C120  A    
C46   O34   A    
C21   C37   S    
C67   C102  S    
C103  O47   A    
C25   C41   A    
C127  O58   S    
C112  O16   A    
C5    C117  A    
C10   H38   S    
C2    O26   A    
C5    H33   S    
C65   C81   A    
C90   O38   A    
C1    O25   A    
C77   C97   A    
C65   C104  S    
Cr8   O28   S    
C7    H35   S    
C128  O60   S    
C25   H41   S    
Cr9   O13   S    
C86   H62   S    
C76   C96   S    
C8    H36   S    
O54   H57   S    
C6    C118  A    
Cr11  O39   S    
C26   C30   A    
C17   C21   A    
