data_mof_unit_33188.cif
_audit_creation_date              2012-12-10T18:42:37-0500
_audit_creation_method            fapswitch 2.2
_symmetry_space_group_name_H-M    P1
_symmetry_Int_Tables_number       1
_space_group_crystal_system       triclinic
_cell_length_a                    10.863547
_cell_length_b                    15.138365
_cell_length_c                    13.974184
_cell_angle_alpha                 87.673551
_cell_angle_beta                  89.742218
_cell_angle_gamma                 91.766257
_cell_volume                      2295.11991031

loop_
_atom_site_label
_atom_site_type_symbol
_atom_type_description
_atom_site_fract_x
_atom_site_fract_y
_atom_site_fract_z
_atom_type_partial_charge
C1    C     C_R   0.501992 0.329890 0.501219 0.773737
C2    C     C_R   0.502262 0.669641 0.498374 0.773262
C3    C     C_R   0.871301 0.495817 0.501364 -0.078694
C4    C     C_R   0.128371 0.505895 0.498468 -0.085494
C5    C     C_R   0.937616 0.474610 0.585749 0.000902
C6    C     C_R   0.061853 0.527465 0.414048 0.006754
C7    C     C_R   0.546678 0.091787 0.580318 -0.165433
C8    C     C_R   0.431774 0.904988 0.436022 -0.165618
C9    C     C_R   0.545182 0.183584 0.581773 -0.196323
C10   C     C_R   0.430631 0.813295 0.434811 -0.202500
C11   C     C_R   0.506247 0.233122 0.501359 -0.023177
C12   C     C_R   0.508727 0.765566 0.495078 -0.002960
C13   C     C_R   0.476084 0.189653 0.417374 -0.182346
C14   C     C_R   0.591776 0.809833 0.553992 -0.194535
C15   C     C_R   0.482467 0.098400 0.414489 -0.176620
C16   C     C_R   0.596750 0.901776 0.552504 -0.168712
C17   C     C_R   0.515242 0.048050 0.496539 0.107781
C18   C     C_R   0.515161 0.950495 0.494723 0.106122
C19   C     C_R   0.571960 0.560711 0.103661 -0.277989
C20   C     C_R   0.447553 0.435119 0.899832 -0.307104
C21   C     C_R   0.574310 0.559628 0.204457 0.366376
C22   C     C_R   0.452286 0.429531 0.799640 0.365027
C23   C     C_R   0.262470 0.503215 0.499568 0.781993
C24   C     C_R   0.737443 0.497480 0.500368 0.782068
C25   C     C_R   0.418083 0.446841 0.212643 0.071273
C26   C     C_R   0.542765 0.573888 0.785761 0.062817
C27   C     C_R   0.409414 0.450694 0.111831 -0.288158
C28   C     C_R   0.537616 0.580138 0.886663 -0.300698
C29   C     C_R   0.488546 0.507767 0.054808 0.094907
C30   C     C_R   0.489318 0.509353 0.945923 0.105548
C31   C     C_R   0.237863 0.675981 0.232916 -0.135247
C32   C     C_R   0.760346 0.330897 0.770628 -0.152782
C33   C     C_R   0.187845 0.641924 0.319680 -0.095827
C34   C     C_R   0.816369 0.360126 0.684253 -0.102022
C35   C     C_R   0.119779 0.561531 0.323040 0.138825
C36   C     C_R   0.878489 0.442944 0.677127 0.138223
C37   C     C_R   0.099877 0.516805 0.238021 -0.178989
C38   C     C_R   0.884734 0.495550 0.757596 -0.155373
C39   C     C_R   0.149133 0.551445 0.151311 -0.147227
C40   C     C_R   0.827981 0.466226 0.843625 -0.134288
C41   C     C_R   0.218829 0.630652 0.148868 -0.089372
C42   C     C_R   0.765800 0.384000 0.850111 -0.104688
C43   C     C_R   0.934186 0.521298 0.416788 -0.247249
C44   C     C_R   0.065120 0.481595 0.583337 -0.249551
Cu1   Cu    Cu3+1 0.500000 0.499990 0.596430 0.945194
Cu2   Cu    Cu3+1 0.500000 0.500010 0.403570 0.934546
H1    H     H_    0.257659 0.657044 0.081799 0.126115
H2    H     H_    0.721671 0.361501 0.916685 0.124261
H3    H     H_    0.462188 0.067739 0.347519 0.120872
H4    H     H_    0.664751 0.934258 0.596421 0.120632
H5    H     H_    0.636587 0.603939 0.063784 0.131702
H6    H     H_    0.415092 0.378256 0.942947 0.125118
H7    H     H_    0.356218 0.402769 0.254119 0.125284
H8    H     H_    0.581920 0.629286 0.743680 0.129734
H9    H     H_    0.338806 0.409779 0.079943 0.127634
H10   H     H_    0.571068 0.640759 0.917137 0.128485
H11   H     H_    0.290248 0.737963 0.230487 0.109923
H12   H     H_    0.712556 0.267122 0.776039 0.105771
H13   H     H_    0.200812 0.678146 0.384216 0.095989
H14   H     H_    0.811034 0.318631 0.622966 0.105970
H15   H     H_    0.046103 0.455325 0.238979 0.124979
H16   H     H_    0.932357 0.559514 0.753284 0.120823
H17   H     H_    0.133839 0.516640 0.086064 0.127439
H18   H     H_    0.831892 0.507335 0.905203 0.124562
H19   H     H_    0.883627 0.539649 0.352645 0.150613
H20   H     H_    0.115028 0.465608 0.648195 0.161669
H21   H     H_    0.571929 0.055517 0.645217 0.118661
H22   H     H_    0.365351 0.939662 0.392337 0.121435
H23   H     H_    0.577336 0.215043 0.645019 0.120369
H24   H     H_    0.366152 0.779653 0.389182 0.122559
H25   H     H_    0.448132 0.226170 0.353226 0.144241
H26   H     H_    0.653857 0.773209 0.600058 0.126299
N1    N     N_R   0.500000 0.500020 0.258690 -0.187238
N2    N     N_R   0.500000 0.499980 0.741310 -0.168725
O1    O     O_R   0.500010 0.371450 0.581430 -0.587206
O2    O     O_R   0.499990 0.628550 0.418570 -0.586481
O3    O     O_R   0.500010 0.371460 0.418560 -0.588879
O4    O     O_R   0.499990 0.628540 0.581440 -0.593280
O5    O     O_R   0.319640 0.500000 0.581430 -0.579852
O6    O     O_R   0.680360 0.500000 0.418570 -0.611549
O7    O     O_R   0.319640 0.500010 0.418560 -0.574644
O8    O     O_R   0.680360 0.499990 0.581440 -0.569511
C45   C     C_3   0.659896 0.628905 0.246279 -0.388136
C46   C     C_3   0.613980 0.722279 0.225868 -0.853471
H27   H     H_    0.615660 0.739359 0.147860 0.236593
H28   H     H_    0.518600 0.727638 0.253222 0.265578
H29   H     H_    0.674328 0.770939 0.262192 0.245372
H30   H     H_    0.673192 0.621328 0.323175 0.254935
H31   H     H_    0.753192 0.624015 0.214220 0.163704
C47   C     C_3   0.412010 0.338755 0.766440 -0.355684
C48   C     C_3   0.284483 0.334649 0.721089 -0.777342
H32   H     H_    0.220731 0.377265 0.759229 0.230021
H33   H     H_    0.287740 0.353001 0.644056 0.270621
H34   H     H_    0.246514 0.265649 0.727059 0.217182
H35   H     H_    0.484772 0.309075 0.726199 0.203718
H36   H     H_    0.405415 0.290075 0.828206 0.146756

loop_
_geom_bond_atom_site_label_1
_geom_bond_atom_site_label_2
_ccdc_geom_bond_type
C38   C40   A    
C27   C29   A    
C1    O3    A    
C44   H20   S    
Cu1   O8    S    
C1    C11   S    
C46   H29   S    
C32   H12   S    
C2    C12   S    
Cu2   O2    S    
C28   H10   S    
C47   H35   S    
C39   C41   A    
C20   C30   A    
Cu1   Cu2   S    
C3    C43   A    
C19   C21   A    
C9    H23   S    
C27   H9    S    
C5    C36   S    
C21   N1    A    
C6    C35   S    
C7    C9    A    
C24   O8    A    
C33   C35   A    
C24   O6    A    
C21   C45   S    
C7    C17   A    
C31   C33   A    
Cu1   O4    S    
C31   C41   A    
C25   N1    A    
C40   C42   A    
C45   H30   S    
C33   H13   S    
C25   H7    S    
C34   H14   S    
C3    C24   S    
C26   H8    S    
C41   H1    S    
C45   H31   S    
C1    O1    A    
C46   H27   S    
C4    C6    A    
C48   H32   S    
C4    C23   S    
C13   H25   S    
C8    C18   A    
C4    C44   A    
Cu1   N2    S    
C32   C34   A    
C29   C30   S    
C2    O4    A    
C48   H33   S    
Cu2   O7    S    
C45   C46   S    
C43   H19   S    
C17   C18   S    
C22   C47   S    
Cu1   O5    S    
C42   H2    S    
C9    C11   A    
C10   C12   A    
C10   H24   S    
C8    C10   A    
C5    C44   A    
C20   C22   A    
C8    H22   S    
C6    C43   A    
C13   C15   A    
C14   C16   A    
C22   N2    A    
C19   C29   A    
C2    O2    A    
C15   C17   A    
C23   O7    A    
C35   C37   A    
C14   H26   S    
C46   H28   S    
C3    C5    A    
Cu2   O3    S    
C37   H15   S    
C47   H36   S    
C25   C27   A    
C39   H17   S    
C26   C28   A    
C40   H18   S    
Cu1   O1    S    
C31   H11   S    
C28   C30   A    
C12   C14   A    
C20   H6    S    
C48   H34   S    
Cu2   O6    S    
C11   C13   A    
C47   C48   S    
C36   C38   A    
C26   N2    A    
C34   C36   A    
C15   H3    S    
C16   H4    S    
C7    H21   S    
C19   H5    S    
C37   C39   A    
C16   C18   A    
C32   C42   A    
C23   O5    A    
Cu2   N1    S    
C38   H16   S    
