data_mof_unit_48718.cif
_audit_creation_date              2012-12-11T15:55:38-0500
_audit_creation_method            fapswitch 2.2
_symmetry_space_group_name_H-M    P1
_symmetry_Int_Tables_number       1
_space_group_crystal_system       triclinic
_cell_length_a                    6.939551
_cell_length_b                    14.542209
_cell_length_c                    16.100786
_cell_angle_alpha                 89.967265
_cell_angle_beta                  89.930494
_cell_angle_gamma                 89.927909
_cell_volume                      1624.83063101

loop_
_atom_site_label
_atom_site_type_symbol
_atom_type_description
_atom_site_fract_x
_atom_site_fract_y
_atom_site_fract_z
_atom_type_partial_charge
O1    O     O_R   0.505680 0.583900 0.413320 -0.543457
O2    O     O_R   0.176010 0.594950 0.586080 -0.499133
O3    O     O_R   0.005680 0.416100 0.586680 -0.540295
C1    C     C_R   0.344658 0.617325 0.614894 0.781259
O4    O     O_R   0.175960 0.594930 0.413930 -0.543385
O5    O     O_R   0.005640 0.416080 0.413300 -0.546890
C2    C     C_R   0.344953 0.617235 0.385143 0.717030
O6    O     O_R   0.505720 0.583920 0.586700 -0.541765
O7    O     O_3   0.339190 0.441320 0.500000 -0.385171
V1    V     V_3+5 0.064350 0.510890 0.500000 1.483268
O8    O     O_R   0.675920 0.405050 0.413920 -0.547467
C3    C     C_R   0.845073 0.382791 0.385001 0.671643
O9    O     O_R   0.675960 0.405070 0.586070 -0.547219
C4    C     C_R   0.844774 0.382980 0.614853 0.699021
V2    V     V_3+5 0.564340 0.489110 0.500000 1.420317
O10   O     O_3   0.839370 0.558680 0.500000 -0.351276
C5    C     C_R   0.006761 0.317583 0.741695 0.112878
C6    C     C_R   0.852738 0.317492 0.685465 -0.113451
C7    C     C_R   0.701431 0.255219 0.700748 -0.174285
H1    H     H_    0.579330 0.252637 0.659271 0.133924
C8    C     C_R   0.712594 0.191080 0.766251 -0.168011
H2    H     H_    0.598159 0.141291 0.773424 0.126993
C9    C     C_R   0.875745 0.187020 0.818270 -0.108869
C10   C     C_R   0.018305 0.253836 0.806266 0.103575
C11   C     C_3   0.229871 0.241929 0.794711 -0.410259
C12   C     C_3   0.217451 0.311811 0.724750 -0.399097
H3    H     H_    0.266896 0.171569 0.772990 0.168005
H4    H     H_    0.313421 0.266841 0.849079 0.176498
H5    H     H_    0.248265 0.282272 0.662467 0.170494
H6    H     H_    0.292933 0.377353 0.738838 0.170705
C13   C     C_R   0.046629 0.224872 0.217207 -0.150638
H7    H     H_    0.187222 0.206591 0.193044 0.115186
C14   C     C_R   0.035619 0.288419 0.282416 -0.148831
H8    H     H_    0.168244 0.317260 0.306274 0.116818
C15   C     C_R   0.856287 0.314437 0.316161 -0.043244
C16   C     C_R   0.688280 0.275098 0.282765 -0.152314
H9    H     H_    0.547687 0.293380 0.306928 0.116059
C17   C     C_R   0.699289 0.211549 0.217557 -0.142034
H10   H     H_    0.566666 0.182706 0.193700 0.116738
C18   C     C_R   0.878622 0.185535 0.183811 -0.043984
C19   C     C_R   0.192304 0.737127 0.708515 0.653777
C20   C     C_R   0.205387 0.800278 0.773851 -0.272842
H11   H     H_    0.077992 0.839181 0.790568 0.218046
C21   C     C_R   0.380012 0.814111 0.816374 -0.283096
C22   C     C_R   0.542552 0.762595 0.791652 0.652015
C23   C     C_R   0.529470 0.699441 0.726315 -0.272620
H12   H     H_    0.656860 0.660535 0.709597 0.218783
C24   C     C_R   0.354863 0.685638 0.683770 -0.287405
C25   C     C_R   0.190560 0.711611 0.272040 -0.130293
H13   H     H_    0.051514 0.682139 0.286989 0.149528
C26   C     C_R   0.202856 0.774878 0.206615 -0.195327
H14   H     H_    0.072997 0.792077 0.172884 0.217033
C27   C     C_R   0.380371 0.814762 0.184394 -0.183619
C28   C     C_R   0.546005 0.789430 0.229728 0.620238
C29   C     C_R   0.533639 0.725452 0.294526 -0.221558
H15   H     H_    0.663828 0.707694 0.327967 0.149776
C30   C     C_R   0.356042 0.685801 0.316651 -0.140013
O11   O     O_R   0.229200 0.915950 0.913350 -0.545642
O12   O     O_R   0.559090 0.905000 0.086080 -0.499476
O13   O     O_R   0.729280 0.083880 0.086680 -0.543531
C31   C     C_R   0.390373 0.882960 0.115266 0.742136
O14   O     O_R   0.558920 0.904980 0.913920 -0.503829
O15   O     O_R   0.729110 0.083860 0.913300 -0.548007
C32   C     C_R   0.390253 0.882510 0.885182 0.763579
O16   O     O_R   0.229360 0.915970 0.086730 -0.544226
O17   O     O_3   0.395680 0.058580 0.000030 -0.392623
V3    V     V_3+5 0.670570 0.989070 0.999990 1.546394
O18   O     O_R   0.058820 0.094950 0.913870 -0.546815
C33   C     C_R   0.889719 0.116855 0.884961 0.684396
O19   O     O_R   0.058990 0.094970 0.086020 -0.549105
C34   C     C_R   0.889841 0.117189 0.114965 0.694188
V4    V     V_3+5 0.170560 0.010930 0.999930 1.443088
O20   O     O_3   0.895590 0.941310 0.999960 -0.341960
F1    F     F_    0.020648 0.727848 0.669129 -0.669678
F2    F     F_    0.714197 0.771870 0.831048 -0.671510
F3    F     F_    0.719971 0.827569 0.212862 -0.709142

loop_
_geom_bond_atom_site_label_1
_geom_bond_atom_site_label_2
_ccdc_geom_bond_type
C29   H15   S    
C18   C34   S    
C19   C20   A    
C9    C33   S    
C15   C16   A    
C1    O6    A    
C27   C28   A    
C21   C32   S    
C11   H4    S    
O14   V3    S    
C5    C12   S    
C16   H9    S    
C7    C8    A    
O5    C3    A    
C17   H10   S    
V2    O10   S    
C25   C30   A    
C13   C18   A    
C6    C7    A    
C4    C6    S    
O14   C32   A    
O12   V3    S    
C19   F1    S    
C28   C29   A    
O8    V2    S    
O17   V4    S    
C7    H1    S    
O13   V3    S    
O18   C33   A    
C25   C26   A    
C9    C10   A    
C13   C14   A    
O19   C34   A    
O1    V2    S    
O7    V1    S    
O17   V3    S    
C8    H2    S    
C20   C21   A    
C5    C6    A    
C23   C24   A    
C8    C9    A    
O11   C32   A    
O15   V3    S    
O12   C31   A    
C5    C10   A    
C26   H14   S    
O15   C33   A    
C10   C11   S    
O4    C2    A    
O13   C34   A    
C11   C12   S    
C22   C23   A    
C26   C27   A    
O2    C1    A    
C13   H7    S    
O18   V4    S    
C14   H8    S    
C3    C15   S    
O3    C4    A    
C28   F3    S    
V3    O20   S    
C12   H6    S    
O6    V2    S    
O9    V2    S    
C20   H11   S    
C27   C31   S    
O2    V1    S    
C21   C22   A    
C1    C24   S    
C23   H12   S    
O1    C2    A    
V4    O20   S    
O5    V1    S    
O8    C3    A    
C11   H3    S    
O16   V4    S    
C22   F2    S    
C29   C30   A    
O7    V2    S    
O4    V1    S    
O3    V1    S    
V1    O10   S    
C17   C18   A    
O11   V4    S    
C16   C17   A    
C14   C15   A    
C19   C24   A    
C31   O16   A    
C12   H5    S    
C25   H13   S    
O19   V4    S    
O9    C4    A    
C2    C30   S    
