data_mof_unit_7931.cif
_audit_creation_date              2012-10-26T19:55:47-0400
_audit_creation_method            fapswitch 2.2
_symmetry_space_group_name_H-M    P1
_symmetry_Int_Tables_number       1
_space_group_crystal_system       triclinic
_cell_length_a                    10.849578
_cell_length_b                    10.870971
_cell_length_c                    9.574913
_cell_angle_alpha                 90.071647
_cell_angle_beta                  91.095278
_cell_angle_gamma                 92.190451
_cell_volume                      1128.2838056

loop_
_atom_site_label
_atom_site_type_symbol
_atom_type_description
_atom_site_fract_x
_atom_site_fract_y
_atom_site_fract_z
_atom_type_partial_charge
C1    C     C_R   0.507814 0.262626 0.501237 0.552645
C2    C     C_R   0.829067 0.397801 0.981695 -0.106104
C3    C     C_R   0.814855 0.268746 0.990061 0.255826
C4    C     C_R   0.262591 0.501905 0.498573 0.580058
C5    C     C_R   0.839308 0.196709 0.871018 0.305349
C6    C     C_R   0.872364 0.255088 0.746012 -0.076956
C7    C     C_R   0.885145 0.383599 0.738516 -0.010010
C8    C     C_R   0.552620 0.118188 0.765327 -0.091050
C9    C     C_R   0.532336 0.057280 0.890973 -0.049770
C10   C     C_R   0.476089 0.940866 0.890291 0.424670
C11   C     C_R   0.448545 0.881812 0.763777 -0.004643
C12   C     C_R   0.182940 0.771713 0.041522 0.348860
C13   C     C_R   0.481814 0.936977 0.634795 -0.023645
C14   C     C_R   0.517101 0.063072 0.635372 0.019677
C15   C     C_R   0.514739 0.128295 0.506270 0.004475
C16   C     C_R   0.491488 0.737263 0.500966 0.548556
C17   C     C_R   0.503613 0.063218 0.380162 -0.109380
C18   C     C_R   0.493168 0.936218 0.380115 -0.103828
C19   C     C_R   0.483287 0.871476 0.505826 0.022869
C20   C     C_R   0.659497 0.667560 0.147239 -0.041587
C21   C     C_R   0.736693 0.749834 0.076443 0.357888
C22   C     C_R   0.736414 0.749527 0.932623 -0.120930
C23   C     C_R   0.933080 0.547862 0.390167 -0.113354
C24   C     C_R   0.659352 0.666769 0.858997 -0.152189
C25   C     C_R   0.577707 0.582627 0.926808 0.071723
C26   C     C_R   0.577689 0.582796 0.076364 0.046879
C27   C     C_R   0.425424 0.420660 0.073196 0.380164
C28   C     C_R   0.737584 0.496440 0.501535 0.527246
C29   C     C_R   0.425652 0.421308 0.923744 0.493122
C30   C     C_R   0.186228 0.820059 0.176565 -0.017489
C31   C     C_R   0.154169 0.745799 0.289736 0.325773
C32   C     C_R   0.118189 0.621604 0.268746 -0.017895
C33   C     C_R   0.121377 0.570065 0.132457 0.221731
C34   C     C_R   0.871686 0.494645 0.503670 0.001292
C35   C     C_R   0.153842 0.645645 0.019018 0.294277
C36   C     C_R   0.940167 0.442571 0.614412 -0.023092
C37   C     C_R   0.067889 0.445350 0.608160 -0.099790
C38   C     C_R   0.128889 0.501007 0.496254 0.016374
C39   C     C_R   0.060953 0.553112 0.385888 0.016259
C40   C     C_R   0.866480 0.454127 0.857885 -0.059887
Cu1   Cu    Cu3+1 0.499990 0.499990 0.640660 1.020457
Cu2   Cu    Cu3+1 0.500010 0.500010 0.359340 1.010671
F1    F     F_    0.205235 0.848515 0.932641 -0.600136
F2    F     F_    0.451941 0.883082 0.012573 -0.648195
F3    F     F_    0.814035 0.828900 0.148529 -0.619761
F4    F     F_    0.349733 0.341728 0.850588 -0.609585
F5    F     F_    0.152117 0.796559 0.419284 -0.604865
H1    H     H_    0.891968 0.199734 0.655478 0.159778
H2    H     H_    0.670518 0.670821 0.749366 0.195527
H3    H     H_    0.881490 0.589617 0.305798 0.145239
H4    H     H_    0.120151 0.403334 0.692005 0.222130
H5    H     H_    0.884204 0.552679 0.855732 0.157182
H6    H     H_    0.814810 0.454675 0.072389 0.106416
H7    H     H_    0.765109 0.275601 0.184073 0.330495
H8    H     H_    0.809664 0.040455 0.966509 0.398496
H9    H     H_    0.301786 0.286105 0.079345 0.370219
H10   H     H_    0.081750 0.401925 0.193682 0.338386
H11   H     H_    0.180751 0.656791 0.818726 0.369498
H12   H     H_    0.504069 0.110407 0.280545 0.176355
H13   H     H_    0.601117 0.206233 0.773021 0.151377
H14   H     H_    0.558690 0.101491 0.989020 0.159533
H15   H     H_    0.398343 0.794475 0.769699 0.199825
H16   H     H_    0.492303 0.888590 0.280774 0.206865
H17   H     H_    0.210307 0.916619 0.193146 0.195303
H18   H     H_    0.669743 0.673635 0.257288 0.196289
H19   H     H_    0.798224 0.811944 0.877173 0.186805
N1    N     N_R   0.501190 0.501210 0.147910 -0.257070
N2    N     N_R   0.501230 0.501290 0.852040 -0.256796
O1    O     O_R   0.499990 0.319640 0.618810 -0.469597
O2    O     O_3   0.832415 0.069656 0.872239 -0.678782
O3    O     O_3   0.349722 0.339745 0.145955 -0.640251
O4    O     O_3   0.091872 0.447486 0.105029 -0.631856
O5    O     O_3   0.154353 0.593550 0.887484 -0.641858
O6    O     O_R   0.500000 0.319660 0.381240 -0.463095
O7    O     O_R   0.319640 0.500000 0.618780 -0.443995
O8    O     O_R   0.319650 0.500020 0.381210 -0.460741
O9    O     O_R   0.500000 0.680340 0.618760 -0.552151
O10   O     O_R   0.500010 0.680360 0.381190 -0.523590
O11   O     O_R   0.680350 0.499980 0.618790 -0.533059
O12   O     O_R   0.680360 0.500000 0.381220 -0.553990
O13   O     O_3   0.779484 0.211823 0.112619 -0.701590

loop_
_geom_bond_atom_site_label_1
_geom_bond_atom_site_label_2
_ccdc_geom_bond_type
Cu2   O12   S    
C30   H17   S    
C27   C29   A    
C7    C36   S    
C11   H15   S    
C5    C6    A    
C5    O2    S    
C6    H1    S    
C9    H14   S    
C1    O6    A    
C36   C37   A    
C18   C19   A    
C12   F1    S    
Cu1   O9    S    
C30   C31   A    
C37   H4    S    
C18   H16   S    
C16   O9    A    
Cu1   Cu2   S    
C32   C39   S    
C28   O11   A    
C22   H19   S    
C4    O7    A    
C33   O4    S    
C8    C9    A    
C3    O13   S    
C7    C40   A    
C1    C15   S    
C9    C10   A    
C16   O10   A    
H9    O3    S    
C28   C34   S    
C31   F5    S    
C13   C14   A    
C25   N2    A    
Cu1   N2    S    
C21   F3    S    
Cu2   O6    S    
C13   C19   A    
C10   F2    S    
C20   H18   S    
C24   C25   A    
C23   H3    S    
C25   C26   A    
C40   H5    S    
C1    O1    A    
C37   C38   A    
Cu1   O7    S    
C29   N2    A    
C31   C32   A    
C23   C34   A    
C17   C18   A    
C12   C35   A    
C17   H12   S    
C4    C38   S    
Cu2   O10   S    
Cu2   N1    S    
C22   C24   A    
C26   N1    A    
C27   O3    S    
Cu1   O1    S    
C24   H2    S    
C15   C17   A    
C35   O5    S    
C8    C14   A    
C12   C30   A    
C3    C5    A    
C2    H6    S    
Cu1   O11   S    
C6    C7    A    
Cu2   O8    S    
C29   F4    S    
C32   C33   A    
C2    C3    A    
C8    H13   S    
C11   C13   A    
C38   C39   A    
C20   C26   A    
C16   C19   S    
C23   C39   A    
C33   C35   A    
C34   C36   A    
H10   O4    S    
C28   O12   A    
C4    O8    A    
H8    O2    S    
C27   N1    A    
C10   C11   A    
C2    C40   A    
C20   C21   A    
C14   C15   A    
C21   C22   A    
H7    O13   S    
H11   O5    S    
