data_mof_unit_58750.cif
_audit_creation_date              2013-03-05T15:52:55-0500
_audit_creation_method            fapswitch 2.2
_symmetry_space_group_name_H-M    P1
_symmetry_Int_Tables_number       1
_space_group_crystal_system       triclinic
_cell_length_a                    14.940364
_cell_length_b                    10.705062
_cell_length_c                    9.918243
_cell_angle_alpha                 88.677349
_cell_angle_beta                  89.781564
_cell_angle_gamma                 92.299147
_cell_volume                      1584.58209689

loop_
_atom_site_label
_atom_site_type_symbol
_atom_site_description
_atom_site_fract_x
_atom_site_fract_y
_atom_site_fract_z
_atom_type_partial_charge
O1    O     O_R   0.500000 0.316780 0.614690 -0.658091
O2    O     O_R   0.499990 0.316750 0.385360 -0.649960
C1    C     C_R   0.502954 0.259401 0.502595 0.901490
O3    O     O_R   0.367850 0.499980 0.614680 -0.649812
O4    O     O_R   0.367840 0.499960 0.385350 -0.628344
C2    C     C_R   0.327115 0.499125 0.500215 0.850698
Zn1   Zn    Zn3+2 0.500010 0.500020 0.653130 1.024644
Zn2   Zn    Zn3+2 0.499990 0.499980 0.346870 1.028946
O5    O     O_R   0.500010 0.683250 0.614640 -0.596726
O6    O     O_R   0.500000 0.683220 0.385310 -0.585132
O7    O     O_R   0.632160 0.500040 0.614650 -0.550535
O8    O     O_R   0.632150 0.500020 0.385320 -0.586802
C3    C     C_R   0.489295 0.738055 0.499038 0.899620
C4    C     C_R   0.672853 0.497385 0.500142 0.960183
C5    C     C_R   0.817349 0.572735 0.418489 -0.192028
C6    C     C_R   0.768261 0.489501 0.501207 -0.171925
C7    C     C_R   0.809348 0.401496 0.585475 0.318114
C8    C     C_R   0.903734 0.398134 0.587097 -0.152996
C9    C     C_R   0.953161 0.484152 0.501143 0.001618
C10   C     C_R   0.909294 0.570150 0.416198 0.134543
C11   C     C_R   0.950581 0.312320 0.669615 0.219636
C12   C     C_R   0.044481 0.315498 0.668832 0.219941
C13   C     C_R   0.092355 0.402996 0.585606 -0.037408
C14   C     C_R   0.046645 0.485512 0.499618 0.057522
C15   C     C_R   0.094878 0.570767 0.412198 0.137230
C16   C     C_R   0.050246 0.653377 0.327619 -0.151954
C17   C     C_R   0.957684 0.653591 0.330220 -0.115170
C18   C     C_R   0.185573 0.411163 0.587233 -0.122287
C19   C     C_R   0.231727 0.494993 0.500312 -0.057912
C20   C     C_R   0.187420 0.573038 0.411572 -0.202891
H1    H     H_    0.783540 0.641799 0.357888 0.213641
H2    H     H_    0.223166 0.351800 0.654215 0.169181
H3    H     H_    0.225229 0.637561 0.344841 0.178859
C21   C     C_R   0.495796 0.101413 0.762852 -0.160634
C22   C     C_R   0.461852 0.034617 0.875549 -0.200156
C23   C     C_R   0.416157 0.919372 0.860483 0.392743
C24   C     C_R   0.413520 0.867071 0.732342 -0.178335
C25   C     C_R   0.455552 0.929581 0.620228 0.059302
C26   C     C_R   0.484492 0.054609 0.631029 0.108179
C27   C     C_R   0.501552 0.124668 0.508780 -0.064209
C28   C     C_R   0.503996 0.064999 0.384848 -0.152154
C29   C     C_R   0.492655 0.937994 0.380354 -0.090506
C30   C     C_R   0.473328 0.869459 0.498421 -0.121782
C31   C     C_R   0.379211 0.338992 0.144081 -0.204147
H4    H     H_    0.377703 0.333217 0.250996 0.230860
C32   C     C_R   0.319339 0.258310 0.076684 0.315405
C33   C     C_R   0.320041 0.260030 0.936154 -0.234627
C34   C     C_R   0.379664 0.339623 0.864409 -0.205981
H5    H     H_    0.378378 0.331784 0.757623 0.214904
C35   C     C_R   0.440106 0.421585 0.929961 0.117953
C36   C     C_R   0.439892 0.421663 0.074243 0.064518
N1    N     N_R   0.499150 0.498800 0.142780 -0.179900
C37   C     C_R   0.559307 0.572742 0.069263 0.289785
C38   C     C_R   0.558626 0.573790 0.925806 0.278580
N2    N     N_R   0.499120 0.498720 0.857170 -0.186107
H6    H     H_    0.534134 0.186171 0.783346 0.223703
H7    H     H_    0.470621 0.074043 0.974436 0.180574
N3    N     N_R   0.376406 0.853273 0.975238 0.220197
O9    O     O_R   0.372082 0.906651 0.091509 -0.380456
O10   O     O_R   0.343599 0.739468 0.964427 -0.393097
H8    H     H_    0.378800 0.777372 0.720300 0.185659
H9    H     H_    0.501770 0.893561 0.284829 0.237637
N4    N     N_R   0.626855 0.645097 0.136716 0.240980
O11   O     O_R   0.612343 0.760550 0.164513 -0.364494
O12   O     O_R   0.708937 0.609314 0.132748 -0.345686
N5    N     N_R   0.259092 0.173492 0.151091 0.242205
O13   O     O_R   0.256720 0.173548 0.282316 -0.377037
O14   O     O_R   0.206546 0.094480 0.088317 -0.270196
H10   H     H_    0.275654 0.197518 0.881010 0.234994
N6    N     N_R   0.754135 0.315467 0.665355 0.222649
O15   O     O_R   0.711298 0.223137 0.607648 -0.376735
O16   O     O_R   0.734200 0.342082 0.788955 -0.297653
N7    N     N_R   0.621358 0.653991 0.852865 0.252948
O17   O     O_R   0.604747 0.771625 0.836301 -0.338233
O18   O     O_R   0.702973 0.618957 0.836725 -0.284796
N8    N     N_R   0.904525 0.217332 0.750268 0.263566
O19   O     O_R   0.895261 0.232053 0.879341 -0.246234
O20   O     O_R   0.886476 0.108234 0.699568 -0.269408
N9    N     N_R   0.090750 0.226269 0.749996 0.214206
O21   O     O_R   0.085131 0.227979 0.880824 -0.290376
O22   O     O_R   0.136603 0.141046 0.692940 -0.354697
H11   H     H_    0.086967 0.718616 0.260624 0.192845
H12   H     H_    0.923823 0.719019 0.264954 0.194408
H13   H     H_    0.516981 0.115908 0.290608 0.182946

loop_
_geom_bond_atom_site_label_1
_geom_bond_atom_site_label_2
_geom_bond_distance
_ccdc_geom_bond_type
N5    O14   1.301595 A    
N4    O12   1.300074 A    
C21   H6    1.077204 S    
C8    C11   1.422970 A    
C28   C29   1.365124 A    
C9    C10   1.415521 A    
Zn1   N2    2.023434 S    
C37   C38   1.422703 A    
C31   H4    1.060887 S    
Zn1   O7    2.009480 S    
C11   N8    1.431590 S    
C16   C17   1.383147 A    
C19   C20   1.387709 A    
C18   C19   1.390736 A    
N8    O20   1.300948 A    
C12   N9    1.435282 S    
C32   N5    1.441408 S    
C23   N3    1.439705 S    
O4    C2    1.289195 A    
O7    C4    1.287597 A    
N3    O10   1.301726 A    
C5    C6    1.383509 A    
C21   C22   1.395550 A    
N7    O17   1.300069 A    
O5    C3    1.289317 A    
C33   H10   1.082037 S    
C32   C33   1.393495 A    
C22   C23   1.397197 A    
C6    C7    1.406015 A    
C13   C14   1.411415 A    
N6    O15   1.300875 A    
C29   H9    1.080497 S    
C34   C35   1.405443 A    
N5    O13   1.301883 A    
C7    N6    1.434118 S    
C16   H11   1.084121 S    
C11   C12   1.401943 A    
N7    O18   1.300425 A    
O3    Zn1   2.012419 S    
C31   C32   1.400793 A    
C35   C36   1.431036 A    
C5    C10   1.375193 A    
N6    O16   1.301091 A    
C36   N1    1.378269 A    
C18   H2    1.082888 S    
C14   C15   1.417732 A    
O3    C2    1.290215 A    
C26   C27   1.427561 A    
N9    O22   1.301118 A    
C8    C9    1.422819 A    
N3    O9    1.301298 A    
C28   H13   1.083936 S    
C21   C26   1.419197 A    
O1    C1    1.284000 A    
C24   C25   1.416068 A    
C38   N7    1.428455 S    
C33   C34   1.390007 A    
Zn2   O8    2.012421 S    
C7    C8    1.412207 A    
C13   C18   1.392121 A    
N8    O19   1.300982 A    
C31   C36   1.409770 A    
C34   H5    1.064558 S    
O8    C4    1.293334 A    
C1    C27   1.441518 S    
C4    C6    1.431368 S    
N9    O21   1.300572 A    
C29   C30   1.390572 A    
C3    C30   1.436049 S    
N1    C37   1.370141 A    
C15   C20   1.381839 A    
Zn1   O5    1.989623 S    
Zn2   N1    2.024629 S    
C38   N2    1.368286 A    
C23   C24   1.400630 A    
C20   H3    1.085807 S    
O1    Zn1   2.006918 S    
O2    Zn2   1.989623 S    
O6    C3    1.295854 A    
O4    Zn2   2.009480 S    
C24   H8    1.082219 S    
C5    H1    1.083878 S    
C10   C17   1.398594 A    
C35   N2    1.374642 A    
C22   H7    1.082997 S    
C17   H12   1.084220 S    
O2    C1    1.304032 A    
C15   C16   1.395622 A    
C25   C30   1.411192 A    
C37   N4    1.425607 S    
C25   C26   1.396556 A    
C9    C14   1.396203 A    
N4    O11   1.298973 A    
C2    C19   1.424039 S    
Zn2   O6    2.006918 S    
C12   C13   1.405831 A    
C27   C28   1.399293 A    
