data_mof_unit_60866.cif
_audit_creation_date              2012-12-10T17:52:38-0500
_audit_creation_method            fapswitch 2.2
_symmetry_space_group_name_H-M    P1
_symmetry_Int_Tables_number       1
_space_group_crystal_system       triclinic
_cell_length_a                    18.693229
_cell_length_b                    18.679636
_cell_length_c                    18.693568
_cell_angle_alpha                 109.402549
_cell_angle_beta                  109.338963
_cell_angle_gamma                 109.399225
_cell_volume                      5041.70185557

loop_
_atom_site_label
_atom_site_type_symbol
_atom_type_description
_atom_site_fract_x
_atom_site_fract_y
_atom_site_fract_z
_atom_type_partial_charge
C1    C     C_R   0.120387 0.120204 0.500040 0.885663
C2    C     C_R   0.319180 0.324363 0.580251 0.633756
C3    C     C_R   0.254556 0.260583 0.579774 -0.265682
C4    C     C_R   0.122797 0.002556 0.619921 0.864410
C5    C     C_R   0.186926 0.186275 0.500305 -0.108900
C6    C     C_R   0.745822 0.920990 0.239086 -0.170033
C7    C     C_R   0.681209 0.921113 0.176014 -0.263116
C8    C     C_R   0.686014 0.000599 0.187106 -0.155135
C9    C     C_R   0.754006 0.080017 0.261545 0.632723
C10   C     C_R   0.817246 0.079583 0.325718 -0.261151
C11   C     C_R   0.813315 0.000185 0.313894 -0.111245
C12   C     C_R   0.264380 0.004805 0.675613 0.098431
C13   C     C_R   0.821124 0.741474 0.498814 -0.174468
C14   C     C_R   0.757727 0.678112 0.499980 -0.177214
C15   C     C_R   0.686085 0.686365 0.499752 -0.003640
C16   C     C_R   0.879748 0.879812 0.500068 0.863283
C17   C     C_R   0.677814 0.757967 0.499685 -0.157921
C18   C     C_R   0.742591 0.822696 0.501240 -0.179696
C19   C     C_R   0.813577 0.813775 0.500136 -0.014699
C20   C     C_R   0.500008 0.879885 0.879663 0.877327
C21   C     C_R   0.380084 0.997477 0.877233 0.857135
C22   C     C_R   0.499905 0.120199 0.120279 0.880850
C23   C     C_R   0.192618 0.005393 0.685258 -0.106848
C24   C     C_R   0.620120 0.000285 0.120568 0.931140
C25   C     C_R   0.500215 0.620553 0.620178 0.945703
C26   C     C_R   0.379946 0.380126 0.500445 0.918258
C27   C     C_R   0.500080 0.379856 0.379933 0.842801
C28   C     C_R   0.879630 0.000018 0.379801 0.897751
C29   C     C_R   0.620117 0.620320 0.499987 0.869796
C30   C     C_R   0.579508 0.825555 0.817612 -0.260921
C31   C     C_R   0.579932 0.761322 0.754350 0.629013
C32   C     C_R   0.500535 0.687130 0.686052 -0.150389
C33   C     C_R   0.421059 0.676369 0.680854 -0.242007
C34   C     C_R   0.183509 0.002398 0.755409 -0.200369
C35   C     C_R   0.420923 0.739531 0.745451 -0.173742
C36   C     C_R   0.500120 0.814003 0.813315 -0.107870
C37   C     C_R   0.500568 0.258252 0.178569 -0.178134
C38   C     C_R   0.499433 0.321652 0.241971 -0.176392
C39   C     C_R   0.500268 0.313750 0.313935 -0.006535
C40   C     C_R   0.278367 0.014397 0.608600 -0.169582
C41   C     C_R   0.500916 0.242436 0.322508 -0.180271
C42   C     C_R   0.499326 0.177658 0.257732 -0.158375
C43   C     C_R   0.499818 0.186244 0.186430 -0.007063
C44   C     C_R   0.346851 0.008210 0.597971 -0.131005
C45   C     C_R   0.244488 0.997424 0.816388 -0.202057
C46   C     C_R   0.402411 0.992499 0.653511 -0.131441
C47   C     C_R   0.391653 0.986060 0.721853 -0.171856
C48   C     C_R   0.324517 0.995437 0.735742 0.098283
C49   C     C_R   0.314756 0.994637 0.807395 -0.104802
C50   C     C_R   0.182737 0.175511 0.421143 -0.170656
C51   C     C_R   0.245989 0.240341 0.421337 -0.268310
C52   C     C_R   0.314171 0.314125 0.500834 -0.150582
F1    F     F_    0.757871 0.157121 0.272669 -0.660761
F2    F     F_    0.657010 0.772145 0.758505 -0.660804
F3    F     F_    0.385035 0.396683 0.657378 -0.660433
H1    H     H_    0.128225 0.002669 0.762290 0.164692
H2    H     H_    0.640789 0.883388 0.870472 0.177488
H3    H     H_    0.237645 0.027857 0.564625 0.151915
H4    H     H_    0.359749 0.618652 0.627863 0.175526
H5    H     H_    0.359414 0.731080 0.741987 0.164094
H6    H     H_    0.500629 0.264460 0.122967 0.148101
H7    H     H_    0.499274 0.377272 0.235779 0.147647
H8    H     H_    0.501159 0.236403 0.378269 0.145364
H9    H     H_    0.499174 0.121870 0.263738 0.147963
H10   H     H_    0.356405 0.014955 0.546026 0.141032
H11   H     H_    0.454464 0.985940 0.644049 0.142308
H12   H     H_    0.257690 0.268454 0.641041 0.176268
H13   H     H_    0.435633 0.972579 0.762539 0.152355
H14   H     H_    0.237515 0.996996 0.871587 0.163132
H15   H     H_    0.129959 0.117985 0.359588 0.165091
H16   H     H_    0.242627 0.232597 0.360021 0.171812
H17   H     H_    0.742607 0.859446 0.230307 0.164810
H18   H     H_    0.628507 0.859782 0.118109 0.174144
H19   H     H_    0.869805 0.140890 0.383735 0.177420
H20   H     H_    0.876487 0.735007 0.498297 0.149660
H21   H     H_    0.763670 0.622260 0.499701 0.148583
H22   H     H_    0.622295 0.764254 0.499923 0.147124
H23   H     H_    0.736828 0.878716 0.501853 0.146654
O1    O     O_R   0.091590 0.143330 0.551700 -0.617623
O2    O     O_R   0.551730 0.591680 0.643420 -0.557759
O3    O     O_R   0.356670 0.408480 0.448390 -0.631152
O4    O     O_R   0.091620 0.039900 0.448280 -0.632338
O5    O     O_R   0.460120 0.408460 0.551810 -0.583454
O6    O     O_R   0.448270 0.408490 0.356760 -0.625441
O7    O     O_R   0.551720 0.408480 0.460170 -0.627910
O8    O     O_R   0.539880 0.591710 0.448370 -0.631710
O9    O     O_R   0.643330 0.591700 0.551790 -0.605328
O10   O     O_R   0.091610 0.051730 0.643330 -0.617104
O11   O     O_R   0.091640 0.948310 0.539920 -0.625419
O12   O     O_R   0.551760 0.960180 0.908450 -0.635325
O13   O     O_R   0.908380 0.960100 0.551720 -0.618311
O14   O     O_R   0.908410 0.856670 0.448300 -0.620864
O15   O     O_R   0.908360 0.051690 0.460080 -0.621278
O16   O     O_R   0.908390 0.948270 0.356670 -0.620439
O17   O     O_R   0.448330 0.856720 0.908450 -0.620202
O18   O     O_R   0.356660 0.948290 0.908410 -0.620605
O19   O     O_R   0.460090 0.051750 0.908420 -0.627435
O20   O     O_R   0.448250 0.039900 0.091630 -0.629424
O21   O     O_R   0.551680 0.143360 0.091630 -0.600556
O22   O     O_R   0.539910 0.948330 0.091670 -0.632294
O23   O     O_R   0.643340 0.051790 0.091670 -0.575040
O24   O     O_R   0.448280 0.591700 0.540000 -0.640242
Zn1   Zn    Zn3+2 0.999980 0.069060 0.569050 0.975924
Zn2   Zn    Zn3+2 0.000020 0.930940 0.430950 0.963040
Zn3   Zn    Zn3+2 0.430940 0.930960 0.000040 0.968189
Zn4   Zn    Zn3+2 0.569060 0.069120 0.000040 1.004271
Zn5   Zn    Zn3+2 0.430920 0.500100 0.431040 0.967286
Zn6   Zn    Zn3+2 0.569080 0.500080 0.569140 1.043143

loop_
_geom_bond_atom_site_label_1
_geom_bond_atom_site_label_2
_ccdc_geom_bond_type
O18   Zn3   S    
O3    Zn5   S    
C34   H1    S    
C26   O5    A    
C22   O20   A    
C25   O2    A    
C41   C42   A    
O8    Zn5   S    
C12   C48   A    
O15   Zn1   S    
C21   C49   S    
C7    C8    A    
C7    H18   S    
C6    H17   S    
C12   C23   A    
O22   Zn3   S    
O20   Zn3   S    
C1    C5    S    
C27   O6    A    
C46   H11   S    
C2    F3    S    
C30   C31   A    
C25   O24   A    
C30   H2    S    
O6    Zn5   S    
O5    Zn6   S    
C28   O16   A    
C24   O23   A    
C27   O7    A    
O17   Zn3   S    
C8    C24   S    
O9    Zn6   S    
C13   H20   S    
C27   C39   S    
C8    C9    A    
O7    Zn6   S    
C9    C10   A    
C25   C32   S    
O16   Zn2   S    
C33   H4    S    
C13   C14   A    
O1    Zn1   S    
C44   H10   S    
C51   H16   S    
C44   C46   A    
C15   C29   S    
C40   H3    S    
C13   C19   A    
C45   H14   S    
C51   C52   A    
O12   Zn4   S    
C39   C41   A    
C6    C11   A    
C4    C23   S    
C18   C19   A    
C50   C51   A    
C1    O4    A    
C20   O12   A    
C28   O15   A    
C35   C36   A    
C14   H21   S    
C12   C40   A    
C37   C38   A    
C26   C52   S    
C21   O19   A    
C47   C48   A    
C45   C49   A    
C18   H23   S    
C23   C34   A    
C17   H22   S    
C17   C18   A    
O24   Zn5   S    
C34   C45   A    
C29   O8    A    
C2    C52   A    
O19   Zn4   S    
C48   C49   A    
C20   O17   A    
C16   O14   A    
C26   O3    A    
O11   Zn2   S    
C1    O1    A    
C5    C50   A    
C9    F1    S    
C42   C43   A    
C41   H8    S    
C42   H9    S    
C47   H13   S    
O10   Zn1   S    
C4    O11   A    
O23   Zn4   S    
C15   C17   A    
O21   Zn4   S    
C46   C47   A    
C22   O21   A    
C24   O22   A    
C31   C32   A    
C3    H12   S    
O13   Zn1   S    
C3    C5    A    
C22   C43   S    
C37   H6    S    
C6    C7    A    
C4    O10   A    
C21   O18   A    
O2    Zn6   S    
C30   C36   A    
C32   C33   A    
C2    C3    A    
C50   H15   S    
C10   H19   S    
C38   C39   A    
C11   C28   S    
C16   C19   S    
C33   C35   A    
C31   F2    S    
C29   O9    A    
C10   C11   A    
O14   Zn2   S    
C20   C36   S    
C40   C44   A    
C16   O13   A    
O4    Zn2   S    
C14   C15   A    
C35   H5    S    
C37   C43   A    
C38   H7    S    
