data_mof_unit_32338.cif
_audit_creation_date              2012-12-10T16:57:00-0500
_audit_creation_method            fapswitch 2.2
_symmetry_space_group_name_H-M    P1
_symmetry_Int_Tables_number       1
_space_group_crystal_system       triclinic
_cell_length_a                    20.716614
_cell_length_b                    15.911967
_cell_length_c                    13.074111
_cell_angle_alpha                 90.277894
_cell_angle_beta                  90.978495
_cell_angle_gamma                 89.677654
_cell_volume                      4309.0317425

loop_
_atom_site_label
_atom_site_type_symbol
_atom_type_description
_atom_site_fract_x
_atom_site_fract_y
_atom_site_fract_z
_atom_type_partial_charge
C1    C     C_R   0.621188 0.838432 0.469961 0.485460
C2    C     C_2   0.992910 0.455538 0.945225 -0.038817
C3    C     C_R   0.379266 0.160685 0.531055 0.539237
C4    C     C_R   0.378391 0.840495 0.529955 0.545259
C5    C     C_R   0.879280 0.660694 0.531076 0.539306
C6    C     C_R   0.878392 0.340496 0.529958 0.545215
C7    C     C_R   0.530217 0.998301 0.773712 0.473838
C8    C     C_R   0.030219 0.498315 0.773714 0.473826
C9    C     C_R   0.470563 0.999853 0.227390 0.555732
C10   C     C_R   0.970564 0.499852 0.227389 0.555736
C11   C     C_2   0.326240 0.779604 0.541220 0.000583
C12   C     C_R   0.621760 0.159538 0.468362 0.490484
C13   C     C_2   0.327958 0.224052 0.540133 0.018744
C14   C     C_2   0.826243 0.279608 0.541248 0.000487
C15   C     C_2   0.827984 0.724061 0.540194 0.018694
C16   C     C_2   0.292007 0.751737 0.459136 0.239942
C17   C     C_2   0.265814 0.199666 0.544518 0.262111
C18   C     C_2   0.792019 0.251702 0.459176 0.239892
C19   C     C_2   0.765835 0.699671 0.544333 0.261983
C20   C     C_2   0.674803 0.219255 0.447744 0.253625
C21   C     C_2   0.668861 0.767275 0.467125 0.262893
C22   C     C_2   0.174793 0.719264 0.447775 0.253640
C23   C     C_R   0.121191 0.338433 0.469966 0.485494
C24   C     C_2   0.168873 0.267277 0.467171 0.262790
C25   C     C_2   0.735380 0.196974 0.475768 -0.125089
C26   C     C_2   0.713536 0.763940 0.543054 -0.112634
C27   C     C_2   0.235385 0.696970 0.475699 -0.125205
C28   C     C_2   0.213515 0.263945 0.543153 -0.112697
C29   C     C_2   0.464360 0.999579 0.115861 -0.056567
C30   C     C_2   0.964368 0.499573 0.115854 -0.056444
C31   C     C_3   0.305369 0.718579 0.289028 0.034479
C32   C     C_3   0.332975 0.752383 0.189814 -0.250327
C33   C     C_3   0.334910 0.684481 0.107027 -0.492155
C34   C     C_R   0.121760 0.659534 0.468362 0.490610
C35   C     C_3   0.205039 0.089403 0.604326 0.019959
C36   C     C_3   0.214621 0.995731 0.625892 -0.239322
C37   C     C_3   0.158872 0.959902 0.686360 -0.494630
C38   C     C_3   0.805515 0.218394 0.289155 0.034512
C39   C     C_3   0.833113 0.252148 0.189909 -0.250300
C40   C     C_3   0.835195 0.184147 0.107255 -0.492222
C41   C     C_3   0.705261 0.589193 0.603964 0.019942
C42   C     C_3   0.714835 0.495410 0.624821 -0.239364
C43   C     C_3   0.659284 0.459378 0.685561 -0.494526
C44   C     C_3   0.614182 0.342086 0.430178 0.029993
C45   C     C_2   0.501009 0.948942 0.057866 0.274744
C46   C     C_3   0.563277 0.357752 0.346092 -0.249020
C47   C     C_3   0.502457 0.397692 0.389529 -0.464850
C48   C     C_3   0.617227 0.690586 0.331257 0.038272
C49   C     C_3   0.567297 0.643256 0.394722 -0.259744
C50   C     C_3   0.502883 0.635449 0.337204 -0.475317
C51   C     C_3   0.114285 0.842208 0.430811 0.029994
C52   C     C_3   0.063245 0.858243 0.347036 -0.249122
C53   C     C_3   0.002557 0.898164 0.390949 -0.464904
C54   C     C_3   0.117314 0.190630 0.331204 0.038178
C55   C     C_3   0.067357 0.143239 0.394547 -0.259734
C56   C     C_2   0.001029 0.448942 0.057871 0.274834
C57   C     C_3   0.002981 0.135417 0.336925 -0.475332
C58   C     C_1   0.307017 0.760984 0.644788 0.138830
C59   C     C_1   0.345657 0.311996 0.536884 0.125240
C60   C     C_1   0.806997 0.261064 0.644825 0.138780
C61   C     C_1   0.845703 0.812007 0.537321 0.125052
C62   C     C_1   0.431922 0.924828 0.903801 0.144239
C63   C     C_1   0.931988 0.424697 0.903780 0.144187
C64   C     C_3   0.561732 0.824511 0.054868 0.030815
C65   C     C_3   0.507872 0.761873 0.077411 -0.289608
C66   C     C_3   0.524162 0.674196 0.037532 -0.491232
C67   C     C_2   0.540597 0.988772 0.887382 0.237102
C68   C     C_3   0.061835 0.324571 0.054841 0.030740
C69   C     C_3   0.008003 0.261857 0.077256 -0.289593
C70   C     C_3   0.024369 0.174226 0.037305 -0.491218
C71   C     C_3   0.642040 0.059548 0.888942 0.035035
C72   C     C_3   0.697717 0.006473 0.846822 -0.253844
C73   C     C_3   0.744453 0.059860 0.786696 -0.452908
C74   C     C_3   0.142050 0.559600 0.888872 0.035069
C75   C     C_3   0.197668 0.506363 0.846849 -0.253879
C76   C     C_3   0.244450 0.559577 0.786584 -0.452906
C77   C     C_2   0.040599 0.488819 0.887391 0.237112
C78   C     C_2   0.492885 0.955556 0.945225 -0.038835
H1    H     H_    0.744150 0.140207 0.519905 0.092521
H2    H     H_    0.382673 0.775879 0.204791 0.174527
H3    H     H_    0.366790 0.631767 0.131829 0.143295
H4    H     H_    0.354068 0.711305 0.035511 0.164218
H5    H     H_    0.285599 0.660197 0.090760 0.154758
H6    H     H_    0.156165 0.100209 0.570451 0.141788
H7    H     H_    0.209127 0.123929 0.678721 0.105620
H8    H     H_    0.218788 0.960721 0.552607 0.189450
H9    H     H_    0.260441 0.986452 0.670016 0.202232
H10   H     H_    0.154713 0.993040 0.760948 0.153849
H11   H     H_    0.167764 0.892066 0.700854 0.165855
H12   H     H_    0.714952 0.811441 0.603072 0.079074
H13   H     H_    0.112789 0.966642 0.642368 0.130641
H14   H     H_    0.755443 0.196363 0.273194 0.164796
H15   H     H_    0.836155 0.164530 0.315542 0.115848
H16   H     H_    0.802742 0.305405 0.162055 0.188288
H17   H     H_    0.882768 0.275796 0.204895 0.174587
H18   H     H_    0.867162 0.131560 0.132184 0.143306
H19   H     H_    0.854329 0.210938 0.035702 0.164146
H20   H     H_    0.785933 0.159695 0.090994 0.154745
H21   H     H_    0.656290 0.600218 0.570554 0.141614
H22   H     H_    0.709622 0.623380 0.678559 0.105802
H23   H     H_    0.244181 0.640155 0.519732 0.092530
H24   H     H_    0.718706 0.460733 0.551257 0.189490
H25   H     H_    0.760802 0.485867 0.668467 0.202593
H26   H     H_    0.655477 0.492118 0.760462 0.154039
H27   H     H_    0.668137 0.391443 0.699414 0.165890
H28   H     H_    0.613038 0.466465 0.642090 0.130599
H29   H     H_    0.634547 0.403788 0.453114 0.139679
H30   H     H_    0.591275 0.316398 0.500016 0.111887
H31   H     H_    0.583577 0.400053 0.287491 0.158886
H32   H     H_    0.550099 0.297607 0.307898 0.205731
H33   H     H_    0.478831 0.352946 0.441743 0.189138
H34   H     H_    0.214906 0.311444 0.603174 0.079018
H35   H     H_    0.468145 0.413480 0.326246 0.155213
H36   H     H_    0.514540 0.455988 0.432491 0.138774
H37   H     H_    0.630928 0.648207 0.267340 0.141744
H38   H     H_    0.598002 0.747178 0.291879 0.165526
H39   H     H_    0.586326 0.579382 0.412134 0.148888
H40   H     H_    0.558762 0.675716 0.468627 0.161397
H41   H     H_    0.481336 0.698642 0.324388 0.175726
H42   H     H_    0.468813 0.598347 0.383277 0.146291
H43   H     H_    0.509582 0.603210 0.262569 0.136934
H44   H     H_    0.134806 0.903784 0.453900 0.139831
H45   H     H_    0.431414 0.044581 0.080243 0.051808
H46   H     H_    0.091453 0.816390 0.500643 0.111737
H47   H     H_    0.083485 0.900687 0.288533 0.158909
H48   H     H_    0.049921 0.798239 0.308633 0.205718
H49   H     H_    0.978954 0.853270 0.442999 0.189058
H50   H     H_    0.968166 0.914278 0.327896 0.155327
H51   H     H_    0.014788 0.956264 0.434207 0.138633
H52   H     H_    0.131055 0.148304 0.267258 0.141756
H53   H     H_    0.098102 0.247249 0.291867 0.165554
H54   H     H_    0.086400 0.079370 0.411934 0.149014
H55   H     H_    0.058766 0.175658 0.468461 0.161391
H56   H     H_    0.931416 0.544562 0.080226 0.051834
H57   H     H_    0.981400 0.198600 0.324176 0.175650
H58   H     H_    0.968909 0.098228 0.382891 0.146247
H59   H     H_    0.009742 0.103260 0.262254 0.136938
H60   H     H_    0.607842 0.798775 0.086439 0.150938
H61   H     H_    0.568945 0.830866 0.971208 0.136944
H62   H     H_    0.500869 0.758966 0.161218 0.170834
H63   H     H_    0.461957 0.783292 0.040851 0.161219
H64   H     H_    0.530905 0.675662 0.953455 0.152928
H65   H     H_    0.484059 0.630693 0.054433 0.148779
H66   H     H_    0.568934 0.650154 0.075411 0.139161
H67   H     H_    0.255261 0.696684 0.273076 0.164923
H68   H     H_    0.107945 0.298867 0.086455 0.150898
H69   H     H_    0.069093 0.330983 0.971200 0.136889
H70   H     H_    0.000964 0.258884 0.161048 0.170805
H71   H     H_    0.962090 0.283249 0.040668 0.161263
H72   H     H_    0.031151 0.175759 0.953239 0.152895
H73   H     H_    0.984285 0.130666 0.054110 0.148802
H74   H     H_    0.069138 0.150206 0.075212 0.139173
H75   H     H_    0.662845 0.103283 0.947065 0.145868
H76   H     H_    0.619058 0.101274 0.830742 0.134749
H77   H     H_    0.724365 0.976466 0.911653 0.160008
H78   H     H_    0.335946 0.664616 0.315292 0.115859
H79   H     H_    0.678971 0.955338 0.796752 0.192225
H80   H     H_    0.718880 0.090813 0.721549 0.183330
H81   H     H_    0.783517 0.019377 0.756058 0.154560
H82   H     H_    0.766469 0.108226 0.837657 0.170179
H83   H     H_    0.162911 0.603378 0.946897 0.145877
H84   H     H_    0.119101 0.601293 0.830606 0.134869
H85   H     H_    0.224295 0.476411 0.911739 0.159965
H86   H     H_    0.178865 0.455183 0.796903 0.192104
H87   H     H_    0.218897 0.590490 0.721390 0.183397
H88   H     H_    0.283461 0.518976 0.756005 0.154436
H89   H     H_    0.302677 0.805757 0.162096 0.188304
H90   H     H_    0.266533 0.607969 0.837435 0.170176
N1    N     N_1   0.291759 0.747167 0.727683 -0.321557
N2    N     N_1   0.359523 0.382305 0.534492 -0.330474
N3    N     N_1   0.791721 0.247314 0.727727 -0.321497
N4    N     N_1   0.859580 0.882321 0.535232 -0.330542
N5    N     N_1   0.383272 0.900087 0.871259 -0.270828
N6    N     N_1   0.883370 0.399866 0.871220 -0.270709
O1    O     O_3   0.500000 0.000000 0.500000 -0.432117
O2    O     O_R   0.880760 0.402800 0.590320 -0.530631
O3    O     O_R   0.577210 0.000000 0.711160 -0.560293
O4    O     O_R   0.077210 0.500000 0.711160 -0.560364
O5    O     O_R   0.475030 0.069050 0.275760 -0.537596
O6    O     O_R   0.475030 0.930950 0.275760 -0.512588
O7    O     O_R   0.975030 0.569050 0.275760 -0.537513
O8    O     O_R   0.975030 0.430950 0.275760 -0.512591
O9    O     O_R   0.632300 0.097230 0.527310 -0.569542
O10   O     O_R   0.632300 0.902770 0.527310 -0.554824
O11   O     O_R   0.132300 0.597230 0.527310 -0.569610
O12   O     O_3   1.000000 0.500000 0.500000 -0.432112
O13   O     O_R   0.132300 0.402770 0.527310 -0.554817
O14   O     O_R   0.419940 0.833680 0.459580 -0.525365
O15   O     O_R   0.419940 0.166320 0.459580 -0.545079
O16   O     O_R   0.919940 0.333680 0.459580 -0.525280
O17   O     O_R   0.919940 0.666320 0.459580 -0.544945
O18   O     O_R   0.472710 1.000000 0.737340 -0.541816
O19   O     O_R   0.972710 0.500000 0.737340 -0.541760
O20   O     O_3   0.305359 0.783676 0.362862 -0.519860
O21   O     O_3   0.251993 0.114554 0.533867 -0.517769
O22   O     O_3   0.805388 0.283573 0.362878 -0.519797
O23   O     O_R   0.566980 0.833700 0.422750 -0.558471
O24   O     O_3   0.752011 0.614596 0.533302 -0.517661
O25   O     O_3   0.664926 0.292083 0.390771 -0.546916
O26   O     O_3   0.674296 0.707424 0.388324 -0.548924
O27   O     O_3   0.164860 0.792156 0.390958 -0.546877
O28   O     O_3   0.174348 0.207427 0.388379 -0.549178
O29   O     O_3   0.550707 0.902470 0.104393 -0.525163
O30   O     O_3   0.050731 0.402488 0.104418 -0.525237
O31   O     O_3   0.598526 0.006919 0.939912 -0.566914
O32   O     O_3   0.098482 0.507137 0.939970 -0.566980
O33   O     O_R   0.566980 0.166300 0.422750 -0.538655
O34   O     O_R   0.066980 0.333700 0.422750 -0.558456
O35   O     O_R   0.066980 0.666300 0.422750 -0.538460
O36   O     O_R   0.380760 0.097200 0.590320 -0.515356
O37   O     O_R   0.380760 0.902800 0.590320 -0.530343
O38   O     O_R   0.880760 0.597200 0.590320 -0.515691
Zn1   Zn    Zn3+2 0.434690 0.000000 0.602700 0.968185
Zn2   Zn    Zn3+2 0.934690 0.500000 0.602700 0.967952
Zn3   Zn    Zn3+2 0.584000 0.000000 0.565300 0.909756
Zn4   Zn    Zn3+2 0.084000 0.500000 0.565300 0.909718
Zn5   Zn    Zn3+2 0.490640 0.098690 0.416020 0.953775
Zn6   Zn    Zn3+2 0.490640 0.901310 0.416020 0.952355
Zn7   Zn    Zn3+2 0.990640 0.598690 0.416020 0.953979
Zn8   Zn    Zn3+2 0.990640 0.401310 0.416020 0.952396

loop_
_geom_bond_atom_site_label_1
_geom_bond_atom_site_label_2
_ccdc_geom_bond_type
O34   Zn8   S    
C47   H36   S    
C21   C26   D    
O8    Zn8   S    
C32   H89   S    
C23   O34   A    
C68   O30   S    
C35   H7    S    
C41   C42   S    
C14   C18   D    
C37   H10   S    
O6    Zn6   S    
C35   C36   S    
C70   H72   S    
C42   H25   S    
C31   H78   S    
O19   Zn2   S    
C39   H16   S    
C64   H60   S    
C28   H34   S    
C1    C21   S    
C54   H53   S    
C50   H43   S    
C73   H82   S    
C24   O28   S    
C4    O37   A    
C6    O2    A    
C48   O26   S    
C50   H42   S    
O1    Zn1   S    
C36   C37   S    
C53   H50   S    
C3    O15   A    
C40   H20   S    
C38   C39   S    
C12   O9    A    
C6    C14   S    
C20   C25   D    
C71   H75   S    
C38   H14   S    
C7    O3    A    
C75   H85   S    
C43   H27   S    
C19   C26   S    
O3    Zn3   S    
C43   H26   S    
C53   H49   S    
O13   Zn4   S    
C65   H62   S    
C49   H39   S    
C31   C32   S    
C44   C46   S    
C68   C69   S    
C30   H56   S    
O12   Zn4   S    
O7    Zn7   S    
C23   C24   S    
C41   H21   S    
C57   H58   S    
C76   H88   S    
C45   C78   S    
C11   C58   S    
C33   H4    S    
C67   O31   S    
C35   O21   S    
C48   H38   S    
C3    O36   A    
C72   H77   S    
C47   H35   S    
O5    Zn5   S    
C51   H46   S    
O1    Zn5   S    
C12   C20   S    
C67   C78   D    
C40   H18   S    
C54   H52   S    
C42   H24   S    
C1    O10   A    
O15   Zn5   S    
C44   H30   S    
C36   H9    S    
O9    Zn3   S    
C22   C34   S    
O33   Zn5   S    
C74   C75   S    
C37   H13   S    
C18   O22   S    
C50   H41   S    
O35   Zn7   S    
C12   O33   A    
C76   H87   S    
C58   N1    T    
C70   H74   S    
C5    O17   A    
O17   Zn7   S    
C40   H19   S    
C74   H84   S    
C52   H48   S    
C72   C73   S    
O10   Zn3   S    
C66   H65   S    
C36   H8    S    
C54   O28   S    
C71   H76   S    
O12   Zn8   S    
C73   H80   S    
C27   H23   S    
C72   H79   S    
C51   C52   S    
O16   Zn8   S    
C75   H86   S    
C43   H28   S    
O1    Zn3   S    
C3    C13   S    
C34   O11   A    
C15   C19   D    
C75   C76   S    
C20   O25   S    
C34   O35   A    
C32   H2    S    
C65   H63   S    
C11   C16   D    
C10   C30   S    
C49   H40   S    
C55   H54   S    
C35   H6    S    
C6    O16   A    
C15   C61   S    
C41   H22   S    
C57   H59   S    
C8    O19   A    
C61   N4    T    
C46   C47   S    
C4    C11   S    
C33   H5    S    
O12   Zn2   S    
C39   H17   S    
C9    O6    A    
C48   H37   S    
C13   C59   S    
C48   C49   S    
O37   Zn1   S    
C64   O29   S    
O38   Zn2   S    
C65   C66   S    
C22   C27   D    
C46   H32   S    
C8    C77   S    
C10   O8    A    
O1    Zn6   S    
O2    Zn2   S    
C7    O18   A    
C17   O21   S    
C53   H51   S    
C42   C43   S    
C21   O26   S    
O23   Zn6   S    
C59   N2    T    
C74   H83   S    
O18   Zn1   S    
C39   C40   S    
C68   H68   S    
C52   C53   S    
C63   N6    T    
C74   O32   S    
C44   H29   S    
C51   H44   S    
C5    O38   A    
C54   C55   S    
C10   O7    A    
C19   O24   S    
C22   O27   S    
C17   C28   S    
C25   H1    S    
C60   N3    T    
C62   C78   S    
C1    O23   A    
C70   H73   S    
C24   C28   D    
C41   O24   S    
C9    O5    A    
C31   O20   S    
C52   H47   S    
C66   H64   S    
O14   Zn6   S    
C26   H12   S    
O36   Zn1   S    
C14   C60   S    
O12   Zn7   S    
C73   H81   S    
O11   Zn4   S    
O4    Zn4   S    
C69   H71   S    
C64   C65   S    
C4    O14   A    
C55   C57   S    
C2    C63   S    
C71   C72   S    
C2    C77   D    
C18   C25   S    
C77   O32   S    
C32   C33   S    
C23   O13   A    
C9    C29   S    
C62   N5    T    
C30   C56   D    
C16   C27   S    
C47   H33   S    
C29   H45   S    
C38   H15   S    
C45   O29   S    
C37   H11   S    
C38   O22   S    
C76   H90   S    
C69   C70   S    
C55   H55   S    
C5    C15   S    
C16   O20   S    
C56   O30   S    
C7    C67   S    
C13   C17   D    
C31   H67   S    
C8    O4    A    
C71   O31   S    
C66   H66   S    
C44   O25   S    
C49   C50   S    
C46   H31   S    
C29   C45   D    
C69   H70   S    
C57   H57   S    
C2    C56   S    
C33   H3    S    
C51   O27   S    
C68   H69   S    
C64   H61   S    
