data_mof_unit_43965.cif
_audit_creation_date              2012-12-11T15:35:58-0500
_audit_creation_method            fapswitch 2.2
_symmetry_space_group_name_H-M    P1
_symmetry_Int_Tables_number       1
_space_group_crystal_system       triclinic
_cell_length_a                    7.074834
_cell_length_b                    11.872737
_cell_length_c                    35.810007
_cell_angle_alpha                 90.000016
_cell_angle_beta                  90.341068
_cell_angle_gamma                 90.000225
_cell_volume                      3007.90290431

loop_
_atom_site_label
_atom_site_type_symbol
_atom_type_description
_atom_site_fract_x
_atom_site_fract_y
_atom_site_fract_z
_atom_type_partial_charge
O1    O     O_R   0.379730 0.148600 0.662710 -0.537241
O2    O     O_R   0.620270 0.851400 0.337290 -0.536351
O3    O     O_R   0.120270 0.648600 0.337290 -0.537240
O4    O     O_R   0.879730 0.351400 0.662710 -0.536348
O5    O     O_R   0.722480 0.134490 0.741330 -0.538476
O6    O     O_R   0.277520 0.865510 0.258670 -0.538639
O7    O     O_R   0.777520 0.634490 0.258670 -0.538475
O8    O     O_R   0.222480 0.365510 0.741330 -0.538639
O9    O     O_R   0.892880 0.345890 0.741600 -0.537804
O10   O     O_R   0.107120 0.654110 0.258400 -0.528766
O11   O     O_R   0.607120 0.845890 0.258400 -0.537804
O12   O     O_R   0.392880 0.154110 0.741600 -0.528765
C1    C     C_R   0.553505 0.118588 0.755865 0.708411
C2    C     C_R   0.447274 0.890600 0.247070 0.712471
C3    C     C_R   0.946495 0.618588 0.244135 0.708413
C4    C     C_R   0.052726 0.390601 0.752930 0.712471
O13   O     O_R   0.709490 0.135560 0.662990 -0.537889
O14   O     O_R   0.290510 0.864440 0.337010 -0.539102
O15   O     O_R   0.790510 0.635560 0.337010 -0.537889
O16   O     O_R   0.209490 0.364440 0.662990 -0.539105
C5    C     C_R   0.540726 0.107864 0.651006 0.704119
C6    C     C_R   0.459280 0.892022 0.349026 0.685642
C7    C     C_R   0.959273 0.607864 0.348994 0.704117
C8    C     C_R   0.040720 0.392022 0.650973 0.685645
O17   O     O_3   0.552800 0.316610 0.702160 -0.372145
O18   O     O_3   0.447200 0.683390 0.297840 -0.366038
O19   O     O_3   0.947200 0.816610 0.297840 -0.372146
O20   O     O_3   0.052800 0.183390 0.702160 -0.366039
V1    V     V_3+5 0.827630 0.234380 0.702160 1.455443
V2    V     V_3+5 0.172370 0.765620 0.297840 1.456347
V3    V     V_3+5 0.672370 0.734380 0.297840 1.455442
V4    V     V_3+5 0.327630 0.265620 0.702160 1.456348
C9    C     C_R   0.944789 0.723512 0.894715 0.508499
C10   C     C_R   0.969922 0.389497 0.072495 0.550847
C11   C     C_R   0.555209 0.223513 0.105285 0.508498
C12   C     C_R   0.530077 0.889498 0.927505 0.550848
O21   O     O_2   0.855662 0.624381 0.899939 -0.555362
O22   O     O_2   0.909392 0.495952 0.067577 -0.552221
O23   O     O_2   0.644336 0.124382 0.100061 -0.555363
O24   O     O_2   0.590608 0.995952 0.932423 -0.552221
N1    N     N_R   0.005243 0.755539 0.859561 -0.541471
N2    N     N_R   0.999801 0.346583 0.108167 -0.549018
N3    N     N_R   0.494756 0.255540 0.140438 -0.541471
N4    N     N_R   0.500199 0.846584 0.891833 -0.549018
C13   C     C_R   0.061192 0.866565 0.854836 0.581344
C14   C     C_R   0.058465 0.235980 0.110778 0.569533
C15   C     C_R   0.438807 0.366565 0.145164 0.581344
C16   C     C_R   0.441534 0.735980 0.889222 0.569533
C17   C     C_R   0.997445 0.684564 0.790641 0.443918
C18   C     C_R   0.926392 0.368564 0.178488 0.409816
C19   C     C_R   0.502555 0.184564 0.209358 0.443918
C20   C     C_R   0.573608 0.868565 0.821512 0.409815
C21   C     C_R   0.007285 0.592473 0.766259 -0.174050
C22   C     C_R   0.925556 0.435099 0.210886 -0.145293
C23   C     C_R   0.492715 0.092473 0.233741 -0.174052
C24   C     C_R   0.574444 0.935099 0.789114 -0.145292
C25   C     C_R   0.076235 0.465945 0.816899 -0.237095
C26   C     C_R   0.004634 0.598738 0.175235 -0.218372
C27   C     C_R   0.423764 0.965945 0.183100 -0.237095
C28   C     C_R   0.495366 0.098738 0.824765 -0.218372
C29   C     C_R   0.068667 0.555723 0.841661 -0.049625
C30   C     C_R   0.013943 0.533140 0.142556 -0.117738
C31   C     C_R   0.431331 0.055723 0.158339 -0.049626
C32   C     C_R   0.486056 0.033141 0.857444 -0.117738
C33   C     C_R   0.022159 0.667414 0.830299 0.301667
C34   C     C_R   0.974844 0.415724 0.142568 0.255807
C35   C     C_R   0.477839 0.167414 0.169701 0.301667
C36   C     C_R   0.525155 0.915725 0.857432 0.255807
C37   C     C_R   0.010876 0.907837 0.920360 -0.019976
C38   C     C_R   0.026479 0.205302 0.044335 -0.040054
C39   C     C_R   0.489123 0.407837 0.079640 -0.019975
C40   C     C_R   0.473520 0.705303 0.955665 -0.040054
C41   C     C_R   0.971982 0.793532 0.925841 -0.032512
C42   C     C_R   0.995761 0.321323 0.040143 -0.021001
C43   C     C_R   0.528017 0.293533 0.074159 -0.032512
C44   C     C_R   0.504239 0.821324 0.959857 -0.021001
C45   C     C_R   0.956030 0.751657 0.962153 -0.140668
C46   C     C_R   0.982457 0.365176 0.003789 -0.118319
C47   C     C_R   0.543968 0.251657 0.037847 -0.140667
C48   C     C_R   0.517543 0.865176 0.996211 -0.118319
C49   C     C_R   0.039405 0.946447 0.883931 -0.036716
C50   C     C_R   0.053193 0.162467 0.080226 0.008527
C51   C     C_R   0.460595 0.446447 0.116069 -0.036717
C52   C     C_R   0.446805 0.662468 0.919774 0.008527
C53   C     C_R   0.041005 0.483696 0.779315 -0.094030
C54   C     C_R   0.958793 0.550007 0.209603 -0.082393
C55   C     C_R   0.458996 0.983696 0.220684 -0.094030
C56   C     C_R   0.541206 0.050007 0.790397 -0.082392
H1    H     H_    0.110840 0.382497 0.827152 0.113139
H2    H     H_    0.035896 0.687939 0.173693 0.118262
H3    H     H_    0.389159 0.882497 0.172848 0.113139
H4    H     H_    0.464103 0.187939 0.826307 0.118262
H5    H     H_    0.104190 0.536563 0.870246 0.157020
H6    H     H_    0.061595 0.575706 0.117792 0.178996
H7    H     H_    0.395808 0.036562 0.129754 0.157021
H8    H     H_    0.438404 0.075706 0.882208 0.178996
H9    H     H_    0.926348 0.663415 0.967160 0.163567
H10   H     H_    0.959802 0.454419 0.999340 0.157777
H11   H     H_    0.573651 0.163416 0.032840 0.163567
H12   H     H_    0.540198 0.954420 0.000660 0.157777
C57   C     C_R   0.035467 0.013274 0.018711 0.030286
C58   C     C_R   0.028795 0.101335 0.945024 0.074641
C59   C     C_R   0.464531 0.513274 0.981289 0.030286
C60   C     C_R   0.471205 0.601335 0.054976 0.074640
C61   C     C_R   0.018777 0.176483 0.976244 0.024060
C62   C     C_R   0.013564 0.939191 0.987967 0.023564
C63   C     C_R   0.481223 0.676483 0.023756 0.024060
C64   C     C_R   0.486435 0.439192 0.012033 0.023564
C65   C     C_R   0.027754 0.131608 0.012923 0.055841
C66   C     C_R   0.018693 0.983181 0.951221 0.102771
C67   C     C_R   0.472245 0.631608 0.987076 0.055841
C68   C     C_R   0.481307 0.483181 0.048779 0.102772
C69   C     C_R   0.063466 0.972878 0.055345 -0.177830
C70   C     C_R   0.046400 0.139067 0.907684 -0.166710
C71   C     C_R   0.436532 0.472878 0.944655 -0.177829
C72   C     C_R   0.453600 0.639067 0.092316 -0.166711
C73   C     C_R   0.072769 0.046171 0.085393 -0.100167
C74   C     C_R   0.055152 0.062788 0.877857 -0.158073
C75   C     C_R   0.427229 0.546172 0.914607 -0.100167
C76   C     C_R   0.444848 0.562788 0.122143 -0.158072
O25   O     O_2   0.124238 0.194768 0.143017 -0.516203
O26   O     O_2   0.149608 0.899777 0.823584 -0.515863
O27   O     O_2   0.375761 0.694768 0.856983 -0.516203
O28   O     O_2   0.350392 0.399777 0.176416 -0.515863
C77   C     C_R   0.981487 0.822363 0.992695 -0.162097
C78   C     C_R   0.997477 0.294728 0.972464 -0.188132
C79   C     C_R   0.518511 0.322364 0.007305 -0.162098
C80   C     C_R   0.502523 0.794728 0.027536 -0.188131
H13   H     H_    0.893025 0.396290 0.237495 0.142455
H14   H     H_    0.986500 0.606123 0.736566 0.119485
H15   H     H_    0.606976 0.896290 0.762505 0.142454
H16   H     H_    0.513500 0.106123 0.263434 0.119487
H17   H     H_    0.087069 0.010277 0.113045 0.149039
H18   H     H_    0.074007 0.095420 0.849874 0.154572
H19   H     H_    0.412929 0.510278 0.886956 0.149040
H20   H     H_    0.425993 0.595420 0.150126 0.154572
H21   H     H_    0.082866 0.884799 0.061637 0.118367
H22   H     H_    0.061114 0.227074 0.900829 0.108345
H23   H     H_    0.417131 0.384800 0.938363 0.118367
H24   H     H_    0.438887 0.727074 0.099171 0.108345
H25   H     H_    0.964523 0.783931 0.019741 0.141773
H26   H     H_    0.983906 0.334708 0.945541 0.134037
H27   H     H_    0.535476 0.283932 0.980259 0.141773
H28   H     H_    0.516094 0.834708 0.054459 0.134037
C81   C     C_R   0.966300 0.526816 0.379578 -0.050617
C82   C     C_R   0.034190 0.469773 0.619472 -0.074678
C83   C     C_R   0.533702 0.026812 0.620423 -0.050622
C84   C     C_R   0.465807 0.969772 0.380528 -0.074686
C85   C     C_R   0.900860 0.341152 0.403554 -0.145252
C86   C     C_R   0.094959 0.653722 0.593750 -0.143450
C87   C     C_R   0.599193 0.841154 0.596446 -0.145246
C88   C     C_R   0.404970 0.153708 0.406253 -0.143443
C89   C     C_R   0.917474 0.414435 0.373416 -0.169175
C90   C     C_R   0.072702 0.583949 0.624644 -0.169316
C91   C     C_R   0.582571 0.914437 0.626584 -0.169175
C92   C     C_R   0.427246 0.083942 0.375358 -0.169314
C93   C     C_R   0.005367 0.564798 0.415692 -0.207413
C94   C     C_R   0.009549 0.426376 0.583537 -0.109874
C95   C     C_R   0.494605 0.064787 0.584310 -0.207406
C96   C     C_R   0.490470 0.926375 0.416463 -0.109863
C97   C     C_R   0.000805 0.490584 0.446525 0.069240
C98   C     C_R   0.018665 0.496616 0.551739 0.097368
C99   C     C_R   0.499186 0.990573 0.553476 0.069226
C100  C     C_R   0.481324 0.996609 0.448262 0.097372
C101  C     C_R   0.934953 0.379607 0.440077 0.087350
C102  C     C_R   0.075611 0.609992 0.557477 0.025663
C103  C     C_R   0.565073 0.879604 0.559924 0.087362
C104  C     C_R   0.424340 0.109978 0.442525 0.025668
C105  C     C_R   0.043101 0.526191 0.483764 -0.130103
C106  C     C_R   0.986312 0.456613 0.514471 -0.008385
C107  C     C_R   0.456875 0.026175 0.516237 -0.130092
C108  C     C_R   0.513685 0.956605 0.485529 -0.008362
C109  C     C_R   0.895711 0.351562 0.506740 0.400539
C110  C     C_R   0.136139 0.630443 0.491589 0.343293
C111  C     C_R   0.604309 0.851561 0.493261 0.400518
C112  C     C_R   0.363805 0.130415 0.508413 0.343293
C113  C     C_R   0.886803 0.311178 0.470011 -0.272306
C114  C     C_R   0.131249 0.675524 0.527319 -0.189934
C115  C     C_R   0.613231 0.811177 0.529990 -0.272285
C116  C     C_R   0.368680 0.175500 0.472683 -0.189931
H29   H     H_    0.825480 0.229015 0.464545 0.128664
H30   H     H_    0.191094 0.758473 0.532033 0.153761
H31   H     H_    0.674578 0.729020 0.535456 0.128657
H32   H     H_    0.308810 0.258442 0.467971 0.153759
H33   H     H_    0.000664 0.336037 0.581282 0.171947
H34   H     H_    0.025291 0.654314 0.419299 0.165686
H35   H     H_    0.499387 0.836037 0.418716 0.171932
H36   H     H_    0.474649 0.154300 0.580702 0.165680
H37   H     H_    0.094641 0.617634 0.652454 0.112666
H38   H     H_    0.884731 0.384816 0.345500 0.115588
H39   H     H_    0.405284 0.117625 0.347549 0.112669
H40   H     H_    0.615340 0.884824 0.654500 0.115591
H41   H     H_    0.853102 0.255718 0.398467 0.130907
H42   H     H_    0.135798 0.740749 0.598170 0.129104
H43   H     H_    0.646984 0.755726 0.601533 0.130908
H44   H     H_    0.364094 0.240728 0.401835 0.129108
O29   O     O_3   0.802135 0.293390 0.534487 -0.655969
H45   H     H_    0.749533 0.222165 0.524368 0.292347
O30   O     O_3   0.246914 0.686642 0.466149 -0.649219
H46   H     H_    0.309587 0.629247 0.450363 0.291313
O31   O     O_3   0.697895 0.793396 0.465513 -0.655974
H47   H     H_    0.750481 0.722164 0.475631 0.292342
O32   O     O_3   0.253007 0.186595 0.533854 -0.649226
H48   H     H_    0.190359 0.129192 0.549639 0.291320
O33   O     O_3   0.876588 0.258243 0.184191 -0.627538
H49   H     H_    0.819503 0.229882 0.160987 0.312010
O34   O     O_3   0.961436 0.786010 0.773487 -0.625252
H50   H     H_    0.901187 0.836641 0.791306 0.324064
O35   O     O_3   0.623411 0.758244 0.815809 -0.627538
H51   H     H_    0.680496 0.729883 0.839013 0.312009
O36   O     O_3   0.538564 0.286011 0.226513 -0.625251
H52   H     H_    0.598812 0.336641 0.208694 0.324064

loop_
_geom_bond_atom_site_label_1
_geom_bond_atom_site_label_2
_ccdc_geom_bond_type
C26   C30   A    
C103  C115  A    
O32   H48   S    
C94   H33   S    
O1    C5    A    
C96   C100  A    
O13   V1    S    
O31   H47   S    
O3    C7    A    
C10   N2    A    
C107  C108  A    
C73   H17   S    
C11   N3    A    
C16   O27   S    
C28   C56   A    
O33   H49   S    
C7    C81   S    
C62   C77   A    
C11   C43   A    
C110  O30   S    
C18   C22   A    
C17   C33   A    
C61   C78   A    
C32   C36   A    
C47   H11   S    
O20   V1    S    
O9    C4    A    
C63   C80   A    
O10   C3    A    
C52   C75   A    
N2    C14   A    
O4    C8    A    
O11   C2    A    
C113  H29   S    
C24   C56   A    
C57   C65   A    
C86   C102  A    
C31   H7    S    
C101  C113  A    
C58   C61   A    
C59   C67   A    
C84   C96   A    
C87   H43   S    
C5    C83   S    
C85   C89   A    
C86   H42   S    
C61   C65   A    
C12   C44   A    
C85   H41   S    
C98   C102  A    
C19   O36   S    
C88   C92   A    
C77   H25   S    
C82   C90   A    
C46   H10   S    
C105  C110  A    
C14   O25   S    
C45   H9    S    
C59   C64   A    
C102  C114  A    
C15   C51   A    
C83   C91   A    
C110  C114  A    
C115  H31   S    
O4    V1    S    
C20   C36   A    
C108  C111  A    
O9    V1    S    
C97   C105  A    
O17   V4    S    
O7    C3    A    
C40   C67   A    
O15   V3    S    
O18   V3    S    
O8    C4    A    
C60   C72   A    
O12   V4    S    
O19   V2    S    
C23   C55   A    
C112  O32   S    
C38   C50   A    
C26   C54   A    
C107  C112  A    
C88   C104  A    
C95   H36   S    
O16   V4    S    
C39   C51   A    
C89   H38   S    
C28   H4    S    
O17   V1    S    
C48   H12   S    
C31   C35   A    
C40   C52   A    
O7    V3    S    
C88   H44   S    
C109  O29   S    
O34   H50   S    
O8    V4    S    
C105  C106  A    
C14   C50   A    
C12   O24   S    
C85   C101  A    
C93   H34   S    
C111  O31   S    
C60   C68   A    
C30   C34   A    
O15   C7    A    
C19   C35   A    
C99   C107  A    
C48   C80   A    
C104  C116  A    
O19   V3    S    
C49   C74   A    
C78   H26   S    
O1    V4    S    
O13   C5    A    
C16   C52   A    
C37   C49   A    
O2    V3    S    
C76   H20   S    
C51   C76   A    
O3    V2    S    
C11   O23   S    
C18   O33   S    
C38   C42   A    
C59   C71   A    
C58   C70   A    
C38   C65   A    
C29   C33   A    
O6    C2    A    
C18   C34   A    
C37   C66   A    
O10   V2    S    
C112  C116  A    
O36   H52   S    
C98   C106  A    
O20   V4    S    
C99   C103  A    
C39   C68   A    
C75   H19   S    
O35   H51   S    
C40   C44   A    
C79   H27   S    
C37   C41   A    
C80   H28   S    
C32   H8    S    
C70   C74   A    
C25   H1    S    
C26   H2    S    
C3    C54   S    
C69   C73   A    
C100  C104  A    
C9    C41   A    
O6    V2    S    
C90   H37   S    
C10   C42   A    
O18   V2    S    
C71   C75   A    
C30   H6    S    
C86   C90   A    
O14   V2    S    
C95   C99   A    
C27   H3    S    
N4    C36   S    
C46   C78   A    
O5    V1    S    
C93   C97   A    
C45   C77   A    
C22   C54   A    
C83   C95   A    
C62   C66   A    
C64   C68   A    
C57   C62   A    
C100  C108  A    
C47   C79   A    
N1    C13   A    
C10   O22   S    
C63   C67   A    
C22   H13   S    
C13   C49   A    
C44   C48   A    
C6    C84   S    
N3    C15   A    
C74   H18   S    
C2    C55   S    
C111  C115  A    
C25   C29   A    
C82   C94   A    
C87   C103  A    
C13   O26   S    
C114  H30   S    
C81   C93   A    
C27   C31   A    
C87   C91   A    
C50   C73   A    
C28   C32   A    
C69   H21   S    
C9    N1    A    
O14   C6    A    
C20   O35   S    
C81   C89   A    
N4    C16   A    
C8    C82   S    
O2    C6    A    
C39   C43   A    
C15   O28   S    
C4    C53   S    
C20   C24   A    
C58   C66   A    
C17   C21   A    
O5    C1    A    
C1    C56   S    
C25   C53   A    
C9    O21   S    
C19   C23   A    
C70   H22   S    
C64   C79   A    
N1    C33   S    
O29   H45   S    
C57   C69   A    
C27   C55   A    
C24   H15   S    
C12   N4    A    
C91   H40   S    
C94   C98   A    
O11   V3    S    
C92   H39   S    
C72   C76   A    
O30   H46   S    
O12   C1    A    
N3    C35   S    
C23   H16   S    
C42   C46   A    
N2    C34   S    
C41   C45   A    
C21   C53   A    
C21   H14   S    
C84   C92   A    
C96   H35   S    
C72   H24   S    
C109  C113  A    
C71   H23   S    
C29   H5    S    
C43   C47   A    
O16   C8    A    
C60   C63   A    
C97   C101  A    
C116  H32   S    
C17   O34   S    
C106  C109  A    
