data_mof_unit_6363.cif
_audit_creation_date              2012-12-11T15:21:29-0500
_audit_creation_method            fapswitch 2.2
_symmetry_space_group_name_H-M    P1
_symmetry_Int_Tables_number       1
_space_group_crystal_system       triclinic
_cell_length_a                    8.29814
_cell_length_b                    12.798617
_cell_length_c                    18.994329
_cell_angle_alpha                 94.690577
_cell_angle_beta                  94.48526
_cell_angle_gamma                 98.353514
_cell_volume                      1980.88241336

loop_
_atom_site_label
_atom_site_type_symbol
_atom_type_description
_atom_site_fract_x
_atom_site_fract_y
_atom_site_fract_z
_atom_type_partial_charge
Ba1   Ba    Ba6+2 0.160910 0.552960 0.466220 1.643015
Ba2   Ba    Ba6+2 0.649260 0.447030 0.533730 1.629579
C1    C     C_3   0.379378 0.803787 0.194405 -0.369520
C2    C     C_3   0.413010 0.777896 0.270032 0.355295
C3    C     C_3   0.555381 0.773752 0.620221 0.245341
C4    C     C_3   0.515454 0.884255 0.628988 0.203937
C5    C     C_3   0.906068 0.176470 0.693403 0.350693
C6    C     C_3   0.924574 0.070113 0.720071 -0.408033
C7    C     C_3   0.375929 0.124474 0.724175 0.336127
C8    C     C_3   0.343750 0.029005 0.769588 -0.165791
C9    C     C_R   0.069445 0.181934 0.527535 -0.285422
C10   C     C_R   0.737662 0.814202 0.466874 -0.238124
C11   C     C_R   0.707724 0.993695 0.440308 -0.068717
C12   C     C_3   0.924000 0.840424 0.302452 0.357971
C13   C     C_R   0.644773 0.885014 0.436352 0.042446
C14   C     C_R   0.889205 0.848917 0.505498 0.056272
C15   C     C_R   0.951601 0.961105 0.511439 -0.074339
C16   C     C_R   0.859692 0.034703 0.478530 -0.059046
C17   C     C_R   0.920253 0.147328 0.488065 0.054370
C18   C     C_R   0.162690 0.111038 0.555427 -0.009931
C19   C     C_R   0.102948 0.002503 0.549448 -0.087918
C20   C     C_R   0.616013 0.542945 0.299214 -0.290092
C21   C     C_R   0.459390 0.489533 0.276949 0.042001
C22   C     C_R   0.400591 0.484446 0.205080 -0.075714
C23   C     C_3   0.871470 0.928947 0.262038 -0.415819
C24   C     C_R   0.501012 0.529214 0.154897 0.016339
C25   C     C_R   0.661792 0.577562 0.178439 -0.155870
C26   C     C_R   0.718775 0.583495 0.250080 0.014095
C27   C     C_R   0.481350 0.615036 0.040803 -0.160505
C28   C     C_R   0.425825 0.614963 0.969391 -0.086998
C29   C     C_R   0.327671 0.525586 0.932989 0.029227
C30   C     C_R   0.288359 0.435773 0.969743 -0.134771
C31   C     C_R   0.344448 0.434721 0.041684 0.394807
C32   C     C_R   0.440119 0.526044 0.078308 0.059325
C33   C     C_R   0.118958 0.465574 0.828920 -0.124234
C34   C     C_3   0.775641 0.321889 0.322016 0.298716
C35   C     C_R   0.076434 0.449063 0.755610 0.034398
C36   C     C_R   0.337663 0.543872 0.734406 0.038931
C37   C     C_R   0.378665 0.567423 0.808102 -0.143542
C38   C     C_R   0.272971 0.522319 0.856143 0.007397
C39   C     C_R   0.186402 0.486415 0.708835 -0.285583
C40   C     C_3   0.774246 0.301092 0.242557 -0.382478
C41   C     C_3   0.052891 0.699206 0.682639 0.310684
C42   C     C_3   0.055215 0.732389 0.761327 -0.394633
C43   C     C_3   0.273968 0.224289 0.376641 0.288787
C44   C     C_3   0.284116 0.107855 0.353599 -0.190414
H1    H     H_    0.342448 0.698951 0.275429 0.089606
H2    H     H_    0.662617 0.246336 0.220261 0.110776
H3    H     H_    0.777965 0.376321 0.217715 0.079644
H4    H     H_    0.883282 0.265944 0.229247 0.137236
H5    H     H_    0.176563 0.686643 0.670399 -0.001032
H6    H     H_    0.963914 0.625328 0.669029 0.054899
H7    H     H_    0.146374 0.804613 0.776668 0.110788
H8    H     H_    0.087353 0.668803 0.792807 0.073477
H9    H     H_    0.933074 0.749159 0.773886 0.127548
H10   H     H_    0.153749 0.230527 0.396549 -0.027213
H11   H     H_    0.371776 0.253472 0.419758 0.074939
H12   H     H_    0.247448 0.809380 0.182831 0.157117
H13   H     H_    0.161807 0.066108 0.331426 0.088530
H14   H     H_    0.318873 0.069392 0.401219 0.101622
H15   H     H_    0.545716 0.775050 0.279640 -0.077698
H16   H     H_    0.411885 0.739964 0.157516 0.068377
H17   H     H_    0.687360 0.776122 0.613380 0.005428
H18   H     H_    0.479847 0.732609 0.572020 0.071072
H19   H     H_    0.569846 0.922042 0.681052 0.061200
H20   H     H_    0.382155 0.879738 0.627547 0.095684
H21   H     H_    0.454885 0.880194 0.185819 0.099322
H22   H     H_    0.761685 0.897811 0.225507 0.110038
H23   H     H_    0.812399 0.162938 0.646749 0.075216
H24   H     H_    0.026317 0.210579 0.676123 -0.063396
H25   H     H_    0.807159 0.016835 0.712206 0.092737
H26   H     H_    0.007960 0.029826 0.687685 0.073814
H27   H     H_    0.969971 0.080805 0.777424 0.133492
H28   H     H_    0.252212 0.141839 0.709782 -0.021226
H29   H     H_    0.210097 0.014368 0.777180 0.054305
H30   H     H_    0.023009 0.874429 0.343923 0.075075
H31   H     H_    0.363628 0.954242 0.740969 0.101292
H32   H     H_    0.632725 0.046243 0.417302 0.083043
H33   H     H_    0.177824 0.951484 0.573722 0.116850
H34   H     H_    0.118931 0.265400 0.532978 0.065511
H35   H     H_    0.686252 0.731205 0.464243 0.052810
H36   H     H_    0.497246 0.611987 0.826880 0.070405
H37   H     H_    0.458913 0.685400 0.942844 0.073313
H38   H     H_    0.556345 0.685761 0.066901 0.079682
H39   H     H_    0.276797 0.446253 0.188850 0.135974
H40   H     H_    0.217830 0.364607 0.941890 0.048413
H41   H     H_    0.816372 0.805275 0.328513 -0.066630
H42   H     H_    0.033214 0.432439 0.864341 0.078175
H43   H     H_    0.743816 0.609105 0.141113 0.080071
H44   H     H_    0.153483 0.470463 0.652255 0.066044
H45   H     H_    0.661707 0.547376 0.354514 0.070762
H46   H     H_    0.842829 0.992854 0.299341 0.079630
H47   H     H_    0.969298 0.962683 0.230668 0.128340
H48   H     H_    0.658703 0.344751 0.335428 -0.020930
H49   H     H_    0.875856 0.387758 0.339748 0.091305
O1    O     O_2   0.160820 0.763040 0.533820 -0.473897
O2    O     O_3   0.290425 0.281446 0.317522 -0.634765
O3    O     O_3   0.983266 0.767389 0.255746 -0.591374
O4    O     O_2   0.649470 0.236890 0.466160 -0.469528
O5    O     O_3   0.919320 0.371390 0.464540 -0.494072
O6    O     O_3   0.424350 0.301430 0.591880 -0.483891
O7    O     O_3   0.797778 0.229187 0.352729 -0.651838
O8    O     O_3   0.382770 0.553920 0.582990 -0.482487
O9    O     O_3   0.848220 0.355290 0.626830 -0.486879
O10   O     O_2   0.742326 0.423049 0.748734 -0.496991
O11   O     O_3   0.857477 0.243995 0.747664 -0.615238
O12   O     O_3   0.890970 0.628600 0.535400 -0.491180
O13   O     O_3   0.427530 0.446070 0.416950 -0.497130
O14   O     O_2   0.637430 0.550200 0.669460 -0.443547
O15   O     O_3   0.521875 0.730787 0.683645 -0.679689
O16   O     O_2   0.470305 0.119391 0.529350 -0.425492
O17   O     O_3   0.449079 0.097822 0.661359 -0.600787
O18   O     O_3   0.385950 0.698560 0.408070 -0.487807
O19   O     O_2   0.309437 0.883556 0.449888 -0.448163
O20   O     O_3   0.008316 0.781515 0.646181 -0.651049
O21   O     O_3   0.363543 0.855334 0.316909 -0.610655
O22   O     O_2   0.172860 0.449730 0.330520 -0.458676
O23   O     O_3   0.962080 0.644700 0.373110 -0.481722
O24   O     O_2   0.053398 0.573698 0.248574 -0.495969
P1    P     P_3+3 0.986780 0.745970 0.554690 0.965352
P2    P     P_3+3 0.341450 0.417130 0.341310 0.982571
P3    P     P_3+3 0.930445 0.639444 0.280982 0.957240
P4    P     P_3+3 0.823520 0.254020 0.445250 0.967688
P5    P     P_3+3 0.881996 0.371457 0.719347 0.932322
P6    P     P_3+3 0.428673 0.834266 0.403305 0.974011
P7    P     P_3+3 0.470732 0.594258 0.669290 0.944154
P8    P     P_3+3 0.375084 0.161262 0.588554 0.962099
C45   C     C_3   0.412639 0.096956 0.300144 -0.127873
C46   C     C_3   0.337620 0.080914 0.223668 -0.375700
H50   H     H_    0.249613 0.005888 0.214520 0.136111
H51   H     H_    0.273550 0.148646 0.210280 0.172593
H52   H     H_    0.435470 0.074688 0.187722 0.106773
H53   H     H_    0.506744 0.167867 0.306832 0.135525
H54   H     H_    0.479806 0.030729 0.310477 0.121644
O25   O     O_3   0.571520 0.943257 0.575926 -0.710836
H55   H     H_    0.685722 0.974327 0.591791 0.286178
C47   C     C_3   0.482559 0.223918 0.761906 -0.156337
C48   C     C_3   0.382940 0.307430 0.786818 -0.456552
H56   H     H_    0.283474 0.310004 0.744766 0.099761
H57   H     H_    0.334638 0.294118 0.839501 0.125392
H58   H     H_    0.462331 0.386274 0.791184 0.169829
H59   H     H_    0.570034 0.209638 0.805337 0.132989
H60   H     H_    0.557694 0.258928 0.721136 0.188560
C49   C     C_3   0.428957 0.038416 0.846136 -0.230937
C50   C     C_3   0.610456 0.026953 0.850364 -0.394284
H61   H     H_    0.656601 0.036952 0.797175 0.155758
H62   H     H_    0.686965 0.088274 0.890022 0.127809
H63   H     H_    0.626285 0.947111 0.865170 0.123950
H64   H     H_    0.365393 0.974576 0.874669 0.113622
H65   H     H_    0.411573 0.113661 0.875220 0.116833
O26   O     O_3   0.313111 0.343954 0.075872 -0.756825
H66   H     H_    0.245262 0.287457 0.042955 0.295709

loop_
_geom_bond_atom_site_label_1
_geom_bond_atom_site_label_2
_ccdc_geom_bond_type
C47   H59   S    
Ba2   O14   S    
C23   H47   S    
C44   H13   S    
C34   C40   S    
C48   H56   S    
C40   H4    S    
O13   P2    S    
C45   C46   S    
C5    H24   S    
C50   H61   S    
C5    C6    S    
C21   P2    S    
Ba2   P4    S    
C9    C17   A    
C24   C25   A    
C27   C28   A    
C4    H20   S    
C11   C16   A    
C30   H40   S    
C44   C45   S    
C33   C35   A    
C22   C24   A    
C12   H41   S    
Ba1   Ba2   S    
C14   P1    S    
C28   C29   A    
C26   P3    S    
C41   H6    S    
C1    H16   S    
O18   P6    S    
C3    O15   S    
Ba2   O12   S    
C29   C38   S    
C3    H17   S    
C34   O7    S    
C36   C39   A    
O23   P3    S    
C28   H37   S    
O8    P7    S    
O22   P2    D    
O17   P8    S    
O2    P2    S    
C50   H62   S    
C7    C47   S    
C42   H7    S    
C24   C32   S    
C4    H19   S    
C10   C14   A    
C43   H10   S    
C14   C15   A    
C6    H25   S    
C49   H65   S    
C20   H45   S    
C34   H49   S    
C7    C8    S    
Ba1   O8    S    
C46   H52   S    
C41   O20   S    
C7    O17   S    
C39   H44   S    
C47   H60   S    
O26   H66   S    
Ba2   O5    S    
C20   C26   A    
C23   H22   S    
Ba1   O18   S    
Ba1   O5    S    
C36   P7    S    
C8    H31   S    
O1    P1    D    
C12   O3    S    
C36   C37   A    
C43   H11   S    
C9    C18   A    
C6    H26   S    
O25   H55   S    
C27   H38   S    
C31   O26   S    
C37   C38   A    
O19   P6    D    
C16   C17   A    
C40   H2    S    
C40   H3    S    
Ba2   O6    S    
C43   C44   S    
C2    H15   S    
C15   C19   A    
O10   P5    D    
Ba1   P1    S    
C12   H30   S    
C41   C42   S    
C49   H64   S    
C45   H54   S    
C35   P5    S    
C33   H42   S    
C29   C30   A    
C10   C13   A    
Ba2   O9    S    
C21   C22   A    
C17   P4    S    
C19   H33   S    
C15   C16   A    
C5    O11   S    
Ba1   O22   S    
C48   H57   S    
C18   P8    S    
O15   P7    S    
Ba2   O4    S    
O21   P6    S    
C11   C13   A    
O16   P8    D    
C4    O25   S    
C7    H28   S    
O7    P4    S    
O12   P1    S    
C50   H63   S    
O4    P4    D    
C46   H50   S    
C22   H39   S    
O24   P3    D    
O3    P3    S    
C11   H32   S    
C23   H46   S    
C44   H14   S    
C8    C49   S    
C2    O21   S    
C1    H21   S    
C37   H36   S    
C49   C50   S    
C48   H58   S    
C5    H23   S    
O9    P5    S    
C47   C48   S    
O5    P4    S    
C30   C31   A    
C33   C38   A    
C43   O2    S    
C45   H53   S    
C42   H9    S    
C41   H5    S    
C3    C4    S    
Ba2   O8    S    
Ba1   O1    S    
C27   C32   A    
Ba2   O13   S    
C6    H27   S    
O6    P8    S    
C31   C32   A    
C10   H35   S    
C25   H43   S    
Ba1   O23   S    
C12   C23   S    
C35   C39   A    
Ba1   P2    S    
C9    H34   S    
Ba1   O13   S    
Ba1   O12   S    
C1    H12   S    
C42   H8    S    
O14   P7    D    
C34   H48   S    
C18   C19   A    
C3    H18   S    
O20   P1    S    
C13   P6    S    
O11   P5    S    
C25   C26   A    
C20   C21   A    
C2    H1    S    
C1    C2    S    
C46   H51   S    
C8    H29   S    
