data_mof_unit_21265.cif
_audit_creation_date              2012-12-10T16:32:39-0500
_audit_creation_method            fapswitch 2.2
_symmetry_space_group_name_H-M    P1
_symmetry_Int_Tables_number       1
_space_group_crystal_system       triclinic
_cell_length_a                    16.989369
_cell_length_b                    17.142698
_cell_length_c                    16.960101
_cell_angle_alpha                 65.37056
_cell_angle_beta                  65.779002
_cell_angle_gamma                 65.021678
_cell_volume                      3902.18980371

loop_
_atom_site_label
_atom_site_type_symbol
_atom_type_description
_atom_site_fract_x
_atom_site_fract_y
_atom_site_fract_z
_atom_type_partial_charge
C1    C     C_R   0.589337 0.043513 0.586750 -0.046209
C2    C     C_R   0.823777 0.569216 0.022499 0.974842
C3    C     C_3   0.760708 0.518949 0.714339 0.093756
C4    C     C_3   0.706495 0.605468 0.658107 -0.436013
C5    C     C_3   0.617943 0.596369 0.665287 -0.971013
C6    C     C_R   0.436351 0.966024 0.178433 0.963819
C7    C     C_R   0.565822 0.030504 0.821867 0.966498
C8    C     C_R   0.561756 0.821475 0.039910 0.930429
C9    C     C_R   0.433029 0.177146 0.972919 0.974934
C10   C     C_R   0.030872 0.564729 0.821770 0.947105
C11   C     C_R   0.971268 0.433582 0.178096 0.975955
C12   C     C_R   0.820992 0.039487 0.561489 0.927388
C13   C     C_R   0.178164 0.972174 0.433055 0.973417
C14   C     C_R   0.548387 0.012386 0.545292 -0.103541
C15   C     C_R   0.414978 0.958756 0.411370 -0.067296
C16   C     C_R   0.467962 0.959383 0.465961 -0.133957
C17   C     C_R   0.957017 0.570729 0.558104 -0.139812
C18   C     C_R   0.933598 0.472094 0.474170 -0.124799
C19   C     C_R   0.545002 0.549044 0.013327 -0.124253
C20   C     C_R   0.453839 0.453777 0.993380 -0.165346
C21   C     C_R   0.604332 0.953585 0.490826 0.275965
C22   C     C_R   0.420455 0.980247 0.548486 0.323244
C23   C     C_R   0.905332 0.510029 0.610748 0.329690
C24   C     C_R   0.936196 0.561663 0.428799 0.358112
C25   C     C_R   0.468153 0.596075 0.980750 0.317100
C26   C     C_R   0.990624 0.607567 0.602051 -0.041878
C27   C     C_R   0.545040 0.413438 0.997877 0.351797
C28   C     C_R   0.564845 0.935864 0.441830 0.353840
C29   C     C_R   0.453404 0.027292 0.573316 0.396418
C30   C     C_R   0.417382 0.548838 0.979064 0.326328
C31   C     C_R   0.583466 0.455390 0.022956 0.362315
C32   C     C_R   0.910315 0.447754 0.571055 0.315942
C33   C     C_R   0.968849 0.600753 0.463298 0.350910
C34   C     C_R   0.554565 0.034869 0.679594 0.517104
C35   C     C_R   0.454463 0.956153 0.321379 0.610493
C36   C     C_R   0.992329 0.696758 0.566387 0.559558
C37   C     C_R   0.946058 0.413218 0.419020 -0.085173
C38   C     C_R   0.950984 0.321397 0.456133 0.612772
C39   C     C_R   0.685817 0.574341 0.001697 0.517519
C40   C     C_R   0.309246 0.435285 0.997924 0.638108
C41   C     C_R   0.319170 0.978601 0.440069 0.572898
C42   C     C_R   0.672358 0.063975 0.541360 0.607217
C43   C     C_R   0.436627 0.307664 0.998775 0.578745
C44   C     C_R   0.544184 0.675066 0.060561 0.614205
C45   C     C_R   0.966916 0.443900 0.323071 0.605131
C46   C     C_R   0.014395 0.557884 0.683860 0.599694
C47   C     C_R   0.599387 0.047035 0.725036 -0.188475
C48   C     C_R   0.591016 0.598823 0.027750 -0.044137
C49   C     C_R   0.405906 0.947897 0.275532 -0.209389
C50   C     C_R   0.026832 0.730979 0.603977 -0.182889
C51   C     C_R   0.947149 0.275281 0.405242 -0.211889
C52   C     C_R   0.729099 0.607791 0.029978 -0.169895
C53   C     C_R   0.271262 0.398038 0.966922 -0.209919
C54   C     C_R   0.275136 0.958748 0.399038 -0.223344
C55   C     C_R   0.722468 0.062103 0.592238 -0.225407
C56   C     C_R   0.397948 0.270714 0.967810 -0.218029
C57   C     C_R   0.594035 0.724070 0.060090 -0.211829
C58   C     C_R   0.954951 0.400374 0.275667 -0.221809
C59   C     C_R   0.401178 0.399575 0.993753 -0.069591
C60   C     C_R   0.037040 0.599144 0.726317 -0.192325
C61   C     C_R   0.681505 0.063441 0.680626 -0.426655
C62   C     C_R   0.321873 0.935835 0.320168 -0.415799
C63   C     C_R   0.051849 0.681070 0.681533 -0.450896
C64   C     C_R   0.935972 0.320044 0.320330 -0.423555
C65   C     C_R   0.682806 0.682906 0.059295 -0.422590
C66   C     C_R   0.320625 0.320985 0.941751 -0.437489
C67   C     C_3   0.323917 0.074516 0.687665 0.249157
C68   C     C_3   0.234535 0.114817 0.663395 -0.302653
C69   C     C_3   0.166384 0.065164 0.733568 -0.918901
C70   C     C_R   0.966607 0.178356 0.435587 0.966778
C71   C     C_3   0.700252 0.900322 0.323396 0.223750
C72   C     C_3   0.697945 0.000106 0.276067 -0.240950
C73   C     C_3   0.793872 0.007457 0.234615 -0.953239
C74   C     C_3   0.986717 0.730809 0.342933 0.268000
C75   C     C_3   0.031609 0.722015 0.247405 -0.337819
C76   C     C_3   0.985304 0.801471 0.179727 -1.004401
C77   C     C_3   0.911438 0.322767 0.704059 0.182915
C78   C     C_3   0.013069 0.299015 0.691048 -0.288094
C79   C     C_3   0.031114 0.261630 0.783255 -0.910266
C80   C     C_3   0.730326 0.355365 0.021927 0.262848
C81   C     C_R   0.025693 0.823210 0.567424 0.956094
C82   C     C_3   0.750376 0.253858 0.068188 -0.343590
C83   C     C_3   0.842667 0.202755 0.016940 -1.021448
C84   C     C_3   0.273366 0.664941 0.987542 0.255606
C85   C     C_3   0.261470 0.654028 0.087051 -0.273395
C86   C     C_3   0.245852 0.744327 0.097894 -0.866765
C87   C     C_3   0.366456 0.858624 0.642379 0.034637
C88   C     C_3   0.292646 0.825854 0.648299 -0.272135
C89   C     C_3   0.304832 0.727396 0.705079 -0.974597
C90   C     C_3   0.724536 0.837207 0.539690 0.088228
C91   C     C_3   0.761329 0.844601 0.604795 -0.289220
C92   C     C_R   0.177121 0.433406 0.972507 0.967545
C93   C     C_3   0.785498 0.756929 0.678526 -0.901555
C94   C     C_3   0.621248 0.352712 0.880192 0.077338
C95   C     C_3   0.679704 0.265291 0.855302 -0.311545
C96   C     C_3   0.691861 0.276590 0.757226 -0.950278
C97   C     C_3   0.451727 0.727554 0.864982 0.087893
C98   C     C_3   0.534573 0.759081 0.824445 -0.329812
C99   C     C_3   0.536982 0.818521 0.728624 -0.974161
C100  C     C_3   0.811942 0.656957 0.377561 0.064457
C101  C     C_3   0.753505 0.598059 0.401089 -0.366037
C102  C     C_3   0.654336 0.654183 0.409932 -0.882689
F1    F     F_    0.482918 0.003503 0.729148 -0.698226
F2    F     F_    0.452538 0.702868 0.091556 -0.633226
F3    F     F_    0.015226 0.503340 0.274545 -0.610950
F4    F     F_    0.011937 0.471760 0.723914 -0.646002
F5    F     F_    0.530655 0.980544 0.272924 -0.642239
F6    F     F_    0.947034 0.754591 0.504728 -0.701689
F7    F     F_    0.978284 0.272604 0.531818 -0.628654
F8    F     F_    0.735637 0.527987 0.940156 -0.701946
F9    F     F_    0.253434 0.489972 0.051094 -0.630818
F10   F     F_    0.266494 0.033972 0.492738 -0.621904
F11   F     F_    0.707949 0.077332 0.450632 -0.620071
F12   F     F_    0.493649 0.250933 0.050484 -0.593842
H1    H     H_    0.718133 0.066876 0.717938 0.232245
H2    H     H_    0.245450 0.111708 0.595711 0.322168
H3    H     H_    0.193674 0.992695 0.737743 0.279895
H4    H     H_    0.102628 0.093487 0.714334 0.275026
H5    H     H_    0.151500 0.071207 0.801285 0.240982
H6    H     H_    0.722220 0.870027 0.268434 0.124807
H7    H     H_    0.753725 0.861098 0.358284 0.127473
H8    H     H_    0.664721 0.029750 0.221357 0.255203
H9    H     H_    0.660078 0.041865 0.322974 0.261490
H10   H     H_    0.831542 0.972815 0.286266 0.295451
H11   H     H_    0.790907 0.079247 0.208733 0.280813
H12   H     H_    0.287413 0.924099 0.286564 0.232917
H13   H     H_    0.830568 0.977340 0.177850 0.244274
H14   H     H_    0.000808 0.788712 0.342453 0.184229
H15   H     H_    0.911775 0.749891 0.361758 0.113944
H16   H     H_    0.102385 0.719549 0.229264 0.216429
H17   H     H_    0.032857 0.658499 0.243885 0.318677
H18   H     H_    0.913374 0.805090 0.198166 0.269347
H19   H     H_    0.020070 0.792821 0.111057 0.269274
H20   H     H_    0.988666 0.865335 0.178397 0.261325
H21   H     H_    0.895441 0.258177 0.732539 0.150055
H22   H     H_    0.870563 0.356672 0.757388 0.149256
H23   H     H_    0.073758 0.710088 0.711913 0.223780
H24   H     H_    0.051754 0.248671 0.653159 0.247578
H25   H     H_    0.037907 0.358371 0.651401 0.255206
H26   H     H_    0.990746 0.311182 0.822272 0.309297
H27   H     H_    0.103617 0.247789 0.774556 0.269923
H28   H     H_    0.012355 0.198542 0.822908 0.240107
H29   H     H_    0.784999 0.374044 0.022792 0.201165
H30   H     H_    0.735963 0.372047 0.949346 0.143658
H31   H     H_    0.750560 0.239333 0.138379 0.229340
H32   H     H_    0.697425 0.229641 0.072142 0.291633
H33   H     H_    0.846312 0.220547 0.944946 0.258487
H34   H     H_    0.928153 0.285795 0.283996 0.236293
H35   H     H_    0.853852 0.129156 0.047315 0.278817
H36   H     H_    0.897535 0.219441 0.020178 0.267682
H37   H     H_    0.207119 0.669676 0.985024 0.145146
H38   H     H_    0.281770 0.730860 0.941559 0.101080
H39   H     H_    0.202234 0.629306 0.131648 0.217338
H40   H     H_    0.319274 0.603971 0.113054 0.249352
H41   H     H_    0.300764 0.774206 0.050310 0.333328
H42   H     H_    0.244062 0.734534 0.167499 0.276220
H43   H     H_    0.181216 0.793147 0.084150 0.226554
H44   H     H_    0.367822 0.841578 0.712295 0.136025
H45   H     H_    0.718216 0.715243 0.070877 0.230267
H46   H     H_    0.433067 0.820812 0.604422 0.118516
H47   H     H_    0.224882 0.867666 0.679185 0.236267
H48   H     H_    0.295433 0.832076 0.579542 0.211913
H49   H     H_    0.372160 0.684108 0.675392 0.270878
H50   H     H_    0.251421 0.705096 0.706736 0.269954
H51   H     H_    0.299078 0.719229 0.775553 0.270690
H52   H     H_    0.780964 0.792544 0.500479 0.168234
H53   H     H_    0.671570 0.803017 0.575900 0.108287
H54   H     H_    0.821767 0.867960 0.565092 0.281661
H55   H     H_    0.711632 0.894729 0.639714 0.180640
H56   H     H_    0.291696 0.293023 0.917186 0.227536
H57   H     H_    0.724690 0.747158 0.735464 0.259487
H58   H     H_    0.833141 0.759399 0.706116 0.260826
H59   H     H_    0.816961 0.698831 0.651572 0.292615
H60   H     H_    0.659785 0.402013 0.843720 0.080844
H61   H     H_    0.559595 0.380494 0.857082 0.134136
H62   H     H_    0.747130 0.244038 0.865402 0.192681
H63   H     H_    0.647506 0.211350 0.900236 0.272927
H64   H     H_    0.625568 0.291740 0.747429 0.263871
H65   H     H_    0.738094 0.213246 0.740285 0.272535
H66   H     H_    0.721375 0.332037 0.710611 0.284217
H67   H     H_    0.315463 0.104490 0.738548 0.156796
H68   H     H_    0.392333 0.787895 0.854848 0.148769
H69   H     H_    0.457081 0.683497 0.828477 0.133133
H70   H     H_    0.531172 0.798479 0.864453 0.265403
H71   H     H_    0.596318 0.699863 0.825421 0.207529
H72   H     H_    0.547122 0.779199 0.685669 0.241625
H73   H     H_    0.590533 0.849836 0.702499 0.291129
H74   H     H_    0.472742 0.873402 0.727413 0.294914
H75   H     H_    0.798295 0.714710 0.317619 0.166846
H76   H     H_    0.791748 0.685886 0.433268 0.076573
H77   H     H_    0.777956 0.565573 0.347212 0.231641
H78   H     H_    0.338977 0.000865 0.722709 0.164406
H79   H     H_    0.758268 0.544715 0.466245 0.212910
H80   H     H_    0.629017 0.689638 0.461492 0.275539
H81   H     H_    0.612802 0.609554 0.430945 0.259905
H82   H     H_    0.646568 0.704772 0.344058 0.275476
H83   H     H_    0.725830 0.515537 0.786671 0.186651
H84   H     H_    0.756478 0.460661 0.705706 0.157132
H85   H     H_    0.689721 0.661234 0.684281 0.242197
H86   H     H_    0.746159 0.621693 0.586080 0.208159
H87   H     H_    0.632140 0.542701 0.636468 0.278152
H88   H     H_    0.578131 0.660736 0.626916 0.258646
H89   H     H_    0.207102 0.187173 0.659357 0.192712
H90   H     H_    0.576910 0.579585 0.737156 0.254802
O1    O     O_R   0.982940 0.138950 0.510160 -0.556604
O2    O     O_R   0.982940 0.510160 0.138950 -0.553799
O3    O     O_R   0.861050 0.017060 0.489840 -0.572003
O4    O     O_R   0.138950 0.982940 0.510160 -0.575964
O5    O     O_R   0.867700 0.025880 0.612340 -0.647924
O6    O     O_R   0.132300 0.974120 0.387660 -0.644599
O7    O     O_R   0.025880 0.612340 0.867700 -0.652678
O8    O     O_R   0.974120 0.387660 0.132300 -0.649277
O9    O     O_R   0.612340 0.867700 0.025880 -0.644149
O10   O     O_R   0.387660 0.132300 0.974120 -0.643296
O11   O     O_R   0.387660 0.974120 0.132300 -0.642193
O12   O     O_R   0.017060 0.861050 0.489840 -0.580770
O13   O     O_R   0.612340 0.025880 0.867700 -0.657184
O14   O     O_R   0.132300 0.387660 0.974120 -0.643274
O15   O     O_R   0.867700 0.612340 0.025880 -0.653611
O16   O     O_R   0.974120 0.132300 0.387660 -0.642278
O17   O     O_R   0.025880 0.867700 0.612340 -0.653108
O18   O     O_3   0.395696 0.097643 0.611101 -0.602472
O19   O     O_3   0.616200 0.884769 0.381350 -0.615032
O20   O     O_3   0.026715 0.652683 0.405286 -0.595217
O21   O     O_3   0.883899 0.370442 0.623259 -0.606433
O22   O     O_3   0.646937 0.403528 0.071859 -0.612484
O23   O     O_R   0.138950 0.510160 0.982940 -0.575517
O24   O     O_3   0.339875 0.594888 0.949315 -0.627359
O25   O     O_3   0.344101 0.953655 0.605201 -0.592834
O26   O     O_3   0.697432 0.922856 0.477691 -0.585685
O27   O     O_3   0.599249 0.334914 0.974865 -0.578793
O28   O     O_3   0.437779 0.688589 0.958786 -0.584996
O29   O     O_3   0.905618 0.610598 0.352851 -0.595639
O30   O     O_3   0.851463 0.515188 0.697427 -0.578184
O31   O     O_R   0.861050 0.489840 0.017060 -0.599315
O32   O     O_R   0.510160 0.982940 0.138950 -0.555221
O33   O     O_R   0.489840 0.017060 0.861050 -0.564331
O34   O     O_R   0.489840 0.861050 0.017060 -0.586117
O35   O     O_R   0.510160 0.138950 0.982940 -0.586145
O36   O     O_R   0.017060 0.489840 0.861050 -0.558396
Zn1   Zn    Zn3+2 0.004880 0.004880 0.583590 1.002433
Zn2   Zn    Zn3+2 0.995120 0.995120 0.416410 1.011022
Zn3   Zn    Zn3+2 0.004880 0.583590 0.004880 1.008465
Zn4   Zn    Zn3+2 0.995120 0.416410 0.995120 0.996207
Zn5   Zn    Zn3+2 0.583590 0.004880 0.004880 1.006192
Zn6   Zn    Zn3+2 0.416410 0.995120 0.995120 1.005073

loop_
_geom_bond_atom_site_label_1
_geom_bond_atom_site_label_2
_ccdc_geom_bond_type
C16   C28   A    
C87   C88   S    
C25   O28   S    
C10   O36   A    
C101  C102  S    
C22   C29   A    
C51   C70   S    
C90   H53   S    
C36   F6    S    
C39   C48   A    
C95   C96   S    
C65   H45   S    
C64   H34   S    
C19   C31   A    
C78   H25   S    
C5    H90   S    
C99   H73   S    
C97   C98   S    
C44   F2    S    
C97   H68   S    
C93   H58   S    
C20   C30   A    
C77   C78   S    
C70   O1    A    
C77   O21   S    
C17   C23   A    
C71   H6    S    
C60   C63   A    
C18   C24   A    
C17   C26   S    
C14   C21   A    
C18   C37   S    
O13   Zn5   S    
C12   O5    A    
C98   H71   S    
C28   O19   S    
C43   F12   S    
C5    H87   S    
C11   O8    A    
C88   H48   S    
C81   O12   A    
C9    C56   S    
C88   H47   S    
C98   C99   S    
C74   O20   S    
C69   H4    S    
O36   Zn4   S    
C3    H84   S    
C87   H46   S    
C69   H3    S    
C86   H42   S    
C75   C76   S    
C24   O29   S    
C67   H67   S    
C23   O30   S    
C95   H63   S    
C4    H85   S    
C74   H14   S    
C6    O11   A    
O2    Zn3   S    
C92   O23   A    
C45   F3    S    
C68   C69   S    
C80   H30   S    
C41   F10   S    
C35   C49   A    
C56   C66   A    
O32   Zn5   S    
C77   H22   S    
O14   Zn4   S    
C11   C58   S    
C89   H50   S    
C73   H13   S    
C75   H16   S    
C43   C59   A    
C94   H61   S    
C83   H36   S    
C46   C60   A    
C80   H29   S    
C32   O21   S    
C79   H26   S    
C66   H56   S    
C19   C48   S    
C96   H65   S    
C40   C59   A    
C102  H81   S    
C68   H89   S    
C58   C64   A    
C50   C63   A    
C63   H23   S    
C100  O29   S    
C17   C33   A    
C53   C92   S    
O1    Zn1   S    
C102  H80   S    
C15   C35   A    
C99   H74   S    
C82   H32   S    
C101  H79   S    
C1    C34   A    
C97   H69   S    
C40   F9    S    
C39   F8    S    
O12   Zn2   S    
C29   O18   S    
O31   Zn4   S    
C45   C58   A    
C71   O19   S    
C74   C75   S    
C91   H55   S    
C27   C31   A    
C67   C68   S    
C12   O3    A    
C7    O33   A    
C91   H54   S    
O4    Zn1   S    
O6    Zn2   S    
C80   C82   S    
C8    O9    A    
O3    Zn2   S    
O5    Zn1   S    
C5    H88   S    
C62   H12   S    
C76   H20   S    
C67   H78   S    
C4    C5    S    
O17   Zn1   S    
C38   C51   A    
C54   C62   A    
C87   O25   S    
O16   Zn2   S    
C69   H5    S    
C15   C16   S    
C70   O16   A    
C92   O14   A    
C38   F7    S    
C7    O13   A    
C67   O18   S    
C10   C60   S    
C95   H62   S    
C84   H37   S    
C9    O35   A    
C37   C38   A    
C30   O24   S    
C8    C57   S    
C91   C93   S    
C43   C56   A    
C42   F11   S    
C4    H86   S    
C44   C57   A    
C73   H10   S    
O34   Zn6   S    
O7    Zn3   S    
C13   O4    A    
O10   Zn6   S    
C86   H41   S    
C85   H39   S    
C84   C85   S    
C20   C59   S    
O9    Zn5   S    
C53   C66   A    
C89   H51   S    
C85   C86   S    
C2    C52   S    
C68   H2    S    
C83   H33   S    
C84   H38   S    
C27   O27   S    
C11   O2    A    
C21   C28   A    
C94   H60   S    
C40   C53   A    
C100  H75   S    
C2    O15   A    
C74   H15   S    
C18   C32   A    
C14   C29   A    
C37   C45   A    
C3    C4    S    
C84   O24   S    
C82   H31   S    
C36   C50   A    
C13   C54   S    
C26   C36   A    
C25   C30   A    
C6    O32   A    
C93   H57   S    
C16   C22   A    
C49   C62   A    
C72   H8    S    
C78   C79   S    
C13   O6    A    
C71   H7    S    
C10   O7    A    
C100  H76   S    
C51   C64   A    
C34   F1    S    
C57   C65   A    
C72   C73   S    
C101  H77   S    
C102  H82   S    
C47   C61   A    
C76   H19   S    
C1    C14   S    
C20   C27   A    
C8    O34   A    
C9    O10   A    
C81   O17   A    
C24   C33   A    
C87   H44   S    
O35   Zn5   S    
C96   H64   S    
C23   C32   A    
C96   H66   S    
O11   Zn6   S    
C72   H9    S    
C3    O30   S    
C61   H1    S    
C78   H24   S    
O23   Zn3   S    
C76   H18   S    
C90   C91   S    
C79   H27   S    
C22   O25   S    
C42   C55   A    
C73   H11   S    
C21   O26   S    
C55   C61   A    
C93   H59   S    
C100  C101  S    
C3    H83   S    
O15   Zn3   S    
O33   Zn6   S    
C39   C52   A    
C85   H40   S    
C6    C49   S    
C98   H70   S    
C94   C95   S    
C19   C25   A    
C86   H43   S    
C41   C54   A    
C12   C55   S    
C35   F5    S    
C46   F4    S    
C15   C41   A    
C2    O31   A    
C79   H28   S    
C33   O20   S    
C1    C42   A    
C71   C72   S    
C88   C89   S    
C75   H17   S    
C97   O28   S    
O8    Zn4   S    
C82   C83   S    
C31   O22   S    
C90   O26   S    
C34   C47   A    
C77   H21   S    
C80   O22   S    
C26   C46   A    
C89   H49   S    
C99   H72   S    
C90   H52   S    
C52   C65   A    
C44   C48   A    
C50   C81   S    
C7    C47   S    
C94   O27   S    
C83   H35   S    
