data_mof_unit_22748.cif
_audit_creation_date              2013-03-05T16:07:48-0500
_audit_creation_method            fapswitch 2.2
_symmetry_space_group_name_H-M    P1
_symmetry_Int_Tables_number       1
_space_group_crystal_system       triclinic
_cell_length_a                    11.306308
_cell_length_b                    14.380333
_cell_length_c                    13.056292
_cell_angle_alpha                 89.96007
_cell_angle_beta                  90.238954
_cell_angle_gamma                 89.897269
_cell_volume                      2122.78019278

loop_
_atom_site_label
_atom_site_type_symbol
_atom_site_description
_atom_site_fract_x
_atom_site_fract_y
_atom_site_fract_z
_atom_type_partial_charge
O1    O     O_R   0.500000 0.376050 0.578280 -0.566205
O2    O     O_R   0.500000 0.376050 0.421720 -0.561343
C1    C     C_R   0.499573 0.328638 0.500062 0.831997
O3    O     O_R   0.317680 0.499980 0.578260 -0.558299
O4    O     O_R   0.317680 0.499980 0.421740 -0.567392
O5    O     O_R   0.682320 0.499980 0.578260 -0.568960
O6    O     O_R   0.682320 0.499980 0.421740 -0.550283
C2    C     C_R   0.257191 0.509548 0.499582 0.802892
C3    C     C_R   0.742556 0.510922 0.500578 0.804589
Cu1   Cu    Cu3+1 0.500000 0.499990 0.592680 0.966946
Cu2   Cu    Cu3+1 0.500000 0.499990 0.407320 0.972349
O7    O     O_R   0.500000 0.623940 0.578240 -0.578188
O8    O     O_R   0.500000 0.623940 0.421760 -0.575067
C4    C     C_R   0.499541 0.671373 0.500058 0.759868
C5    C     C_3   0.080712 0.451674 0.600915 0.114635
C6    C     C_3   0.065635 0.461755 0.392807 0.134083
C7    C     C_3   0.934127 0.457677 0.606054 0.133299
C8    C     C_3   0.919322 0.460711 0.395484 0.127582
C9    C     C_3   0.075476 0.630822 0.508647 -0.001457
C10   C     C_3   0.925166 0.631990 0.497321 -0.003213
C11   C     C_3   0.120986 0.514076 0.499281 -0.152189
C12   C     C_3   0.878961 0.515804 0.501484 -0.158948
C13   C     C_1   0.499100 0.227170 0.500309 -0.235972
C14   C     C_1   0.498805 0.142306 0.500587 -0.033063
C15   C     C_1   0.498759 0.042535 0.500839 -0.023440
C16   C     C_1   0.498883 0.957716 0.500928 -0.009284
C17   C     C_1   0.499102 0.857956 0.500830 0.004892
C18   C     C_1   0.499276 0.773136 0.500500 -0.242701
N1    N     N_1   0.500000 0.500020 0.268070 -0.127827
N2    N     N_1   0.500000 0.500020 0.731930 -0.132335
C19   C     C_1   0.499956 0.500082 0.173431 0.183772
C20   C     C_1   0.500020 0.500083 0.826567 0.182677
C21   C     C_1   0.499970 0.500108 0.050701 -0.037055
C22   C     C_1   0.499989 0.500109 0.949295 -0.035781
Br1   Br    Br    0.135307 0.507002 0.735392 -0.533154
Br2   Br    Br    0.130978 0.529999 0.273499 -0.526467
Br3   Br    Br    0.869274 0.525779 0.726032 -0.524910
Br4   Br    Br    0.862016 0.516957 0.262587 -0.531172
C23   C     C_R   0.151691 0.350034 0.615601 0.032702
C24   C     C_R   0.252749 0.339338 0.683970 -0.009849
C25   C     C_R   0.296534 0.254010 0.718917 -0.178478
C26   C     C_R   0.248523 0.171980 0.683793 -0.111683
C27   C     C_R   0.164330 0.175961 0.607307 -0.112855
C28   C     C_R   0.123204 0.261823 0.571130 -0.227735
H1    H     H_    0.302370 0.396075 0.715597 0.199560
H2    H     H_    0.369230 0.252036 0.773200 0.130961
H3    H     H_    0.282781 0.105717 0.709973 0.127073
H4    H     H_    0.137044 0.112167 0.569962 0.126062
H5    H     H_    0.092205 0.252265 0.496217 0.146961
C29   C     C_R   0.114646 0.366398 0.349072 0.085699
C30   C     C_R   0.060876 0.327970 0.258981 -0.018078
C31   C     C_R   0.104992 0.249641 0.209151 -0.139180
C32   C     C_R   0.208773 0.208545 0.242879 -0.139231
C33   C     C_R   0.268650 0.246577 0.325620 -0.142529
C34   C     C_R   0.223900 0.324544 0.377024 -0.080548
H6    H     H_    0.985683 0.360229 0.222964 0.191473
H7    H     H_    0.059862 0.222404 0.142341 0.130581
H8    H     H_    0.243934 0.148157 0.203921 0.124274
H9    H     H_    0.350134 0.214604 0.349843 0.142752
H10   H     H_    0.271925 0.345042 0.443617 0.141666
C35   C     C_R   0.882778 0.364043 0.653087 0.094637
C36   C     C_R   0.938991 0.323077 0.740698 -0.018550
C37   C     C_R   0.894977 0.244370 0.789834 -0.141226
C38   C     C_R   0.790159 0.204633 0.756932 -0.141508
C39   C     C_R   0.729391 0.243991 0.675237 -0.140053
C40   C     C_R   0.773913 0.322245 0.624429 -0.067560
H11   H     H_    0.016416 0.352801 0.775112 0.194514
H12   H     H_    0.941536 0.215326 0.855104 0.130717
H13   H     H_    0.755320 0.143866 0.795318 0.124259
H14   H     H_    0.647542 0.212714 0.651253 0.142708
H15   H     H_    0.725710 0.344202 0.558260 0.146657
C41   C     C_R   0.851953 0.361577 0.380677 0.048165
C42   C     C_R   0.753690 0.342172 0.312543 -0.012192
C43   C     C_R   0.710380 0.252223 0.295815 -0.181679
C44   C     C_R   0.758863 0.177407 0.348278 -0.114760
C45   C     C_R   0.846732 0.193941 0.420076 -0.112622
C46   C     C_R   0.888280 0.284433 0.434518 -0.233645
H16   H     H_    0.705152 0.394542 0.271087 0.188555
H17   H     H_    0.637627 0.241085 0.243059 0.131013
H18   H     H_    0.724706 0.107892 0.336895 0.131822
H19   H     H_    0.879461 0.137833 0.467764 0.132878
H20   H     H_    0.936634 0.299999 0.497577 0.134239
C47   C     C_R   0.127569 0.674880 0.614747 0.097934
C48   C     C_R   0.067619 0.697707 0.708755 -0.034074
C49   C     C_R   0.122167 0.742520 0.791492 -0.105511
C50   C     C_R   0.240892 0.764796 0.787623 -0.135399
C51   C     C_R   0.304861 0.741042 0.701542 -0.107897
C52   C     C_R   0.249117 0.696919 0.619090 -0.044946
H21   H     H_    0.979415 0.679347 0.725376 0.211912
H22   H     H_    0.071939 0.758231 0.859837 0.142350
H23   H     H_    0.283568 0.798897 0.851718 0.126266
H24   H     H_    0.398136 0.757030 0.698497 0.128448
H25   H     H_    0.301093 0.680592 0.555694 0.114118
C53   C     C_R   0.135320 0.708627 0.430401 0.034469
C54   C     C_R   0.091305 0.802385 0.419822 -0.180607
C55   C     C_R   0.150547 0.874739 0.370334 -0.137758
C56   C     C_R   0.256358 0.858169 0.321810 -0.106465
C57   C     C_R   0.300672 0.768875 0.321503 -0.119692
C58   C     C_R   0.243165 0.697875 0.375080 -0.128062
H26   H     H_    0.001213 0.820587 0.431203 0.141977
H27   H     H_    0.110188 0.942962 0.364845 0.125581
H28   H     H_    0.301561 0.913414 0.281542 0.118014
H29   H     H_    0.382080 0.754324 0.281065 0.130911
H30   H     H_    0.289101 0.636445 0.369070 0.210493
C59   C     C_R   0.865602 0.707813 0.578120 0.042678
C60   C     C_R   0.756064 0.696773 0.630744 -0.124201
C61   C     C_R   0.698110 0.766812 0.685613 -0.118394
C62   C     C_R   0.744213 0.855338 0.690090 -0.106451
C63   C     C_R   0.851836 0.871920 0.644728 -0.138098
C64   C     C_R   0.911018 0.800505 0.593329 -0.183109
H31   H     H_    0.708982 0.635799 0.633205 0.208888
H32   H     H_    0.615302 0.752095 0.723646 0.129138
H33   H     H_    0.698906 0.909834 0.731652 0.117286
H34   H     H_    0.893249 0.939325 0.653774 0.125067
H35   H     H_    0.001474 0.818171 0.583241 0.140726
C65   C     C_R   0.874016 0.679435 0.392560 0.092388
C66   C     C_R   0.752458 0.701825 0.388070 -0.046596
C67   C     C_R   0.697723 0.749184 0.307040 -0.105031
C68   C     C_R   0.762851 0.776197 0.222860 -0.133112
C69   C     C_R   0.881468 0.753207 0.218834 -0.105214
C70   C     C_R   0.934806 0.704736 0.299774 -0.034021
H36   H     H_    0.699615 0.682811 0.449968 0.109895
H37   H     H_    0.604295 0.765092 0.309523 0.128228
H38   H     H_    0.720993 0.812939 0.160014 0.125111
H39   H     H_    0.932398 0.770883 0.151512 0.140120
H40   H     H_    0.022492 0.685144 0.282384 0.211797

loop_
_geom_bond_atom_site_label_1
_geom_bond_atom_site_label_2
_geom_bond_distance
_ccdc_geom_bond_type
C28   H5    1.046837 S    
C59   C64   1.442857 A    
C6    C11   1.698882 S    
C32   H8    1.082557 S    
C25   C26   1.377472 A    
C1    C13   1.459164 S    
C54   C55   1.397826 A    
C66   H36   1.043630 S    
O5    C3    1.234176 A    
C56   C57   1.377539 A    
C68   H38   1.082453 S    
C65   C66   1.411991 A    
O6    Cu2   2.069163 S    
C16   C17   1.434587 S    
C41   C46   1.374198 A    
C36   H11   1.072030 S    
C53   C58   1.428005 A    
C9    C11   1.759532 S    
C6    C29   1.585704 S    
O4    Cu2   2.070728 S    
C50   H23   1.082428 S    
C49   C50   1.381713 A    
C3    C12   1.543961 S    
C60   C61   1.399835 A    
C57   H29   1.083148 S    
C62   C63   1.376639 A    
O6    C3    1.242124 A    
C30   H6    1.074259 S    
C42   C43   1.400850 A    
C67   C68   1.381406 A    
C7    C35   1.591166 S    
C33   C34   1.401903 A    
C35   C40   1.419660 A    
C47   C48   1.442353 A    
C25   H2    1.083377 S    
C19   C21   1.602400 S    
O8    C4    1.229372 A    
C44   H18   1.082432 S    
C56   H28   1.082532 S    
O3    C2    1.239148 A    
C60   H31   1.027126 S    
C34   H10   1.065209 S    
C58   H30   1.027160 S    
C8    C12   1.660356 S    
C55   H27   1.083453 S    
C53   C54   1.442679 A    
C9    C47   1.631877 S    
O2    Cu2   1.792056 S    
C5    Br1   2.022730 S    
C26   H3    1.082577 S    
C29   C30   1.433421 A    
C33   H9    1.075190 S    
C8    C41   1.628762 S    
C24   H1    1.072911 S    
C49   H22   1.083442 S    
C65   C70   1.442074 A    
C30   C31   1.393743 A    
C48   C49   1.399788 A    
C14   C15   1.434730 S    
Cu1   Cu2   2.420116 S    
C23   C24   1.454872 A    
C10   C65   1.631401 S    
C52   H25   1.043753 S    
C69   H39   1.083149 S    
C15   C16   1.219728 T    
C32   C33   1.385828 A    
C42   H16   1.075524 S    
O1    C1    1.228300 A    
C20   C22   1.602368 S    
C62   H33   1.082809 S    
C44   C45   1.384067 A    
C36   C37   1.394248 A    
Cu1   N2    1.818089 S    
C40   H15   1.066840 S    
C61   C62   1.377675 A    
C55   C56   1.376538 A    
C21   C22   1.323996 T    
C61   H32   1.082760 S    
C7    Br3   1.989906 S    
C38   H13   1.082701 S    
C45   C46   1.396922 A    
C5    C23   1.676674 S    
C9    C53   1.661389 S    
Cu1   O7    1.792255 S    
C63   H34   1.083543 S    
C24   C25   1.397877 A    
O7    C4    1.227280 A    
C39   C40   1.401271 A    
C43   H17   1.082875 S    
C27   C28   1.399692 A    
C48   H21   1.055460 S    
O3    Cu1   2.069164 S    
C31   C32   1.383054 A    
C50   C51   1.381794 A    
C10   C59   1.661382 S    
C27   H4    1.083924 S    
C5    C7    1.661061 S    
C37   H12   1.082917 S    
C54   H26   1.062317 S    
O1    Cu1   1.792316 S    
C29   C34   1.419372 A    
C10   C12   1.752330 S    
C41   C42   1.448010 A    
C2    C11   1.541217 S    
C45   H19   1.082551 S    
O5    Cu1   2.070727 S    
O4    C2    1.235008 A    
C68   C69   1.381910 A    
C23   C28   1.432099 A    
C59   C60   1.427844 A    
C7    C12   1.714992 S    
C38   C39   1.386267 A    
C9    C10   1.705308 S    
O2    C1    1.228902 A    
C8    Br4   2.017813 S    
C70   H40   1.055833 S    
N1    C19   1.235626 T    
C66   C67   1.399306 A    
C6    Br2   1.986314 S    
N2    C20   1.235610 T    
Cu2   O8    1.792516 S    
C46   H20   1.011814 S    
C47   C52   1.411805 A    
C67   H37   1.081043 S    
C35   C36   1.432147 A    
C31   H7    1.082664 S    
C13   C14   1.220397 T    
C37   C38   1.383507 A    
C5    C11   1.666823 S    
C43   C44   1.385970 A    
Cu2   N1    1.818088 S    
C51   C52   1.398370 A    
C6    C8    1.654871 S    
C57   C58   1.399900 A    
C26   C27   1.377849 A    
C63   C64   1.398201 A    
C17   C18   1.219738 T    
C69   C70   1.399451 A    
C4    C18   1.463410 S    
C51   H24   1.080651 S    
C64   H35   1.062948 S    
C39   H14   1.075184 S    
