data_mof_unit_33222.cif
_audit_creation_date              2012-12-11T15:09:42-0500
_audit_creation_method            fapswitch 2.2
_symmetry_space_group_name_H-M    P1
_symmetry_Int_Tables_number       1
_space_group_crystal_system       triclinic
_cell_length_a                    20.987064
_cell_length_b                    7.127597
_cell_length_c                    14.008087
_cell_angle_alpha                 89.996554
_cell_angle_beta                  98.281125
_cell_angle_gamma                 90.004916
_cell_volume                      2073.5839201

loop_
_atom_site_label
_atom_site_type_symbol
_atom_type_description
_atom_site_fract_x
_atom_site_fract_y
_atom_site_fract_z
_atom_type_partial_charge
O1    O     O_R   0.447130 0.507140 0.597350 -0.536094
O2    O     O_R   0.552870 0.007140 0.402650 -0.536088
O3    O     O_R   0.578910 0.181280 0.586990 -0.541095
O4    O     O_R   0.421090 0.681280 0.413010 -0.541061
C1    C     C_R   0.604538 0.344469 0.607275 0.735193
C2    C     C_R   0.395462 0.844464 0.392725 0.735081
O5    O     O_R   0.449230 0.177860 0.608640 -0.542903
O6    O     O_R   0.550770 0.677860 0.391360 -0.542881
O7    O     O_R   0.422260 0.000770 0.424450 -0.522733
O8    O     O_R   0.577740 0.500770 0.575550 -0.522723
C3    C     C_R   0.432489 0.346396 0.634095 0.732222
C4    C     C_R   0.567508 0.846419 0.365901 0.732136
O9    O     O_3   0.491310 0.336980 0.439550 -0.378429
O10   O     O_3   0.508690 0.836980 0.560450 -0.378465
V1    V     V_3+5 0.501610 0.064760 0.511210 1.501834
V2    V     V_3+5 0.498390 0.564760 0.488790 1.501915
C5    C     C_R   0.623612 0.935770 0.128941 -0.156435
C6    C     C_R   0.376427 0.434747 0.871169 -0.156380
H1    H     H_    0.534087 0.956727 0.184163 0.105367
H2    H     H_    0.465962 0.455767 0.815972 0.105321
H3    H     H_    0.705923 0.944736 0.002737 0.124023
H4    H     H_    0.294123 0.443127 0.997399 0.124026
H5    H     H_    0.602063 0.977098 0.057020 0.111863
H6    H     H_    0.398000 0.475584 0.943155 0.111860
C7    C     C_R   0.610232 0.857673 0.292444 -0.075294
C8    C     C_R   0.389759 0.357551 0.707545 -0.075202
C9    C     C_R   0.922940 0.853853 0.306757 -0.171352
C10   C     C_R   0.077062 0.354686 0.693227 -0.171388
C11   C     C_R   0.886711 0.861352 0.382116 -0.106875
C12   C     C_R   0.113299 0.362529 0.617883 -0.106797
C13   C     C_R   0.819757 0.867084 0.363060 -0.115399
C14   C     C_R   0.180257 0.367934 0.636956 -0.115366
C15   C     C_R   0.787008 0.857251 0.267460 0.051877
C16   C     C_R   0.212994 0.357423 0.732542 0.051765
C17   C     C_R   0.824566 0.866325 0.190676 0.072662
C18   C     C_R   0.175438 0.366116 0.809337 0.072655
C19   C     C_R   0.718232 0.855299 0.245572 -0.007942
C20   C     C_R   0.281766 0.355172 0.754427 -0.008008
C21   C     C_R   0.689823 0.902034 0.150093 0.151527
C22   C     C_R   0.310200 0.401289 0.849974 0.151550
C23   C     C_R   0.727664 0.915480 0.076202 -0.198677
C24   C     C_R   0.272366 0.414367 0.923888 -0.198663
C25   C     C_R   0.793757 0.890255 0.095430 -0.191107
C26   C     C_R   0.206260 0.389396 0.904622 -0.191072
C27   C     C_R   0.676248 0.811140 0.314086 -0.154731
C28   C     C_R   0.323723 0.311258 0.685846 -0.154807
C29   C     C_R   0.584787 0.922561 0.200865 -0.189880
C30   C     C_R   0.415241 0.421860 0.799219 -0.189989
C31   C     C_R   0.892522 0.859626 0.211319 -0.072839
C32   C     C_R   0.107478 0.359747 0.788677 -0.072856
H7    H     H_    0.975011 0.850737 0.322820 0.108822
H8    H     H_    0.024989 0.351881 0.677153 0.108819
H9    H     H_    0.794856 0.889241 0.424190 0.142305
H10   H     H_    0.205181 0.390364 0.575869 0.142220
H11   H     H_    0.910681 0.866649 0.455869 0.126960
H12   H     H_    0.089336 0.368367 0.544137 0.126957
H13   H     H_    0.820806 0.899227 0.035355 0.122293
H14   H     H_    0.179216 0.398059 0.964712 0.122266
C33   C     C_1   0.166550 0.857176 0.168474 -0.185945
C34   C     C_1   0.833449 0.357162 0.831526 -0.185973
C35   C     C_1   0.218914 0.854907 0.219666 0.012717
C36   C     C_1   0.781086 0.354899 0.780335 0.012674
C37   C     C_1   0.280642 0.853430 0.279743 0.027463
C38   C     C_1   0.719358 0.353436 0.720257 0.027404
C39   C     C_1   0.333013 0.851068 0.330906 -0.141402
C40   C     C_1   0.666986 0.351082 0.669094 -0.141399
O11   O     O_R   0.922300 0.202240 0.924350 -0.533879
O12   O     O_R   0.077700 0.702240 0.075650 -0.533859
O13   O     O_R   0.050780 0.535130 0.891350 -0.540180
O14   O     O_R   0.949220 0.035130 0.108650 -0.540190
C41   C     C_R   0.067183 0.367998 0.865314 0.685198
C42   C     C_R   0.932817 0.867977 0.134684 0.685195
O15   O     O_R   0.921100 0.531560 0.912990 -0.537281
O16   O     O_R   0.078900 0.031560 0.087010 -0.537293
O17   O     O_R   0.947120 0.708470 0.097370 -0.538093
O18   O     O_R   0.052880 0.208470 0.902630 -0.538104
C43   C     C_R   0.895884 0.363569 0.893399 0.714598
C44   C     C_R   0.104116 0.863575 0.106601 0.714606
O19   O     O_3   0.008710 0.375800 0.060400 -0.373756
O20   O     O_3   0.991290 0.875800 0.939600 -0.373760
V3    V     V_3+5 0.998380 0.648080 0.988790 1.436178
V4    V     V_3+5 0.001620 0.148080 0.011210 1.436136
C45   C     C_2   0.698031 0.694878 0.401362 0.761944
O21   O     O_2   0.686275 0.744967 0.480361 -0.537417
O22   O     O_R   0.732408 0.528479 0.394587 -0.640725
H15   H     H_    0.737590 0.495213 0.325803 0.265669
C46   C     C_2   0.301882 0.195375 0.598447 0.761932
O23   O     O_2   0.313759 0.245535 0.519523 -0.537396
O24   O     O_R   0.267318 0.029231 0.605025 -0.640734
H16   H     H_    0.262058 0.995797 0.673759 0.265685

loop_
_geom_bond_atom_site_label_1
_geom_bond_atom_site_label_2
_ccdc_geom_bond_type
C20   C22   A    
C46   O23   D    
C37   C39   T    
C9    C11   A    
O11   C43   A    
O2    C4    A    
C2    O7    A    
C18   C32   A    
C21   C23   A    
O22   H15   S    
O5    C3    A    
C5    H5    S    
C6    H6    S    
O12   V3    S    
C41   O18   A    
O20   V3    S    
H1    C29   S    
C34   C36   T    
C5    C21   A    
C14   H10   S    
C35   C37   S    
C6    C22   A    
C36   C38   S    
C10   C32   A    
C2    C39   S    
C26   H14   S    
C31   C42   S    
O1    C3    A    
C17   C31   A    
C13   C15   A    
C17   C25   A    
C7    C29   A    
C8    C30   A    
C22   C24   A    
O6    V2    S    
C23   C25   A    
C27   C45   S    
C24   C26   A    
O16   V4    S    
C42   O17   A    
C33   C44   S    
O15   V3    S    
C9    H7    S    
O12   C44   A    
C34   C43   S    
C33   C35   T    
O13   C41   A    
O20   V4    S    
O18   V4    S    
O19   V3    S    
C25   H13   S    
O17   V3    S    
C11   H11   S    
C3    C8    S    
C12   H12   S    
C15   C19   A    
C14   C16   A    
O4    V2    S    
C32   C41   S    
C45   O21   D    
O6    C4    A    
O1    V2    S    
C13   H9    S    
O2    V1    S    
H2    C30   S    
H3    C23   S    
O4    C2    A    
C45   O22   S    
C46   O24   S    
C18   C26   A    
C19   C27   A    
C7    C27   A    
O3    V1    S    
C28   C46   S    
C16   C20   A    
C5    C29   A    
C1    C40   S    
O3    C1    A    
C6    C30   A    
O19   V4    S    
C4    C7    S    
C10   C12   A    
O7    V1    S    
C1    O8    A    
C11   C13   A    
O8    V2    S    
C12   C14   A    
C10   H8    S    
H4    C24   S    
O5    V1    S    
C15   C17   A    
C16   C18   A    
O14   V4    S    
C20   C28   A    
O13   V3    S    
C8    C28   A    
O11   V4    S    
C19   C21   A    
O16   C44   A    
O9    V2    S    
O15   C43   A    
O10   V1    S    
O14   C42   A    
O24   H16   S    
C9    C31   A    
C38   C40   T    
