data_mof_unit_24391.cif
_audit_creation_date              2012-12-11T15:39:08-0500
_audit_creation_method            fapswitch 2.2
_symmetry_space_group_name_H-M    P1
_symmetry_Int_Tables_number       1
_space_group_crystal_system       triclinic
_cell_length_a                    14.290305
_cell_length_b                    14.813443
_cell_length_c                    33.238896
_cell_angle_alpha                 97.886938
_cell_angle_beta                  90.509697
_cell_angle_gamma                 118.680217
_cell_volume                      6091.97145025

loop_
_atom_site_label
_atom_site_type_symbol
_atom_type_description
_atom_site_fract_x
_atom_site_fract_y
_atom_site_fract_z
_atom_type_partial_charge
C1    C     C_R   0.617056 0.909931 0.437119 0.545295
C2    C     C_R   0.740770 0.430965 0.189316 0.021109
C3    C     C_R   0.715954 0.902771 0.655663 -0.104215
C4    C     C_R   0.641207 0.802348 0.662015 0.060899
C5    C     C_R   0.635037 0.865276 0.586776 0.020780
C6    C     C_R   0.052129 0.781272 0.063840 0.535679
C7    C     C_R   0.744591 0.487248 0.066466 0.569808
C8    C     C_R   0.743407 0.789162 0.066556 0.550962
C9    C     C_R   0.019832 0.730710 0.947007 0.536173
C10   C     C_R   0.711816 0.436612 0.949355 0.565559
C11   C     C_R   0.710080 0.739576 0.950329 0.577586
C12   C     C_R   0.826676 0.439579 0.167183 -0.067481
C13   C     C_R   0.827019 0.450174 0.126039 0.229053
C14   C     C_R   0.754815 0.344632 0.245698 -0.164075
C15   C     C_R   0.747000 0.330567 0.286219 -0.129186
C16   C     C_R   0.727802 0.397113 0.314840 0.027634
C17   C     C_R   0.721407 0.481879 0.303101 0.289981
C18   C     C_R   0.730076 0.496706 0.262128 0.273732
C19   C     C_R   0.743335 0.425398 0.233111 -0.010010
C20   C     C_R   0.594542 0.324026 0.363953 -0.137424
C21   C     C_R   0.594480 0.206483 0.456932 0.565580
C22   C     C_R   0.562137 0.277001 0.398336 -0.163159
C23   C     C_R   0.746374 0.324306 0.418161 0.252832
C24   C     C_R   0.778652 0.371152 0.383035 0.288222
C25   C     C_R   0.701681 0.368055 0.355398 0.027905
C26   C     C_R   0.636243 0.272637 0.424937 -0.015316
C27   C     C_R   0.243424 0.876298 0.393237 0.032617
C28   C     C_R   0.205175 0.942443 0.381898 0.230607
C29   C     C_R   0.182288 0.940514 0.340609 -0.048218
C30   C     C_R   0.195970 0.872960 0.310582 0.000701
C31   C     C_R   0.225808 0.802283 0.321710 -0.114624
C32   C     C_R   0.294543 0.892300 0.434522 0.566645
C33   C     C_R   0.248852 0.803504 0.362637 -0.138832
C34   C     C_R   0.194514 0.807962 0.163729 -0.099859
C35   C     C_R   0.166793 0.785903 0.121826 -0.096552
C36   C     C_R   0.090597 0.901883 0.129534 -0.123625
C37   C     C_R   0.117821 0.923310 0.171573 -0.100160
C38   C     C_R   0.166360 0.873415 0.188808 0.037956
C39   C     C_1   0.177001 0.879375 0.232188 0.002130
C40   C     C_1   0.184601 0.878396 0.268181 0.005836
C41   C     C_R   0.110344 0.829076 0.104559 0.020002
C42   C     C_R   0.638590 0.876476 0.396020 -0.016956
C43   C     C_R   0.614433 0.905353 0.551495 0.542823
C44   C     C_R   0.553484 0.801156 0.368167 -0.123668
C45   C     C_R   0.568276 0.787657 0.326808 -0.127273
C46   C     C_R   0.668275 0.848341 0.312907 0.067738
C47   C     C_R   0.755958 0.917668 0.340882 0.271411
C48   C     C_R   0.740801 0.931483 0.382269 -0.054823
C49   C     C_R   0.784442 0.915669 0.175956 -0.098809
C50   C     C_R   0.797565 0.904428 0.134298 -0.119603
C51   C     C_R   0.621305 0.751706 0.122297 -0.115376
C52   C     C_R   0.608303 0.763307 0.163859 -0.101639
C53   C     C_R   0.691284 0.843024 0.190830 0.043214
C54   C     C_R   0.590385 0.200261 0.570838 0.570842
C55   C     C_1   0.683717 0.845229 0.233844 0.038044
C56   C     C_1   0.677168 0.845750 0.269874 0.076692
C57   C     C_R   0.717861 0.819603 0.107333 0.026402
C58   C     C_R   0.625075 0.249891 0.613945 0.029621
C59   C     C_R   0.579348 0.305778 0.635822 0.270247
C60   C     C_R   0.596324 0.329120 0.678397 -0.037476
C61   C     C_R   0.658904 0.298259 0.699228 0.003612
C62   C     C_R   0.710848 0.250487 0.677654 -0.118411
C63   C     C_R   0.694653 0.227004 0.635361 -0.162760
C64   C     C_R   0.751823 0.326981 0.845370 -0.046667
C65   C     C_R   0.289470 0.887365 0.548864 0.564257
C66   C     C_R   0.762052 0.351962 0.887901 0.226838
C67   C     C_R   0.596232 0.360086 0.884433 -0.164090
C68   C     C_R   0.586915 0.335089 0.842162 -0.135250
C69   C     C_R   0.667006 0.323100 0.822580 0.000055
C70   C     C_1   0.665497 0.314097 0.779140 0.015051
C71   C     C_1   0.663557 0.308149 0.742725 0.015588
C72   C     C_R   0.687052 0.375416 0.907763 0.029076
C73   C     C_R   0.055663 0.745067 0.906109 -0.020366
C74   C     C_R   0.092201 0.841816 0.893240 -0.120548
C75   C     C_R   0.103538 0.849520 0.852097 -0.110384
C76   C     C_R   0.739561 0.452608 0.106549 0.028934
C77   C     C_R   0.076085 0.760261 0.823298 0.060836
C78   C     C_R   0.042906 0.663623 0.836257 0.243561
C79   C     C_R   0.034291 0.656910 0.877548 -0.080307
C80   C     C_R   0.155826 0.746995 0.758875 -0.104252
C81   C     C_R   0.165774 0.756005 0.717947 -0.116420
C82   C     C_R   0.104217 0.788980 0.697567 -0.010884
C83   C     C_R   0.031064 0.811327 0.718356 -0.044760
C84   C     C_R   0.019411 0.800735 0.759411 0.263184
C85   C     C_R   0.083053 0.769262 0.779903 0.064939
C86   C     C_R   0.159619 0.907970 0.646401 -0.076953
C87   C     C_R   0.650338 0.435824 0.128536 -0.151907
C88   C     C_R   0.207313 0.935001 0.610265 0.227663
C89   C     C_R   0.173414 0.756813 0.590586 -0.145016
C90   C     C_R   0.127141 0.731264 0.626765 -0.109944
C91   C     C_R   0.124726 0.807912 0.655623 -0.007847
C92   C     C_R   0.219759 0.860005 0.582797 0.026208
C93   C     C_R   0.661379 0.740381 0.911317 0.032404
C94   C     C_R   0.608445 0.646677 0.883626 -0.153311
C95   C     C_R   0.585957 0.647727 0.842863 -0.120304
C96   C     C_R   0.615142 0.742451 0.829199 0.005205
C97   C     C_R   0.659561 0.835088 0.857576 -0.049443
C98   C     C_R   0.650984 0.425072 0.169418 -0.089027
C99   C     C_R   0.682509 0.834645 0.898398 0.238898
C100  C     C_R   0.580452 0.816275 0.771312 -0.121411
C101  C     C_R   0.590142 0.832223 0.730966 -0.152742
C102  C     C_R   0.627817 0.778672 0.703663 0.030425
C103  C     C_R   0.652301 0.705495 0.716720 0.270858
C104  C     C_R   0.643030 0.690122 0.757393 -0.027178
C105  C     C_R   0.609277 0.747048 0.785187 0.006629
C106  C     C_R   0.568786 0.730804 0.629795 -0.064471
C107  C     C_R   0.565593 0.762108 0.592336 -0.107312
C108  C     C_R   0.713562 0.933899 0.618135 -0.119135
Cr1   Cr    Cr6+3 0.424820 0.846020 0.489780 1.054615
Cr2   Cr    Cr6+3 0.657880 0.078580 0.505700 1.105537
Cr3   Cr    Cr6+3 0.417280 0.075360 0.504550 1.182935
Cr4   Cr    Cr6+3 0.903360 0.812540 0.006510 1.075064
Cr5   Cr    Cr6+3 0.914630 0.587050 0.006280 1.151993
Cr6   Cr    Cr6+3 0.673560 0.582680 0.008540 1.031601
H1    H     H_    0.581328 0.435652 0.114713 0.147253
H2    H     H_    0.477527 0.238826 0.402807 0.181741
H3    H     H_    0.182948 0.729530 0.103386 0.157544
H4    H     H_    0.232281 0.769129 0.176835 0.120822
H5    H     H_    0.235535 0.748900 0.298614 0.132129
H6    H     H_    0.095595 0.974010 0.190796 0.130816
H7    H     H_    0.873034 0.957494 0.123751 0.132615
H8    H     H_    0.848943 0.977870 0.196728 0.140330
H9    H     H_    0.473812 0.757774 0.377819 0.146002
H10   H     H_    0.500327 0.733618 0.305419 0.128471
H11   H     H_    0.812378 0.314733 0.830028 0.181705
H12   H     H_    0.731371 0.184523 0.619731 0.144934
H13   H     H_    0.536204 0.375677 0.898407 0.145724
H14   H     H_    0.557843 0.368220 0.695289 0.164269
H15   H     H_    0.108254 0.910494 0.914780 0.147538
H16   H     H_    0.003464 0.581086 0.886846 0.197051
H17   H     H_    0.099161 0.653158 0.633381 0.150944
H18   H     H_    0.751172 0.264702 0.295007 0.156125
H19   H     H_    0.224193 0.740482 0.702459 0.125270
H20   H     H_    0.130684 0.924559 0.842488 0.153662
H21   H     H_    0.157315 0.967375 0.668715 0.149647
H22   H     H_    0.591446 0.573242 0.892774 0.134771
H23   H     H_    0.765514 0.289778 0.223757 0.137878
H24   H     H_    0.772001 0.958780 0.680504 0.133577
H25   H     H_    0.569480 0.887630 0.721047 0.118853
H26   H     H_    0.552574 0.859788 0.791903 0.120509
H27   H     H_    0.549894 0.575028 0.821699 0.121457
H28   H     H_    0.667192 0.637474 0.767659 0.164572
H29   H     H_    0.510226 0.653226 0.634488 0.162309
H30   H     H_    0.504630 0.707500 0.568575 0.147134
H31   H     H_    0.682298 0.909054 0.847694 0.157054
H32   H     H_    0.767860 0.013843 0.614766 0.139132
O1    O     O_R   0.318160 0.824460 0.443680 -0.514147
O2    O     O_R   0.645130 0.163230 0.552140 -0.511480
O3    O     O_R   0.498360 0.178430 0.555780 -0.415432
O4    O     O_R   0.328690 0.978040 0.538950 -0.431008
O5    O     O_3   0.499990 0.999990 0.500010 -0.291828
O6    O     O_R   0.828710 0.851830 0.052170 -0.501941
O7    O     O_R   0.005980 0.823990 0.047210 -0.510442
O8    O     O_R   0.031900 0.688850 0.050170 -0.475594
O9    O     O_R   0.830940 0.518420 0.048680 -0.426987
O10   O     O_R   0.668160 0.499860 0.053480 -0.528118
O11   O     O_R   0.689170 0.693840 0.050110 -0.502663
O12   O     O_R   0.525040 0.857250 0.449830 -0.500672
O13   O     O_R   0.803860 0.812940 0.962540 -0.442642
O14   O     O_R   0.982950 0.787950 0.964120 -0.496779
O15   O     O_R   0.007050 0.649970 0.960540 -0.489838
O16   O     O_R   0.807910 0.482370 0.965590 -0.436862
O17   O     O_R   0.643310 0.460980 0.963840 -0.530479
O18   O     O_R   0.666140 0.657800 0.967020 -0.514526
O19   O     O_3   0.830520 0.660760 0.007110 -0.276740
O20   O     O_R   0.684760 0.998800 0.456360 -0.487459
O21   O     O_R   0.647540 0.166310 0.470260 -0.450003
O22   O     O_R   0.500960 0.181750 0.467450 -0.492549
O23   O     O_R   0.331100 0.981120 0.457080 -0.448075
O24   O     O_R   0.315560 0.821140 0.532010 -0.522192
O25   O     O_R   0.522630 0.854180 0.531710 -0.501545
O26   O     O_R   0.682160 0.995480 0.544690 -0.506279
H33   H     H_    0.894995 0.440989 0.182292 0.154520
Cl1   Cl    Cl    0.845054 0.332348 0.453161 -0.457897
H34   H     H_    0.277515 0.751532 0.370001 0.151338
Cl2   Cl    Cl    0.185869 0.029878 0.417846 -0.500033
H35   H     H_    0.046377 0.935652 0.117203 0.130360
Cl3   Cl    Cl    0.940516 0.462649 0.101450 -0.560879
H36   H     H_    0.156695 0.993697 0.331925 0.181817
Cl4   Cl    Cl    0.883967 0.993124 0.324740 -0.533039
H37   H     H_    0.807729 0.989240 0.403291 0.192583
H38   H     H_    0.535696 0.707104 0.175160 0.122774
H39   H     H_    0.558487 0.685707 0.102266 0.132455
Cl5   Cl    Cl    0.872012 0.356257 0.914291 -0.519823
Cl6   Cl    Cl    0.914998 0.432140 0.373146 -0.467246
H40   H     H_    0.759991 0.226968 0.693612 0.139015
Cl7   Cl    Cl    0.499563 0.346920 0.611623 -0.459881
H41   H     H_    0.520100 0.330702 0.824654 0.128859
H42   H     H_    0.205850 0.723707 0.774375 0.149291
H43   H     H_    0.983409 0.836910 0.702686 0.170046
Cl8   Cl    Cl    0.923416 0.825557 0.783927 -0.597464
Cl9   Cl    Cl    0.256857 0.065568 0.603267 -0.500587
Cl10  Cl    Cl    0.002476 0.547760 0.801482 -0.592985
H44   H     H_    0.178731 0.696625 0.569846 0.165383
Cl11  Cl    Cl    0.740758 0.954384 0.931958 -0.520281
Cl12  Cl    Cl    0.700861 0.636981 0.683697 -0.553254
H45   H     H_    0.582315 0.414724 0.185877 0.152632
Cl13  Cl    Cl    0.701634 0.568527 0.339550 -0.479467
Cl14  Cl    Cl    0.726065 0.605325 0.247564 -0.539725
H46   H     H_    0.534775 0.320998 0.342691 0.157106

loop_
_geom_bond_atom_site_label_1
_geom_bond_atom_site_label_2
_ccdc_geom_bond_type
C34   H4    S    
C65   C92   S    
C32   O23   A    
C101  C102  A    
Cr4   O13   S    
C73   C74   A    
C83   H43   S    
C95   C96   A    
Cr5   O8    S    
C55   C56   T    
C2    C12   A    
C81   C82   A    
C101  H25   S    
C75   H20   S    
C11   O13   A    
C106  H29   S    
C32   O1    A    
C77   C78   A    
C44   C45   A    
C100  C105  A    
C80   C85   A    
C21   O22   A    
C9    C73   S    
Cr6   O19   S    
C83   C84   A    
C36   C37   A    
Cr1   O5    S    
C37   C38   A    
C52   H38   S    
C34   C35   A    
C51   H39   S    
C86   C91   A    
Cr5   O19   S    
C48   H37   S    
C86   C88   A    
C20   C25   A    
C8    O11   A    
C15   C16   A    
C99   Cl11  S    
C16   C25   S    
C84   Cl8   S    
C18   C19   A    
C80   H42   S    
C23   C26   A    
C65   O4    A    
C49   C50   A    
C100  C101  A    
C100  H26   S    
Cr5   O16   S    
C66   C72   A    
C15   H18   S    
C88   C92   A    
C16   C17   A    
C6    C41   S    
C4    C102  S    
C94   H22   S    
C23   C24   A    
C14   H23   S    
C59   Cl7   S    
C70   C71   T    
C51   C57   A    
C95   H27   S    
C103  C104  A    
C93   C99   A    
C87   H1    S    
C61   C62   A    
C90   C91   A    
C62   H40   S    
C87   C98   A    
C11   C93   S    
C22   H2    S    
C5    C43   S    
C77   C85   S    
C59   C60   A    
C10   O16   A    
C36   C41   A    
Cr1   O1    S    
C50   H7    S    
C42   C44   A    
Cr5   O9    S    
Cr2   O2    S    
Cr1   O12   S    
Cr3   O3    S    
Cr6   O10   S    
C104  C105  A    
C97   C99   A    
C21   C26   S    
C54   O3    A    
C108  H32   S    
C53   C55   S    
C45   H10   S    
Cr1   O24   S    
C74   C75   A    
C7    O10   A    
C102  C103  A    
C6    O7    A    
C10   O17   A    
C67   C72   A    
C38   C39   S    
C84   C85   A    
Cr2   O5    S    
C39   C40   T    
C23   Cl1   S    
C43   O25   A    
C78   C79   A    
C68   C69   A    
C9    O14   A    
C58   C59   A    
C45   C46   A    
C79   H16   S    
C4    C106  A    
C27   C33   A    
C82   C91   S    
C67   C68   A    
C24   Cl6   S    
Cr3   O23   S    
C78   Cl10  S    
C64   C66   A    
Cr6   O11   S    
C29   C30   A    
C67   H13   S    
C8    C57   S    
Cr2   O21   S    
C86   H21   S    
Cr6   O18   S    
C47   C48   A    
C13   C76   A    
C60   H14   S    
C96   C97   A    
C62   C63   A    
Cr4   O6    S    
C17   C18   A    
C73   C79   A    
C30   C40   S    
C17   Cl13  S    
C3    H24   S    
C42   C48   A    
C64   C69   A    
C24   C25   A    
C89   C92   A    
C9    O15   A    
C75   C77   A    
C76   C87   A    
C31   H5    S    
C13   Cl3   S    
C6    O8    A    
C35   C41   A    
C90   H17   S    
C20   C22   A    
C82   C83   A    
C94   C95   A    
Cr4   O7    S    
C22   C26   A    
C54   C58   S    
C68   H41   S    
C104  H28   S    
C35   H3    S    
Cr5   O15   S    
C103  Cl12  S    
C49   H8    S    
C3    C4    A    
Cr3   O4    S    
C27   C28   A    
C52   C53   A    
C96   C105  S    
C54   O2    A    
C5    C107  A    
C58   C63   A    
C88   Cl9   S    
C66   Cl5   S    
C46   C47   A    
C28   C29   A    
C31   C33   A    
Cr4   O14   S    
C98   H45   S    
C8    O6    A    
C2    C19   S    
C34   C38   A    
C50   C57   A    
C97   H31   S    
C14   C19   A    
C28   Cl2   S    
C36   H35   S    
C80   C81   A    
Cr3   O5    S    
C43   O26   A    
C81   H19   S    
C7    C76   S    
C3    C108  A    
C47   Cl4   S    
C93   C94   A    
C44   H9    S    
C21   O21   A    
C65   O24   A    
C89   C90   A    
Cr4   O19   S    
C51   C52   A    
Cr2   O20   S    
C1    O12   A    
Cr6   O17   S    
C30   C31   A    
C37   H6    S    
C29   H36   S    
C1    O20   A    
C49   C53   A    
C89   H44   S    
C11   O18   A    
C69   C70   S    
C33   H34   S    
C63   H12   S    
C27   C32   S    
C61   C71   S    
C1    C42   S    
C7    O9    A    
C12   C13   A    
C2    C98   A    
C64   H11   S    
C106  C107  A    
C74   H15   S    
C46   C56   S    
C18   Cl14  S    
C20   H46   S    
C14   C15   A    
C60   C61   A    
Cr3   O22   S    
C107  H30   S    
Cr1   O25   S    
C10   C72   S    
C12   H33   S    
C5    C108  A    
Cr2   O26   S    
