data_mof_unit_27269.cif
_audit_creation_date              2013-03-05T16:40:45-0500
_audit_creation_method            fapswitch 2.2
_symmetry_space_group_name_H-M    P1
_symmetry_Int_Tables_number       1
_space_group_crystal_system       triclinic
_cell_length_a                    17.79638
_cell_length_b                    16.409288
_cell_length_c                    10.770924
_cell_angle_alpha                 85.180452
_cell_angle_beta                  91.557293
_cell_angle_gamma                 88.957017
_cell_volume                      3132.44743043

loop_
_atom_site_label
_atom_site_type_symbol
_atom_site_description
_atom_site_fract_x
_atom_site_fract_y
_atom_site_fract_z
_atom_type_partial_charge
O1    O     O_R   0.391260 0.567930 0.500000 -0.564457
O2    O     O_R   0.608740 0.432070 0.500000 -0.563338
O3    O     O_R   0.608740 0.567930 0.500000 -0.544592
O4    O     O_R   0.391260 0.432070 0.500000 -0.544777
C1    C     C_R   0.355229 0.500442 0.506165 0.922806
C2    C     C_R   0.644768 0.499567 0.493488 0.922260
O5    O     O_R   0.500000 0.567910 0.319660 -0.540230
O6    O     O_R   0.500000 0.432090 0.680340 -0.539618
O7    O     O_R   0.500000 0.567910 0.680340 -0.604105
O8    O     O_R   0.500000 0.432090 0.319660 -0.603273
C3    C     C_R   0.495018 0.504248 0.260083 0.843426
C4    C     C_R   0.505036 0.495744 0.739908 0.844466
Cu1   Cu    Cu3+1 0.500000 0.580420 0.500000 1.080609
Cu2   Cu    Cu3+1 0.500000 0.419580 0.500000 1.081423
H1    H     H_    0.308547 0.310668 0.111230 0.212574
H2    H     H_    0.692023 0.688858 0.889083 0.212939
H3    H     H_    0.375958 0.249915 0.948490 0.216925
H4    H     H_    0.624778 0.749637 0.051962 0.217337
C5    C     C_R   0.548330 0.649364 0.084310 0.398724
C6    C     C_R   0.452117 0.350424 0.915834 0.400598
C7    C     C_R   0.618406 0.585824 0.881368 0.345070
C8    C     C_R   0.381890 0.413952 0.118653 0.345090
C9    C     C_R   0.607753 0.690371 0.025427 -0.189110
C10   C     C_R   0.392838 0.309259 0.974899 -0.187478
C11   C     C_R   0.644265 0.657309 0.928804 -0.260420
C12   C     C_R   0.356230 0.342318 0.071432 -0.259989
C13   C     C_R   0.554854 0.546579 0.935265 -0.074543
C14   C     C_R   0.445379 0.453300 0.064717 -0.074646
C15   C     C_R   0.529069 0.570269 0.049895 -0.095983
C16   C     C_R   0.471209 0.429600 0.950127 -0.095728
C17   C     C_R   0.516126 0.485154 0.877411 -0.033503
C18   C     C_R   0.484045 0.514785 0.122557 -0.033104
C19   C     C_R   0.845434 0.571850 0.457944 -0.170746
C20   C     C_R   0.154668 0.428446 0.544432 -0.171081
C21   C     C_R   0.150771 0.571805 0.472301 -0.165805
C22   C     C_R   0.849206 0.427675 0.524840 -0.165508
H5    H     H_    0.875028 0.627518 0.431366 0.186574
H6    H     H_    0.125127 0.373105 0.573091 0.186793
H7    H     H_    0.118514 0.627360 0.444421 0.183769
H8    H     H_    0.881456 0.371798 0.550586 0.184639
C23   C     C_R   0.766802 0.571662 0.449979 0.331797
C24   C     C_R   0.233314 0.428726 0.551907 0.329823
C25   C     C_R   0.229062 0.574016 0.478150 0.349877
C26   C     C_R   0.770909 0.425478 0.518330 0.348419
C27   C     C_R   0.728067 0.498451 0.484923 -0.238515
C28   C     C_R   0.271947 0.501533 0.514338 -0.238104
C29   C     C_R   0.886099 0.500347 0.495594 -0.006163
C30   C     C_R   0.113930 0.499518 0.504558 -0.005836
C31   C     C_1   0.966333 0.500270 0.498947 0.037864
C32   C     C_1   0.033699 0.499564 0.501481 0.037943
C33   C     C_R   0.556370 0.824303 0.564940 -0.219949
C34   C     C_R   0.443438 0.175635 0.435691 -0.220569
C35   C     C_R   0.442803 0.833633 0.437948 -0.175651
C36   C     C_R   0.557486 0.166422 0.561464 -0.175541
H9    H     H_    0.601137 0.852238 0.615499 0.161278
H10   H     H_    0.398494 0.147652 0.385612 0.161038
H11   H     H_    0.398038 0.868947 0.387450 0.168652
H12   H     H_    0.602462 0.131153 0.611469 0.168701
C37   C     C_R   0.555390 0.738503 0.563517 0.143654
C38   C     C_R   0.444392 0.261436 0.437074 0.142494
C39   C     C_R   0.444015 0.747691 0.438582 0.248036
C40   C     C_R   0.556245 0.252366 0.560818 0.249823
H13   H     H_    0.599207 0.701864 0.613744 0.166420
H14   H     H_    0.400381 0.298022 0.387277 0.166260
H15   H     H_    0.400762 0.718343 0.387429 0.204561
H16   H     H_    0.599722 0.281758 0.611436 0.203253
N1    N     N_R   0.500000 0.701220 0.500000 -0.201696
N2    N     N_R   0.500000 0.298780 0.500000 -0.201173
C41   C     C_R   0.499667 0.873081 0.501264 0.099005
C42   C     C_R   0.500393 0.126915 0.498781 0.099350
C43   C     C_1   0.499938 0.962679 0.500455 0.020807
C44   C     C_1   0.500145 0.037315 0.499613 0.020788
N3    N     N_R   0.499686 0.695458 0.157923 0.131202
O9    O     O_R   0.427551 0.683675 0.154124 -0.313530
O10   O     O_R   0.524503 0.760214 0.206330 -0.359332
N4    N     N_R   0.500746 0.304477 0.841985 0.131184
O11   O     O_R   0.475966 0.239734 0.793496 -0.359561
O12   O     O_R   0.572858 0.316424 0.845488 -0.314583
N5    N     N_R   0.662018 0.549373 0.789045 0.097312
O13   O     O_R   0.667529 0.470151 0.789574 -0.324556
O14   O     O_R   0.708429 0.593730 0.722400 -0.386495
N6    N     N_R   0.338152 0.450432 0.210791 0.097279
O15   O     O_R   0.291772 0.406069 0.277500 -0.387432
O16   O     O_R   0.332528 0.529659 0.210032 -0.322544
N7    N     N_R   0.727795 0.645236 0.400852 0.141967
O17   O     O_R   0.749393 0.715820 0.433837 -0.324290
O18   O     O_R   0.680413 0.643170 0.307073 -0.358897
N8    N     N_R   0.272454 0.355764 0.603211 0.141762
O19   O     O_R   0.250632 0.284551 0.573290 -0.324224
O20   O     O_R   0.320334 0.359291 0.695960 -0.360494
N9    N     N_R   0.263394 0.651215 0.450373 0.123729
O21   O     O_R   0.251476 0.690261 0.341228 -0.301780
O22   O     O_R   0.288061 0.691160 0.542028 -0.362761
N10   N     N_R   0.736595 0.347819 0.542051 0.123771
O23   O     O_R   0.750550 0.305136 0.647789 -0.307916
O24   O     O_R   0.709587 0.311348 0.448342 -0.360443

loop_
_geom_bond_atom_site_label_1
_geom_bond_atom_site_label_2
_geom_bond_distance
_ccdc_geom_bond_type
C2    C27   1.487666 S    
C13   C15   1.411052 A    
N3    O9    1.301770 A    
C21   H7    1.084606 S    
C20   C24   1.399866 A    
O3    C2    1.289925 A    
C35   C41   1.403098 A    
C29   C31   1.427320 S    
C6    C16   1.424681 A    
N7    O17   1.301302 A    
O5    C3    1.274303 A    
O1    C1    1.287547 A    
C8    N6    1.440120 S    
C10   C12   1.385109 A    
C15   C18   1.422804 A    
C36   H12   1.083043 S    
C16   C17   1.422684 A    
C6    N4    1.436851 S    
C22   C29   1.388868 A    
C24   C28   1.423924 A    
C41   C43   1.469633 S    
O7    Cu1   1.936017 S    
C22   H8    1.084659 S    
C34   C38   1.409679 A    
C37   N1    1.367345 A    
C35   C39   1.409472 A    
C6    C10   1.401477 A    
C21   C25   1.394270 A    
O3    Cu1   1.942286 S    
C30   C32   1.427305 S    
C7    C13   1.424863 A    
C8    C14   1.424864 A    
Cu1   Cu2   2.639272 S    
N3    O10   1.301413 A    
O2    C2    1.287634 A    
C21   C30   1.388887 A    
C25   C28   1.421947 A    
C33   C37   1.409702 A    
N7    O18   1.301140 A    
H3    C10   1.082584 S    
C40   H16   1.078596 S    
C13   C17   1.409516 A    
H4    C9    1.082586 S    
C14   C18   1.409655 A    
C34   C42   1.403579 A    
N4    O11   1.301418 A    
O8    Cu2   1.936019 S    
N9    O21   1.300943 A    
N5    O14   1.301374 A    
C35   H11   1.083040 S    
H1    C12   1.082575 S    
C36   C40   1.409487 A    
C19   H5    1.084220 S    
C5    C9    1.401429 A    
N9    O22   1.300991 A    
C39   N1    1.365108 A    
C36   C42   1.403114 A    
C5    N3    1.436805 S    
O6    C4    1.274209 A    
C7    N5    1.440124 S    
N10   O24   1.301356 A    
N8    O20   1.301015 A    
C3    C18   1.483991 S    
N6    O15   1.301413 A    
C24   N8    1.435803 S    
N6    O16   1.301402 A    
C4    C17   1.483997 S    
C19   C29   1.392128 A    
C22   C26   1.394542 A    
O1    Cu1   1.949710 S    
C5    C15   1.424623 A    
C26   C27   1.422703 A    
Cu1   N1    1.982240 S    
H2    C11   1.082576 S    
C7    C11   1.398715 A    
O6    Cu2   1.970322 S    
C20   H6    1.084166 S    
Cu2   N2    1.982240 S    
N4    O12   1.301761 A    
O4    C1    1.289564 A    
C23   N7    1.435845 S    
C1    C28   1.486981 S    
C37   H13   1.080542 S    
C40   N2    1.365232 A    
C38   H14   1.080506 S    
C19   C23   1.399742 A    
C14   C16   1.410990 A    
C43   C44   1.224075 T    
C33   H9    1.083073 S    
C9    C11   1.385076 A    
O4    Cu2   1.942290 S    
N10   O23   1.301379 A    
O2    Cu2   1.949706 S    
O7    C4    1.298969 A    
C25   N9    1.428976 S    
C26   N10   1.429744 S    
O8    C3    1.298869 A    
N5    O13   1.301421 A    
C39   H15   1.078429 S    
O5    Cu1   1.970324 S    
C20   C30   1.392226 A    
N8    O19   1.301224 A    
C38   N2    1.367347 A    
C31   C32   1.198261 T    
C8    C12   1.398685 A    
C23   C27   1.424188 A    
C42   C44   1.469634 S    
C33   C41   1.403591 A    
C34   H10   1.083079 S    
