data_mof_unit_37987.cif
_audit_creation_date              2012-12-10T20:46:24-0500
_audit_creation_method            fapswitch 2.2
_symmetry_space_group_name_H-M    P1
_symmetry_Int_Tables_number       1
_space_group_crystal_system       triclinic
_cell_length_a                    10.826043
_cell_length_b                    8.932739
_cell_length_c                    8.10345
_cell_angle_alpha                 89.998637
_cell_angle_beta                  89.99415
_cell_angle_gamma                 90.033423
_cell_volume                      783.653852632

loop_
_atom_site_label
_atom_site_type_symbol
_atom_type_description
_atom_site_fract_x
_atom_site_fract_y
_atom_site_fract_z
_atom_type_partial_charge
C1    C     C_R   0.499985 0.217991 0.499965 0.948307
C2    C     C_1   0.499983 0.934811 0.499924 -0.119441
C3    C     C_R   0.499960 0.782010 0.499960 0.944998
C4    C     C_R   0.262037 0.495632 0.499255 0.851811
C5    C     C_R   0.737745 0.500863 0.499324 0.850769
C6    C     C_2   0.934905 0.461113 0.372270 0.326679
C7    C     C_2   0.063064 0.500260 0.364918 0.313561
C8    C     C_2   0.868033 0.524528 0.493813 0.220474
C9    C     C_2   0.133122 0.458834 0.494727 0.203251
C10   C     C_1   0.499993 0.065194 0.499930 -0.111566
H1    H     H_    0.034600 0.284723 0.065067 0.389556
H2    H     H_    0.011219 0.747871 0.013033 0.407595
H3    H     H_    0.859031 0.667839 0.676071 0.363384
H4    H     H_    0.147068 0.340102 0.697542 0.365947
N1    N     N_1   0.500000 0.500000 0.073640 0.033700
N2    N     N_1   0.500000 0.500000 0.926360 0.016323
O1    O     O_R   0.500000 0.285350 0.636850 -0.621979
O2    O     O_2   0.812956 0.389432 0.093857 -0.255450
O3    O     O_3   0.004210 0.224146 0.159063 -0.491136
O4    O     O_2   0.180075 0.753072 0.271121 -0.272699
O5    O     O_2   0.184315 0.540539 0.078793 -0.303231
O6    O     O_3   0.979998 0.689791 0.108472 -0.503547
O7    O     O_3   0.923017 0.624585 0.602677 -0.722283
O8    O     O_3   0.081979 0.370307 0.618313 -0.720387
O9    O     O_R   0.500000 0.714650 0.636850 -0.620374
O10   O     O_R   0.500000 0.285360 0.363100 -0.596719
O11   O     O_R   0.500000 0.714640 0.363100 -0.596914
O12   O     O_R   0.319080 0.500000 0.636840 -0.614245
O13   O     O_R   0.680920 0.500000 0.636840 -0.609827
O14   O     O_R   0.319090 0.500000 0.363090 -0.579081
O15   O     O_R   0.680910 0.500000 0.363090 -0.581125
O16   O     O_2   0.799000 0.211716 0.323246 -0.270827
S1    S     S_3+6 0.882617 0.319363 0.234564 0.093697
S2    S     S_3+6 0.107225 0.623800 0.202821 0.061356
Zn1   Zn    Zn3+2 0.500000 0.500000 0.682780 1.073355
Zn2   Zn    Zn3+2 0.500000 0.500000 0.317220 1.126069

loop_
_geom_bond_atom_site_label_1
_geom_bond_atom_site_label_2
_ccdc_geom_bond_type
C5    C8    S    
C9    O8    S    
C6    C7    S    
O11   Zn2   S    
O13   Zn1   S    
C1    O1    A    
C6    S1    S    
O14   Zn2   S    
O4    S2    D    
O16   S1    D    
C3    O11   A    
C2    C3    S    
H1    O3    S    
O9    Zn1   S    
O10   Zn2   S    
O2    S1    D    
C5    O13   A    
N2    Zn1   S    
C1    O10   A    
O6    S2    S    
C7    S2    S    
N1    N2    T    
C2    C10   T    
H2    O6    S    
N1    Zn2   S    
C3    O9    A    
C8    O7    S    
H3    O7    S    
O3    S1    S    
H4    O8    S    
C7    C9    D    
O15   Zn2   S    
C6    C8    D    
O5    S2    D    
O1    Zn1   S    
C4    O12   A    
C4    C9    S    
C4    O14   A    
C1    C10   S    
O12   Zn1   S    
C5    O15   A    
