data_mof_unit_27405.cif
_audit_creation_date              2013-03-05T16:10:15-0500
_audit_creation_method            fapswitch 2.2
_symmetry_space_group_name_H-M    P1
_symmetry_Int_Tables_number       1
_space_group_crystal_system       triclinic
_cell_length_a                    9.883277
_cell_length_b                    10.650901
_cell_length_c                    13.145099
_cell_angle_alpha                 90.422791
_cell_angle_beta                  69.483909
_cell_angle_gamma                 89.426922
_cell_volume                      1295.81237828

loop_
_atom_site_label
_atom_site_type_symbol
_atom_site_description
_atom_site_fract_x
_atom_site_fract_y
_atom_site_fract_z
_atom_type_partial_charge
O1    O     O_R   0.385370 0.683250 0.500010 -0.612148
O2    O     O_R   0.614700 0.683220 0.500010 -0.621429
C1    C     C_R   0.499801 0.739874 0.499817 0.878656
O3    O     O_R   0.328400 0.499990 0.653620 -0.602554
O4    O     O_R   0.557730 0.499960 0.653620 -0.616166
C2    C     C_R   0.420468 0.488912 0.703876 0.864209
Zn1   Zn    Zn3+2 0.346870 0.500020 0.500000 0.942983
Zn2   Zn    Zn3+2 0.653130 0.499980 0.500000 0.934942
O5    O     O_R   0.385300 0.316780 0.499990 -0.624481
O6    O     O_R   0.614630 0.316750 0.499990 -0.629853
O7    O     O_R   0.442270 0.500040 0.346380 -0.618901
O8    O     O_R   0.671600 0.500010 0.346380 -0.612541
C3    C     C_R   0.500825 0.260133 0.499315 0.850491
C4    C     C_R   0.580624 0.499675 0.295497 0.866045
C5    C     C_R   0.792815 0.389275 0.011877 -0.216928
H1    H     H_    0.843956 0.410243 0.156944 0.150587
H2    H     H_    0.810101 0.308216 0.814864 0.147647
H3    H     H_    0.896493 0.346065 0.966656 0.138054
C6    C     C_R   0.630645 0.483754 0.178094 -0.056278
C7    C     C_R   0.228056 0.495784 0.885802 -0.199029
C8    C     C_R   0.187941 0.505460 0.997825 -0.159899
C9    C     C_R   0.291858 0.492830 0.046162 -0.193417
C10   C     C_R   0.436979 0.461512 0.982849 0.085379
C11   C     C_R   0.471106 0.432876 0.871842 0.091739
C12   C     C_R   0.548843 0.455698 0.026458 0.079493
C13   C     C_R   0.684732 0.400501 0.965764 0.178957
C14   C     C_R   0.708983 0.354778 0.861261 -0.270656
C15   C     C_R   0.603484 0.370333 0.814845 -0.198318
C16   C     C_R   0.529411 0.505490 0.128644 -0.263154
C17   C     C_R   0.764466 0.428098 0.119119 -0.210519
C18   C     C_R   0.371227 0.467741 0.821427 -0.126313
H4    H     H_    0.433011 0.558688 0.173204 0.152103
H5    H     H_    0.147765 0.512097 0.849572 0.155624
H6    H     H_    0.254658 0.502895 0.133448 0.131853
H7    H     H_    0.077009 0.527597 0.047002 0.143509
H8    H     H_    0.625521 0.329776 0.734897 0.172204
C19   C     C_R   0.576428 0.935404 0.555063 -0.184974
H9    H     H_    0.632568 0.885271 0.600245 0.144905
C20   C     C_R   0.577775 0.064145 0.554307 -0.202178
H10   H     H_    0.634703 0.113923 0.598978 0.142003
C21   C     C_R   0.502497 0.127723 0.497964 -0.003062
C22   C     C_R   0.428157 0.064661 0.440687 -0.204186
H11   H     H_    0.371708 0.114896 0.395796 0.144858
C23   C     C_R   0.428482 0.935831 0.440261 -0.211024
H12   H     H_    0.373532 0.885959 0.394271 0.140265
C24   C     C_R   0.500692 0.872303 0.498820 0.001916
C25   C     C_R   0.957895 0.414790 0.438650 -0.095806
H13   H     H_    0.927510 0.346567 0.389428 0.130296
C26   C     C_R   0.101502 0.414767 0.438689 -0.100757
H14   H     H_    0.179304 0.346522 0.389558 0.134649
N1    N     N_R   0.142790 0.500030 0.500030 -0.093817
C27   C     C_R   0.040082 0.586033 0.561126 0.041006
C28   C     C_R   0.897166 0.584981 0.560827 -0.092446
H15   H     H_    0.817667 0.652468 0.609590 0.139057
N2    N     N_R   0.857180 0.499940 0.500010 -0.083113
C29   C     C_R   0.070917 0.681229 0.631015 0.160617
C30   C     C_R   0.030285 0.659611 0.742617 -0.161370
C31   C     C_R   0.043517 0.754401 0.812631 -0.142277
C32   C     C_R   0.092149 0.872924 0.771922 -0.116328
C33   C     C_R   0.124075 0.897474 0.661744 -0.142505
C34   C     C_R   0.111122 0.802490 0.591746 -0.125632
H16   H     H_    0.984789 0.570215 0.775359 0.119250
H17   H     H_    0.013782 0.736566 0.898629 0.136499
H18   H     H_    0.101741 0.946510 0.826123 0.128913
H19   H     H_    0.157095 0.990456 0.630911 0.146323
H20   H     H_    0.131361 0.823332 0.507244 0.117030

loop_
_geom_bond_atom_site_label_1
_geom_bond_atom_site_label_2
_geom_bond_distance
_ccdc_geom_bond_type
O4    Zn2   1.905834 S    
C10   C11   1.407989 A    
C19   H9    1.084187 S    
C8    H7    1.082271 S    
C5    H3    1.083841 S    
C21   C22   1.395704 A    
C1    C24   1.410736 S    
C25   H13   1.081883 S    
O8    C4    1.295157 A    
Zn2   O8    1.962836 S    
Zn1   O5    1.984543 S    
C26   N1    1.366978 A    
C3    C21   1.410122 S    
C2    C18   1.468206 S    
C32   H18   1.082357 S    
C11   C18   1.416460 A    
Zn1   N1    2.016840 S    
C32   C33   1.397286 A    
C20   C21   1.394331 A    
O1    Zn1   1.992052 S    
C28   H15   1.083404 S    
C23   H12   1.083400 S    
Zn1   O7    1.905835 S    
C13   C14   1.392364 A    
C22   C23   1.372090 A    
O3    Zn1   1.962835 S    
C9    H6    1.079289 S    
C7    H5    1.072409 S    
C4    C6    1.454137 S    
Zn2   N2    2.016725 S    
C25   C26   1.419484 A    
C12   C13   1.418492 A    
C23   C24   1.393834 A    
C33   H19   1.082233 S    
O2    C1    1.281406 A    
C16   H4    1.079356 S    
C30   C31   1.398827 A    
C10   C12   1.413560 A    
C12   C16   1.388902 A    
O4    C2    1.291041 A    
C19   C20   1.371488 A    
O7    C4    1.294576 A    
C31   C32   1.397422 A    
O3    C2    1.303332 A    
C22   H11   1.084067 S    
C28   N2    1.354123 A    
H1    C17   1.082972 S    
N1    C27   1.383323 A    
H2    C14   1.083998 S    
C31   H17   1.082497 S    
C27   C29   1.467512 S    
C20   H10   1.084172 S    
C7    C8    1.387062 A    
C15   H8    1.081416 S    
C5    C17   1.396055 A    
C25   N2    1.368313 A    
C26   H14   1.081893 S    
C14   C15   1.389558 A    
C29   C30   1.400124 A    
O5    C3    1.283259 A    
C29   C34   1.403123 A    
C5    C13   1.405412 A    
C30   H16   1.083028 S    
C19   C24   1.396129 A    
C8    C9    1.390159 A    
C6    C17   1.400165 A    
C34   H20   1.082550 S    
O6    C3    1.284253 A    
Zn2   O6    1.992054 S    
O2    Zn2   1.984543 S    
C9    C10   1.417981 A    
C11   C15   1.415947 A    
C27   C28   1.414005 A    
C33   C34   1.399257 A    
O1    C1    1.286249 A    
C7    C18   1.398579 A    
C6    C16   1.389473 A    
