data_mof_unit_26046.cif
_audit_creation_date              2012-12-11T15:45:05-0500
_audit_creation_method            fapswitch 2.2
_symmetry_space_group_name_H-M    P1
_symmetry_Int_Tables_number       1
_space_group_crystal_system       triclinic
_cell_length_a                    6.921905
_cell_length_b                    16.809427
_cell_length_c                    17.07408
_cell_angle_alpha                 100.187454
_cell_angle_beta                  89.395176
_cell_angle_gamma                 90.700332
_cell_volume                      1955.08722253

loop_
_atom_site_label
_atom_site_type_symbol
_atom_type_description
_atom_site_fract_x
_atom_site_fract_y
_atom_site_fract_z
_atom_type_partial_charge
O1    O     O_R   0.494370 0.415690 0.413450 -0.552744
O2    O     O_R   0.819420 0.429360 0.578420 -0.545261
O3    O     O_R   0.994280 0.584310 0.586550 -0.518629
C1    C     C_R   0.648563 0.414275 0.605692 0.764719
O4    O     O_R   0.823790 0.406230 0.413570 -0.510592
O5    O     O_R   0.998670 0.561000 0.420530 -0.530289
C2    C     C_R   0.654369 0.382720 0.385142 0.790686
O6    O     O_R   0.489970 0.439000 0.579470 -0.521271
O7    O     O_3   0.662300 0.550810 0.502470 -0.369813
V1    V     V_3+5 0.935380 0.490570 0.499540 1.565762
O8    O     O_R   0.328650 0.570640 0.421580 -0.527828
C3    C     C_R   0.159958 0.585986 0.394396 0.811077
O9    O     O_R   0.324290 0.593770 0.586430 -0.545361
C4    C     C_R   0.154879 0.615957 0.615889 0.778667
V2    V     V_3+5 0.435930 0.509430 0.500460 1.545486
O10   O     O_3   0.159140 0.449190 0.497530 -0.377358
C5    C     C_R   0.291430 0.740650 0.699824 -0.284312
H1    H     H_    0.415453 0.736128 0.660060 0.160799
C6    C     C_R   0.280458 0.806631 0.762724 0.161229
C7    C     C_R   0.120945 0.814258 0.816101 -0.105149
C8    C     C_R   0.973672 0.754343 0.804877 0.198747
C9    C     C_R   0.979578 0.690876 0.737464 0.272634
C10   C     C_R   0.142240 0.683001 0.685808 -0.124926
C11   C     C_R   0.143327 0.637186 0.331518 -0.144024
C12   C     C_R   0.120844 0.868445 0.172360 -0.174482
C13   C     C_R   0.290620 0.843887 0.291482 0.184092
C14   C     C_R   0.246753 0.895258 0.237044 0.306744
C15   C     C_R   0.029423 0.792977 0.167187 -0.233928
C16   C     C_R   0.070245 0.741851 0.221979 0.023208
C17   C     C_R   0.208268 0.764941 0.282898 -0.006722
C18   C     C_R   0.251887 0.709450 0.335082 0.254639
C19   C     C_R   0.005638 0.615847 0.270747 0.306665
C20   C     C_R   0.973699 0.667427 0.215806 -0.246892
H2    H     H_    0.869054 0.650067 0.168905 0.126847
H3    H     H_    0.930858 0.772789 0.118570 0.144070
C21   C     C_R   0.627630 0.362945 0.668112 -0.119989
C22   C     C_R   0.638081 0.134009 0.829152 -0.139725
C23   C     C_R   0.813593 0.167409 0.712363 0.378323
C24   C     C_R   0.779044 0.114541 0.767574 0.099180
C25   C     C_R   0.528008 0.203991 0.832023 -0.248636
C26   C     C_R   0.561331 0.256443 0.777416 0.052901
C27   C     C_R   0.706057 0.238955 0.718037 0.067768
C28   C     C_R   0.739304 0.293128 0.664465 -0.249516
C29   C     C_R   0.483639 0.380169 0.727856 0.369808
C30   C     C_R   0.452587 0.326951 0.782123 -0.221134
H4    H     H_    0.847764 0.279990 0.617889 0.187533
H5    H     H_    0.342293 0.340497 0.827943 0.114180
H6    H     H_    0.420034 0.219006 0.878617 0.137742
C31   C     C_R   0.789416 0.254326 0.305053 0.231184
C32   C     C_R   0.784238 0.191139 0.237334 0.294399
C33   C     C_R   0.622856 0.182586 0.186109 -0.169654
C34   C     C_R   0.473913 0.238959 0.201104 -0.265865
H7    H     H_    0.350440 0.233929 0.161964 0.169824
C35   C     C_R   0.482266 0.303513 0.264988 0.298686
C36   C     C_R   0.642080 0.312955 0.317318 -0.179029
O11   O     O_R   0.774880 0.061150 0.920630 -0.550244
O12   O     O_R   0.440980 0.093710 0.086500 -0.555905
O13   O     O_R   0.266190 0.938890 0.079390 -0.535958
C37   C     C_R   0.610157 0.115815 0.116008 0.779223
O14   O     O_R   0.445420 0.070740 0.921670 -0.542812
O15   O     O_R   0.270660 0.915760 0.913380 -0.523466
C38   C     C_R   0.616344 0.084652 0.893391 0.722097
O16   O     O_R   0.770400 0.084270 0.086640 -0.510580
O17   O     O_3   0.602590 0.949210 0.997500 -0.357138
V3    V     V_3+5 0.329470 0.009420 0.000470 1.467167
O18   O     O_R   0.940650 0.906250 0.913470 -0.521949
C39   C     C_R   0.109921 0.883242 0.884662 0.777936
O19   O     O_R   0.936210 0.929220 0.078300 -0.529914
C40   C     C_R   0.104732 0.914991 0.106157 0.726748
V4    V     V_3+5 0.828930 0.990510 0.999490 1.511196
O20   O     O_3   0.105680 0.050790 0.002500 -0.379733
O21   O     O_3   0.376198 0.449667 0.732615 -0.641686
H8    H     H_    0.281754 0.452625 0.777090 0.284722
O22   O     O_3   0.951647 0.151261 0.652492 -0.647235
H9    H     H_    0.022119 0.101383 0.656615 0.330795
N1    N     N_3   0.884392 0.040297 0.758652 -0.688095
H10   H     H_    0.787905 0.992302 0.760542 0.234360
H11   H     H_    0.983800 0.043886 0.804764 0.244421
O23   O     O_3   0.932286 0.258226 0.361596 -0.648510
H12   H     H_    0.979727 0.203031 0.362338 0.299512
O24   O     O_3   0.933821 0.136901 0.220704 -0.644779
H13   H     H_    0.056225 0.164625 0.239536 0.287122
N2    N     N_3   0.431259 0.866678 0.771120 -0.646711
H14   H     H_    0.562212 0.838224 0.777474 0.251914
H15   H     H_    0.439262 0.890585 0.718638 0.227221
O25   O     O_3   0.334365 0.358155 0.273401 -0.625290
H16   H     H_    0.257034 0.347545 0.319741 0.322327
O26   O     O_3   0.829945 0.757367 0.862129 -0.646940
H17   H     H_    0.781643 0.701871 0.863170 0.298253
O27   O     O_3   0.829558 0.635578 0.721681 -0.638909
H18   H     H_    0.707108 0.662742 0.740451 0.292832
O28   O     O_3   0.396153 0.724683 0.390766 -0.623277
H19   H     H_    0.514065 0.738144 0.362119 0.316486
O29   O     O_3   0.905705 0.543373 0.265402 -0.633480
H20   H     H_    0.814600 0.537546 0.220260 0.292157
N3    N     N_3   0.410955 0.874717 0.358122 -0.627099
H21   H     H_    0.544558 0.891531 0.336574 0.253539
H22   H     H_    0.346454 0.926306 0.390629 0.265646
O30   O     O_3   0.329598 0.971739 0.249818 -0.646536
H23   H     H_    0.252707 0.007918 0.222718 0.296099

loop_
_geom_bond_atom_site_label_1
_geom_bond_atom_site_label_2
_ccdc_geom_bond_type
C19   O29   S    
C1    C21   S    
C26   C27   A    
C7    C39   S    
C6    C7    A    
C2    C36   S    
C1    O6    A    
O24   H13   S    
C29   C30   A    
C12   C15   A    
C14   O30   S    
C13   C14   A    
C5    C10   A    
C15   C16   A    
N1    H11   S    
C23   C27   A    
C22   C25   A    
C22   C38   S    
O5    C3    A    
C17   C18   A    
O12   C37   A    
V2    O10   S    
C16   C20   A    
O14   C38   A    
O8    V2    S    
N2    H14   S    
C15   H3    S    
O19   C40   A    
N3    H22   S    
V4    O20   S    
O1    V2    S    
O17   V4    S    
O7    V1    S    
O18   C39   A    
C8    O26   S    
O9    C4    A    
C6    N2    S    
C34   C35   A    
C20   H2    S    
C30   H5    S    
C13   N3    S    
C23   C24   A    
O22   H9    S    
C33   C34   A    
C18   O28   S    
N1    H10   S    
O4    C2    A    
O25   H16   S    
C32   C33   A    
C31   C36   A    
C31   O23   S    
C4    C10   S    
O2    C1    A    
C11   C19   A    
C16   C17   A    
O15   C39   A    
O13   V3    S    
O30   H23   S    
O16   V4    S    
N3    H21   S    
C5    H1    S    
C9    O27   S    
C24   N1    S    
C7    C8    A    
O3    C4    A    
C25   C26   A    
N2    H15   S    
O14   V3    S    
C13   C17   A    
O6    V2    S    
O11   V4    S    
O9    V2    S    
O11   C38   A    
C21   C29   A    
C33   C37   S    
C27   C28   A    
O2    V1    S    
C34   H7    S    
C35   O25   S    
C23   O22   S    
C25   H6    S    
C35   C36   A    
O1    C2    A    
O12   V3    S    
O21   H8    S    
O5    V1    S    
O8    C3    A    
O13   C40   A    
C12   C14   A    
C3    C11   S    
C37   O16   A    
C19   C20   A    
O7    V2    S    
C11   C18   A    
O4    V1    S    
C22   C24   A    
O3    V1    S    
V3    O20   S    
O17   V3    S    
O27   H18   S    
O18   V4    S    
O28   H19   S    
C5    C6    A    
C29   O21   S    
O29   H20   S    
C28   H4    S    
O23   H12   S    
O15   V3    S    
C12   C40   S    
O26   H17   S    
O19   V4    S    
C31   C32   A    
C26   C30   A    
C9    C10   A    
C21   C28   A    
V1    O10   S    
C8    C9    A    
C32   O24   S    
