data_mof_unit_48964.cif
_audit_creation_date              2013-03-05T15:57:37-0500
_audit_creation_method            fapswitch 2.2
_symmetry_space_group_name_H-M    P1
_symmetry_Int_Tables_number       1
_space_group_crystal_system       triclinic
_cell_length_a                    15.052646
_cell_length_b                    15.009389
_cell_length_c                    15.123364
_cell_angle_alpha                 108.106281
_cell_angle_beta                  110.767847
_cell_angle_gamma                 109.406804
_cell_volume                      2633.51512878

loop_
_atom_site_label
_atom_site_type_symbol
_atom_site_description
_atom_site_fract_x
_atom_site_fract_y
_atom_site_fract_z
_atom_type_partial_charge
C1    C     C_R   0.907936 0.906131 0.706886 -0.132842
H1    H     H_    0.824660 0.844904 0.673781 0.094707
N1    N     N_R   0.941940 0.944580 0.650780 -0.041334
C2    C     C_R   0.089032 0.304015 0.504653 -0.140245
H2    H     H_    0.173475 0.361774 0.537631 0.119530
N2    N     N_R   0.056800 0.208900 0.502740 -0.041785
C3    C     C_R   0.294500 0.208927 0.803755 -0.054805
H3    H     H_    0.320516 0.177562 0.857372 0.144381
N3    N     N_R   0.204460 0.150250 0.707090 -0.051790
C4    C     C_R   0.733818 0.048597 0.454093 -0.140016
H4    H     H_    0.713340 0.091923 0.412343 0.123309
N4    N     N_R   0.794270 0.003240 0.446420 -0.040592
C5    C     C_R   0.296357 0.303107 0.714393 -0.143345
H5    H     H_    0.323785 0.359528 0.686990 0.092600
N5    N     N_R   0.204920 0.207570 0.650770 -0.035222
C6    C     C_R   0.733352 0.955830 0.546671 -0.106431
H6    H     H_    0.712653 0.914574 0.589488 0.156984
N6    N     N_R   0.793810 0.945920 0.502740 -0.050428
C7    C     C_R   0.906754 0.207612 0.406140 -0.093956
H7    H     H_    0.824050 0.171684 0.340817 0.116407
N7    N     N_R   0.943620 0.152590 0.446420 -0.047970
C8    C     C_R   0.090576 0.003394 0.802425 -0.096479
H8    H     H_    0.175792 0.038693 0.861092 0.125164
N8    N     N_R   0.055110 0.000900 0.707100 -0.048035
C9    C     C_R   0.999057 0.942395 0.803213 0.068353
C10   C     C_R   0.995297 0.304218 0.442369 0.053153
C11   C     C_R   0.353701 0.306026 0.811659 -0.034327
C12   C     C_R   0.696868 0.020876 0.517724 0.052096
C13   C     C_R   0.700542 0.697931 0.285695 -0.093104
H9    H     H_    0.671639 0.637287 0.308218 0.105792
N9    N     N_R   0.795080 0.792430 0.349230 -0.048193
C14   C     C_R   0.302614 0.096988 0.505076 -0.162761
H10   H     H_    0.327367 0.150535 0.473814 0.093835
N10   N     N_R   0.206190 0.054080 0.497260 -0.037602
C15   C     C_R   0.092456 0.779032 0.527698 -0.138693
H11   H     H_    0.177761 0.804856 0.560805 0.133187
N11   N     N_R   0.056380 0.847410 0.553580 -0.046612
C16   C     C_R   0.908714 0.934848 0.191180 -0.155627
H12   H     H_    0.825573 0.873256 0.133061 0.111881
N12   N     N_R   0.944890 0.999100 0.292900 -0.039255
C17   C     C_R   0.090898 0.035123 0.277404 -0.100907
H13   H     H_    0.174610 0.073477 0.295679 0.092549
N13   N     N_R   0.058060 0.055420 0.349220 -0.041821
C18   C     C_R   0.909405 0.687885 0.436856 -0.127667
H14   H     H_    0.824378 0.627363 0.385171 0.107048
N14   N     N_R   0.943200 0.791100 0.497260 -0.046063
C19   C     C_R   0.702228 0.793903 0.199590 -0.160298
H15   H     H_    0.675138 0.823600 0.144628 0.115126
N15   N     N_R   0.795540 0.849750 0.292910 -0.042529
C20   C     C_R   0.304730 0.005468 0.595676 -0.120568
H16   H     H_    0.333387 0.975261 0.649707 0.114992
N16   N     N_R   0.205730 0.996760 0.553580 -0.046687
Ni1   Ni    Ni4+2 0.869690 0.869690 0.500000 0.209958
Ni2   Ni    Ni4+2 0.130310 0.130310 0.500000 0.212969
Ni3   Ni    Ni4+2 0.129250 0.998840 0.629170 0.219210
Ni4   Ni    Ni4+2 0.870750 0.001160 0.370830 0.220420
C21   C     C_R   0.644133 0.696924 0.190559 0.116705
C22   C     C_R   0.366239 0.069415 0.567604 0.073633
C23   C     C_R   0.001545 0.676299 0.452791 0.081863
C24   C     C_R   0.996518 0.959971 0.176445 0.066198
H17   H     H_    0.380840 0.672151 0.050852 0.107962
C25   C     C_R   0.406775 0.829523 0.143418 -0.118387
H18   H     H_    0.380938 0.843124 0.074757 0.129246
C26   C     C_R   0.439338 0.907945 0.245351 -0.159020
H19   H     H_    0.438204 0.982043 0.254770 0.109052
C27   C     C_R   0.473583 0.890698 0.334738 0.135272
C28   C     C_R   0.473930 0.793949 0.320825 -0.142743
H20   H     H_    0.499606 0.779108 0.388741 0.112671
C29   C     C_R   0.439569 0.715077 0.218490 -0.100160
H21   H     H_    0.438548 0.640030 0.208011 0.111971
C30   C     C_R   0.406664 0.733050 0.129928 -0.094813
C31   C     C_R   0.426200 0.987101 0.458011 -0.277461
H22   H     H_    0.341220 0.936454 0.392779 0.149426
C32   C     C_R   0.454872 0.064618 0.558341 0.068682
C33   C     C_R   0.564155 0.134063 0.642673 0.036871
C34   C     C_R   0.643518 0.116336 0.627938 -0.144853
H23   H     H_    0.729163 0.167947 0.691214 0.128495
C35   C     C_R   0.613530 0.035495 0.529473 0.096680
C36   C     C_R   0.505699 0.972757 0.441956 -0.011682
C37   C     C_R   0.587235 0.317422 0.723562 -0.163794
H24   H     H_    0.538210 0.303871 0.643201 0.107654
C38   C     C_R   0.643521 0.421087 0.811793 -0.144690
H25   H     H_    0.635315 0.485977 0.799718 0.109855
C39   C     C_R   0.711858 0.441557 0.915315 -0.029315
H26   H     H_    0.755623 0.522038 0.983503 0.120603
C40   C     C_R   0.723278 0.358061 0.930924 -0.038811
H27   H     H_    0.776335 0.374052 0.011152 0.145778
C41   C     C_R   0.668446 0.254613 0.842622 -0.138393
H28   H     H_    0.681894 0.191809 0.854932 0.184588
C42   C     C_R   0.600731 0.233863 0.738135 0.094500
H29   H     H_    0.571337 0.209322 0.450122 0.110551
C43   C     C_R   0.611803 0.227261 0.331295 -0.122513
H30   H     H_    0.527820 0.176120 0.265389 0.106941
C44   C     C_R   0.695440 0.274577 0.312252 -0.141676
H31   H     H_    0.675437 0.259341 0.230897 0.144064
C45   C     C_R   0.804600 0.340883 0.398244 0.098500
C46   C     C_R   0.828117 0.361023 0.503523 -0.144723
H32   H     H_    0.911470 0.413606 0.571175 0.111053
C47   C     C_R   0.744282 0.313283 0.521922 -0.112570
H33   H     H_    0.763039 0.328308 0.602930 0.117282
C48   C     C_R   0.636198 0.246329 0.435826 -0.112899
C49   C     C_R   0.896487 0.479055 0.360982 -0.191713
H34   H     H_    0.820961 0.480871 0.332998 0.144056
C50   C     C_R   0.998203 0.571372 0.408867 0.029641
C51   C     C_R   0.092209 0.558660 0.431508 -0.056293
C52   C     C_R   0.079551 0.455909 0.411095 0.120162
C53   C     C_R   0.988304 0.383190 0.407400 0.057430
C54   C     C_R   0.894265 0.394851 0.380513 0.006951
C55   C     C_R   0.262680 0.699887 0.459884 -0.215732
H35   H     H_    0.223775 0.673460 0.374023 0.147552
C56   C     C_R   0.371731 0.783214 0.529415 -0.262464
H36   H     H_    0.415808 0.819900 0.496281 0.167405
C57   C     C_R   0.422957 0.819810 0.641345 0.441561
C58   C     C_R   0.365436 0.768164 0.682134 -0.262077
H37   H     H_    0.404032 0.793015 0.767513 0.154634
C59   C     C_R   0.258251 0.682462 0.612549 -0.249641
H38   H     H_    0.215652 0.641602 0.644864 0.131399
C60   C     C_R   0.205153 0.650232 0.501784 0.129287
C61   C     C_2   0.502762 0.486831 0.905588 -0.330800
C62   C     C_2   0.459286 0.392730 0.904926 0.383269
H39   H     H_    0.475073 0.494398 0.833138 0.116154
C63   C     C_2   0.576750 0.586867 0.005722 -0.071082
C64   C     C_2   0.559255 0.603949 0.088818 -0.130899
H40   H     H_    0.646023 0.646743 0.010677 0.126381
H41   H     H_    0.490073 0.544916 0.084556 0.155438
H42   H     H_    0.417992 0.943600 0.916448 0.139200
C65   C     C_R   0.245779 0.848959 0.855699 -0.132068
H43   H     H_    0.231304 0.785499 0.784932 0.119654
C66   C     C_R   0.158396 0.843160 0.871231 -0.148002
H44   H     H_    0.076735 0.775323 0.811215 0.112768
C67   C     C_R   0.175734 0.926566 0.961781 0.110846
C68   C     C_R   0.282485 0.013769 0.038562 -0.166501
H45   H     H_    0.297399 0.079275 0.108463 0.124336
C69   C     C_R   0.369450 0.019632 0.021788 -0.105238
H46   H     H_    0.450879 0.088561 0.078418 0.124647
C70   C     C_R   0.350940 0.937751 0.930084 -0.126792
C71   C     C_R   0.077335 0.932976 0.062928 -0.249666
H47   H     H_    0.145926 0.941808 0.128944 0.124463
C72   C     C_R   0.987093 0.931026 0.071641 0.085185
C73   C     C_R   0.894223 0.912884 0.982752 0.098802
C74   C     C_R   0.899288 0.907746 0.893055 -0.167795
H48   H     H_    0.831155 0.902781 0.830225 0.152437
C75   C     C_R   0.993496 0.921369 0.888674 0.040870
C76   C     C_R   0.080992 0.926721 0.970681 0.034036
C77   C     C_R   0.699302 0.799820 0.920279 -0.209126
H49   H     H_    0.704151 0.730093 0.878313 0.124267
C78   C     C_R   0.602013 0.784070 0.918732 -0.102692
H50   H     H_    0.532338 0.703321 0.874907 0.113574
C79   C     C_R   0.595250 0.871889 0.975793 -0.148342
H51   H     H_    0.520627 0.858888 0.976901 0.110997
C80   C     C_R   0.684034 0.976437 0.030648 -0.148222
H52   H     H_    0.675124 0.043186 0.071973 0.150882
C81   C     C_R   0.782218 0.994967 0.030628 0.405600
C82   C     C_R   0.791182 0.904122 0.978427 -0.061958
N17   N     N_2   0.164196 0.432347 0.410376 -0.145815
H53   H     H_    0.238335 0.496746 0.437488 0.175379
C83   C     C_3   0.130575 0.340506 0.312140 -0.752682
H54   H     H_    0.201736 0.329329 0.319638 0.216594
H55   H     H_    0.099371 0.354129 0.241929 0.277174
H56   H     H_    0.066558 0.265352 0.298009 0.285178
N18   N     N_R   0.532725 0.908913 0.713426 0.224924
O1    O     O_R   0.601127 0.930243 0.679402 -0.462809
O2    O     O_R   0.564976 0.969830 0.813664 -0.440339
N19   N     N_R   0.507213 0.381196 0.999414 0.232305
O3    O     O_R   0.446973 0.339705 0.035462 -0.448918
O4    O     O_R   0.612786 0.422915 0.056477 -0.421062
N20   N     N_R   0.870114 0.104700 0.083880 0.223002
O5    O     O_R   0.950518 0.127643 0.065090 -0.413650
O6    O     O_R   0.864169 0.184167 0.142988 -0.449318

loop_
_geom_bond_atom_site_label_1
_geom_bond_atom_site_label_2
_geom_bond_distance
_ccdc_geom_bond_type
C6    C12   1.377632 A    
C52   N17   1.433711 S    
C83   H54   1.110627 S    
N17   C83   1.446986 S    
C17   H13   1.080586 S    
C56   H36   1.076563 S    
C14   C22   1.359091 A    
C77   H49   1.083589 S    
N9    N15   1.386147 A    
C3    H3    1.080317 S    
C19   N15   1.320526 A    
C11   C62   1.450481 S    
N8    Ni3   1.889038 S    
C66   C67   1.405158 A    
C27   C36   1.478852 S    
C71   C72   1.402267 A    
N18   O2    1.300509 A    
C23   C50   1.482394 S    
N19   O3    1.301381 A    
C15   N11   1.331479 A    
N2    Ni2   1.867366 S    
C57   C58   1.400382 A    
C31   C36   1.371896 A    
C79   C80   1.395584 A    
C16   H12   1.067443 S    
C40   C41   1.397617 A    
C64   H41   1.085085 S    
C21   C64   1.426068 S    
C52   C53   1.411509 A    
C18   C23   1.400451 A    
C65   C70   1.396688 A    
C3    C11   1.373138 A    
C59   H38   1.083209 S    
C15   C23   1.395073 A    
C1    H1    1.081640 S    
C29   C30   1.398166 A    
C7    C10   1.372272 A    
C25   C26   1.398246 A    
N6    Ni1   1.867619 S    
C77   C78   1.394012 A    
C39   H26   1.082460 S    
N12   N13   1.381497 A    
C78   H50   1.082215 S    
C6    H6    1.078839 S    
N12   Ni4   1.889038 S    
C8    C9    1.384356 A    
C20   N16   1.337591 A    
C80   H52   1.082522 S    
C49   C54   1.377186 A    
N3    Ni3   1.874704 S    
C12   C35   1.403605 S    
C33   C42   1.474885 S    
N16   Ni3   1.888955 S    
H17   C30   1.082376 S    
C27   C28   1.403193 A    
C45   C54   1.488240 S    
H42   C70   1.081161 S    
C83   H55   1.111301 S    
C5    H5    1.080035 S    
C81   N20   1.443451 S    
C1    C9    1.376163 A    
C17   N13   1.338616 A    
N1    N8    1.381496 A    
C9    C75   1.445579 S    
H29   C48   1.082794 S    
C50   C51   1.425621 A    
C46   C47   1.398352 A    
C18   N14   1.326792 A    
C55   C60   1.400213 A    
C46   H32   1.083329 S    
C61   H39   1.082634 S    
C78   C79   1.391743 A    
C32   C33   1.401967 A    
C13   C21   1.379447 A    
C49   H34   1.076507 S    
C20   C22   1.378473 A    
N5    Ni2   1.865513 S    
C34   H23   1.085594 S    
C2    N2    1.333568 A    
C55   H35   1.082883 S    
N20   O5    1.300736 A    
C35   C36   1.399715 A    
C37   H24   1.083315 S    
C69   C70   1.396584 A    
C14   N10   1.321078 A    
N2    N7    1.381616 A    
N9    Ni1   1.865516 S    
C28   H20   1.082539 S    
N20   O6    1.301802 A    
C1    N1    1.315699 A    
C74   C75   1.392670 A    
C26   C27   1.404350 A    
C49   C50   1.403126 A    
C33   C34   1.382288 A    
C65   C66   1.395919 A    
C13   H9    1.080953 S    
C19   C21   1.359409 A    
N13   Ni2   1.865956 S    
C58   C59   1.393030 A    
C19   H15   1.080068 S    
C53   C54   1.414362 A    
C45   C46   1.407734 A    
C25   H18   1.081349 S    
C43   C44   1.400856 A    
C20   H16   1.081493 S    
C44   H31   1.083218 S    
C56   C57   1.405946 A    
C6    N6    1.322522 A    
C73   C74   1.365335 A    
C61   C62   1.339991 D    
C44   C45   1.405369 A    
N4    Ni4   1.888955 S    
C4    N4    1.320005 A    
C43   C48   1.397549 A    
C16   C24   1.366963 A    
C77   C82   1.407090 A    
C31   C32   1.395289 A    
C47   C48   1.396459 A    
C71   C76   1.390891 A    
C41   C42   1.404940 A    
N10   Ni2   1.867620 S    
C83   H56   1.108342 S    
C38   C39   1.397334 A    
C5    N5    1.329696 A    
C8    N8    1.331200 A    
C51   C60   1.472013 S    
C63   H40   1.086539 S    
C65   H43   1.078534 S    
C18   H14   1.072763 S    
C22   C32   1.412413 S    
C66   H44   1.083578 S    
C71   H47   1.084487 S    
C61   C63   1.437880 S    
C4    C12   1.372290 A    
C3    N3    1.323300 A    
C7    N7    1.318543 A    
C40   H27   1.082586 S    
C5    C11   1.394693 A    
C17   C24   1.395775 A    
C34   C35   1.389173 A    
C31   H22   1.086339 S    
C67   C68   1.406407 A    
C10   C53   1.459040 S    
N7    Ni4   1.874820 S    
C2    C10   1.392919 A    
C72   C73   1.422080 A    
C58   H37   1.080987 S    
C69   H46   1.080898 S    
N15   Ni4   1.874704 S    
C51   C52   1.406112 A    
N10   N16   1.386147 A    
C47   H33   1.082659 S    
C14   H10   1.081855 S    
C7    H7    1.080341 S    
C55   C56   1.399519 A    
N3    N5    1.386148 A    
C13   N9    1.342385 A    
N18   O1    1.298649 A    
C74   H48   1.083686 S    
C26   H19   1.083214 S    
C16   N12   1.314497 A    
N1    Ni1   1.865955 S    
N14   Ni1   1.867365 S    
N19   O4    1.300969 A    
C43   H30   1.080193 S    
C37   C38   1.396790 A    
C59   C60   1.403151 A    
C25   C30   1.397440 A    
C68   H45   1.083330 S    
C80   C81   1.410266 A    
C37   C42   1.404337 A    
C29   H21   1.081652 S    
C4    H4    1.080264 S    
C62   N19   1.448474 S    
C24   C72   1.446600 S    
C57   N18   1.433532 S    
N11   Ni3   1.874820 S    
C2    H2    1.079530 S    
C41   H28   1.083227 S    
C68   C69   1.399486 A    
C38   H25   1.082463 S    
N4    N6    1.386147 A    
N17   H53   1.029642 S    
C63   C64   1.339269 D    
C8    H8    1.078139 S    
C39   C40   1.397888 A    
C15   H11   1.068845 S    
C28   C29   1.396706 A    
N11   N14   1.381618 A    
C79   H51   1.081582 S    
C67   C76   1.479893 S    
C75   C76   1.410186 A    
C73   C82   1.488099 S    
C81   C82   1.424561 A    
