data_mof_unit_31398.cif
_audit_creation_date              2012-12-11T15:50:29-0500
_audit_creation_method            fapswitch 2.2
_symmetry_space_group_name_H-M    P1
_symmetry_Int_Tables_number       1
_space_group_crystal_system       triclinic
_cell_length_a                    18.906203
_cell_length_b                    11.006084
_cell_length_c                    18.755019
_cell_angle_alpha                 90.23198
_cell_angle_beta                  91.378662
_cell_angle_gamma                 89.86423
_cell_volume                      3901.43367959

loop_
_atom_site_label
_atom_site_type_symbol
_atom_type_description
_atom_site_fract_x
_atom_site_fract_y
_atom_site_fract_z
_atom_type_partial_charge
C1    C     C_R   0.273572 0.040100 0.854597 0.548530
C2    C     C_R   0.726399 0.039816 0.145333 0.544032
C3    C     C_R   0.773572 0.540100 0.854598 0.548532
C4    C     C_R   0.226400 0.539817 0.145333 0.544030
C5    C     C_3   0.530199 0.729580 0.971847 -0.119076
C6    C     C_3   0.471197 0.728405 0.027244 -0.118815
C7    C     C_3   0.030198 0.229579 0.971847 -0.119077
C8    C     C_3   0.971196 0.228406 0.027244 -0.118815
C9    C     C_R   0.241107 0.575779 0.072625 0.017839
C10   C     C_R   0.758779 0.576421 0.927314 0.017661
C11   C     C_R   0.741106 0.075776 0.072624 0.017839
C12   C     C_R   0.258779 0.076422 0.927314 0.017661
C13   C     C_R   0.305156 0.551030 0.039707 -0.002346
C14   C     C_R   0.694904 0.551081 0.960191 -0.003018
C15   C     C_R   0.805155 0.051029 0.039707 -0.002346
C16   C     C_R   0.194904 0.051083 0.960191 -0.003018
C17   C     C_R   0.310962 0.561803 0.966179 0.023443
C18   C     C_R   0.689171 0.561507 0.033758 0.025503
C19   C     C_R   0.810961 0.061803 0.966179 0.023444
C20   C     C_R   0.189170 0.061508 0.033757 0.025504
C21   C     C_R   0.188005 0.618985 0.956507 -0.179850
C22   C     C_R   0.811935 0.619088 0.043486 -0.179639
C23   C     C_R   0.688004 0.118981 0.956506 -0.179850
C24   C     C_R   0.311935 0.119090 0.043486 -0.179640
C25   C     C_R   0.183437 0.615544 0.029866 -0.169450
C26   C     C_R   0.816346 0.616322 0.970140 -0.169493
C27   C     C_R   0.683435 0.115539 0.029865 -0.169451
C28   C     C_R   0.316346 0.116324 0.970140 -0.169493
C29   C     C_3   0.349221 0.438815 0.042447 -0.273141
C30   C     C_3   0.651294 0.438642 0.956874 -0.272648
C31   C     C_3   0.849222 0.938817 0.042447 -0.273142
C32   C     C_3   0.151292 0.938645 0.956874 -0.272649
C33   C     C_3   0.356102 0.450434 0.962439 -0.275955
C34   C     C_3   0.644459 0.449994 0.036943 -0.277041
C35   C     C_3   0.856103 0.950435 0.962439 -0.275955
C36   C     C_3   0.144457 0.949996 0.036943 -0.277041
C37   C     C_R   0.251625 0.591065 0.923344 0.016296
C38   C     C_R   0.748497 0.590669 0.076595 0.017303
C39   C     C_R   0.751624 0.091063 0.923344 0.016296
C40   C     C_R   0.248497 0.090670 0.076595 0.017302
C41   C     C_R   0.496852 0.830661 0.422173 0.021114
C42   C     C_R   0.489268 0.830669 0.572151 0.022506
C43   C     C_R   0.996850 0.330658 0.422172 0.021117
C44   C     C_R   0.989267 0.330672 0.572150 0.022501
C45   C     C_R   0.470585 0.821769 0.855421 0.543111
C46   C     C_R   0.529550 0.821584 0.144517 0.541834
C47   C     C_R   0.970585 0.321769 0.855421 0.543111
C48   C     C_R   0.029550 0.321584 0.144517 0.541835
C49   C     C_R   0.485820 0.723178 0.459845 0.017705
C50   C     C_R   0.483814 0.724163 0.532676 0.019530
C51   C     C_R   0.985826 0.223176 0.459847 0.017703
C52   C     C_R   0.983825 0.224164 0.532678 0.019506
C53   C     C_R   0.490437 0.941243 0.534702 -0.167213
C54   C     C_R   0.492283 0.941306 0.459695 -0.172713
C55   C     C_R   0.990424 0.441244 0.534699 -0.167203
C56   C     C_R   0.992270 0.441304 0.459691 -0.172712
C57   C     C_3   0.524726 0.604353 0.460525 -0.256834
C58   C     C_3   0.523477 0.608151 0.541027 -0.283870
C59   C     C_3   0.024736 0.104354 0.460527 -0.256824
C60   C     C_3   0.023490 0.108156 0.541030 -0.283872
C61   C     C_R   0.252533 0.612785 0.416990 0.010088
C62   C     C_R   0.747791 0.591923 0.578634 0.009175
C63   C     C_R   0.752538 0.112801 0.416991 0.010073
C64   C     C_R   0.247794 0.091912 0.578631 0.009170
C65   C     C_R   0.203174 0.686653 0.451461 0.024532
C66   C     C_R   0.785362 0.685130 0.546944 0.020733
C67   C     C_R   0.703183 0.186687 0.451455 0.024547
C68   C     C_R   0.285368 0.185116 0.546941 0.020729
C69   C     C_R   0.212219 0.715952 0.522327 -0.004129
C70   C     C_R   0.782786 0.698341 0.474361 0.021073
C71   C     C_R   0.712236 0.216033 0.522317 -0.004122
C72   C     C_R   0.282791 0.198331 0.474359 0.021077
C73   C     C_R   0.326358 0.618050 0.523581 -0.146821
C74   C     C_R   0.702860 0.528055 0.462821 -0.177236
C75   C     C_R   0.826374 0.118129 0.523575 -0.146804
C76   C     C_R   0.202863 0.028046 0.462818 -0.177245
C77   C     C_R   0.317340 0.587896 0.451437 -0.160981
C78   C     C_R   0.701408 0.520757 0.536561 -0.173842
C79   C     C_R   0.817349 0.087933 0.451435 -0.160974
C80   C     C_R   0.201412 0.020743 0.536558 -0.173841
C81   C     C_3   0.125681 0.664105 0.460131 -0.123037
C82   C     C_3   0.862791 0.713834 0.550739 -0.126454
C83   C     C_3   0.625692 0.164140 0.460138 -0.123049
C84   C     C_3   0.362800 0.213798 0.550733 -0.126447
C85   C     C_3   0.135502 0.696489 0.537715 -0.264543
C86   C     C_3   0.858702 0.735991 0.471374 -0.253536
C87   C     C_3   0.635518 0.196589 0.537712 -0.264544
C88   C     C_3   0.358710 0.235968 0.471370 -0.253540
C89   C     C_R   0.260845 0.635843 0.851419 0.550288
C90   C     C_R   0.739214 0.635646 0.148605 0.540208
C91   C     C_R   0.760845 0.135843 0.851418 0.550290
C92   C     C_R   0.239214 0.135646 0.148605 0.540207
C93   C     C_R   0.271379 0.674357 0.560572 0.015264
C94   C     C_R   0.746667 0.613330 0.431424 0.020806
C95   C     C_R   0.771399 0.174445 0.560566 0.015229
C96   C     C_R   0.246669 0.113324 0.431422 0.020801
C97   C     C_R   0.270808 0.046061 0.646573 0.547808
C98   C     C_R   0.729197 0.048552 0.353117 0.544273
C99   C     C_R   0.770807 0.546064 0.646574 0.547807
C100  C     C_R   0.229198 0.548554 0.353114 0.544283
C101  C     C_R   0.469100 0.823518 0.646405 0.533864
C102  C     C_R   0.529546 0.823554 0.352666 0.541606
C103  C     C_R   0.969100 0.323518 0.646405 0.533859
C104  C     C_R   0.029545 0.323554 0.352665 0.541603
C105  C     C_R   0.274628 0.691294 0.637137 0.571395
C106  C     C_R   0.739945 0.639704 0.357188 0.547847
C107  C     C_R   0.774635 0.191320 0.637141 0.571422
C108  C     C_R   0.239946 0.139703 0.357187 0.547846
C109  C     C_3   0.470127 0.928535 0.028446 -0.127283
C110  C     C_3   0.528924 0.929714 0.972351 -0.126749
C111  C     C_3   0.970128 0.428536 0.028445 -0.127283
C112  C     C_3   0.028925 0.429714 0.972351 -0.126748
C113  C     C_3   0.430527 0.828228 0.985675 -0.102924
C114  C     C_3   0.569694 0.829980 0.014283 -0.102779
C115  C     C_3   0.930527 0.328230 0.985674 -0.102923
C116  C     C_3   0.069694 0.329979 0.014283 -0.102778
C117  C     C_3   0.490061 0.829089 0.931002 0.054408
C118  C     C_3   0.510151 0.828495 0.068935 0.054601
C119  C     C_3   0.990061 0.329089 0.931002 0.054407
C120  C     C_3   0.010151 0.328495 0.068935 0.054600
Cr1   Cr    Cr6+3 0.229640 0.835880 0.747370 1.004487
Cr2   Cr    Cr6+3 0.770360 0.835880 0.252630 1.019384
Cr3   Cr    Cr6+3 0.729640 0.335880 0.747370 1.004485
Cr4   Cr    Cr6+3 0.270360 0.335880 0.252630 1.019385
Cr5   Cr    Cr6+3 0.387390 0.989720 0.750850 1.015037
Cr6   Cr    Cr6+3 0.612610 0.989720 0.249150 1.028520
Cr7   Cr    Cr6+3 0.887390 0.489720 0.750850 1.015023
Cr8   Cr    Cr6+3 0.112610 0.489720 0.249150 1.028505
Cr9   Cr    Cr6+3 0.385770 0.677220 0.749340 1.043453
Cr10  Cr    Cr6+3 0.614230 0.677220 0.250660 1.029053
Cr11  Cr    Cr6+3 0.885770 0.177220 0.749340 1.043448
Cr12  Cr    Cr6+3 0.114230 0.177220 0.250660 1.029052
H1    H     H_    0.372980 0.827798 0.972200 0.121160
H2    H     H_    0.627236 0.830811 0.027774 0.121682
H3    H     H_    0.872980 0.327801 0.972199 0.121160
H4    H     H_    0.127237 0.330809 0.027775 0.121682
H5    H     H_    0.492492 0.026428 0.563363 0.119181
H6    H     H_    0.495798 0.026765 0.431829 0.128587
H7    H     H_    0.992469 0.526430 0.563358 0.119183
H8    H     H_    0.995776 0.526762 0.431824 0.128574
H9    H     H_    0.078528 0.112616 0.439684 0.184248
H10   H     H_    0.991740 0.034075 0.564034 0.162459
H11   H     H_    0.578520 0.612611 0.439684 0.184242
H12   H     H_    0.491726 0.534071 0.564028 0.162460
H13   H     H_    0.492210 0.529825 0.436911 0.159642
H14   H     H_    0.576103 0.622507 0.567107 0.147854
H15   H     H_    0.992218 0.029825 0.436917 0.159665
H16   H     H_    0.076115 0.122519 0.567108 0.147858
H17   H     H_    0.373352 0.588381 0.551695 0.165991
H18   H     H_    0.670475 0.467158 0.430529 0.150431
H19   H     H_    0.873367 0.088460 0.551690 0.165996
H20   H     H_    0.170478 0.967151 0.430525 0.150444
H21   H     H_    0.357756 0.536078 0.424986 0.124519
H22   H     H_    0.669352 0.451727 0.560206 0.142742
H23   H     H_    0.857760 0.036097 0.424991 0.124515
H24   H     H_    0.169356 0.951704 0.560199 0.142752
H25   H     H_    0.111699 0.567484 0.451332 0.138063
H26   H     H_    0.896060 0.634590 0.564647 0.139520
H27   H     H_    0.611716 0.067509 0.451369 0.138025
H28   H     H_    0.396060 0.134538 0.564635 0.139523
H29   H     H_    0.107431 0.780305 0.554273 0.131232
H30   H     H_    0.864331 0.832497 0.455782 0.146718
H31   H     H_    0.607444 0.280416 0.554245 0.131198
H32   H     H_    0.364344 0.332475 0.455783 0.146715
H33   H     H_    0.126618 0.617237 0.573008 0.151810
H34   H     H_    0.891354 0.671325 0.440437 0.138537
H35   H     H_    0.626633 0.117372 0.573028 0.151854
H36   H     H_    0.391356 0.171299 0.440428 0.138542
H37   H     H_    0.447006 0.009360 0.054279 0.108497
H38   H     H_    0.551174 0.011614 0.947400 0.108353
H39   H     H_    0.947007 0.509360 0.054279 0.108497
H40   H     H_    0.051176 0.511612 0.947399 0.108353
H41   H     H_    0.554400 0.649217 0.946460 0.122758
H42   H     H_    0.447943 0.646986 0.051828 0.122260
H43   H     H_    0.054399 0.149217 0.946459 0.122757
H44   H     H_    0.947942 0.146989 0.051829 0.122260
H45   H     H_    0.141956 0.648715 0.925805 0.130683
H46   H     H_    0.857909 0.649006 0.074249 0.130717
H47   H     H_    0.641956 0.148710 0.925804 0.130684
H48   H     H_    0.357909 0.149009 0.074249 0.130719
H49   H     H_    0.132469 0.636381 0.052169 0.146264
H50   H     H_    0.867172 0.637588 0.947872 0.146208
H51   H     H_    0.632467 0.136374 0.052168 0.146264
H52   H     H_    0.367171 0.137589 0.947872 0.146208
H53   H     H_    0.817990 0.858877 0.058305 0.174067
H54   H     H_    0.182822 0.858834 0.940589 0.174723
H55   H     H_    0.317987 0.358877 0.058304 0.174067
H56   H     H_    0.682824 0.358831 0.940590 0.174723
H57   H     H_    0.399902 0.451666 0.072671 0.128040
H58   H     H_    0.600509 0.451314 0.926801 0.127841
H59   H     H_    0.899903 0.951671 0.072671 0.128040
H60   H     H_    0.100508 0.951319 0.926801 0.127839
H61   H     H_    0.410854 0.471851 0.946235 0.142106
H62   H     H_    0.589648 0.471202 0.053330 0.142306
H63   H     H_    0.910855 0.971855 0.946235 0.142106
H64   H     H_    0.089647 0.971206 0.053329 0.142306
H65   H     H_    0.330130 0.375527 0.931758 0.145764
H66   H     H_    0.670749 0.375098 0.067178 0.144065
H67   H     H_    0.830132 0.875527 0.931758 0.145764
H68   H     H_    0.170747 0.875101 0.067177 0.144063
O1    O     O_R   0.214300 0.709080 0.827500 -0.531802
O2    O     O_R   0.785700 0.709080 0.172500 -0.533656
O3    O     O_R   0.714300 0.209080 0.827500 -0.531801
O4    O     O_R   0.285700 0.209080 0.172500 -0.533655
O5    O     O_R   0.445900 0.919370 0.676500 -0.511172
O6    O     O_R   0.554100 0.919370 0.323500 -0.506575
O7    O     O_R   0.945900 0.419370 0.676500 -0.511173
O8    O     O_R   0.054100 0.419370 0.323500 -0.506584
O9    O     O_R   0.456660 0.717710 0.669820 -0.517941
O10   O     O_R   0.543340 0.717710 0.330180 -0.519426
O11   O     O_R   0.956660 0.217710 0.669820 -0.517947
O12   O     O_R   0.043340 0.217710 0.330180 -0.519424
O13   O     O_R   0.320590 0.625770 0.672930 -0.475109
O14   O     O_R   0.679410 0.625770 0.327070 -0.506937
O15   O     O_R   0.820590 0.125770 0.672930 -0.475085
O16   O     O_R   0.179410 0.125770 0.327070 -0.506938
O17   O     O_3   0.334270 0.834280 0.749190 -0.280192
O18   O     O_3   0.665730 0.834280 0.250810 -0.256034
O19   O     O_3   0.834270 0.334280 0.749190 -0.280207
O20   O     O_3   0.165730 0.334280 0.250810 -0.256032
O21   O     O_R   0.236190 0.958390 0.823150 -0.503663
O22   O     O_R   0.763810 0.958390 0.176850 -0.504357
O23   O     O_R   0.736190 0.458390 0.823150 -0.503662
O24   O     O_R   0.263810 0.458390 0.176850 -0.504358
O25   O     O_R   0.332090 0.075280 0.831290 -0.523138
O26   O     O_R   0.667910 0.075280 0.168710 -0.526664
O27   O     O_R   0.832090 0.575280 0.831290 -0.523139
O28   O     O_R   0.167910 0.575280 0.168710 -0.526666
O29   O     O_R   0.446280 0.918040 0.826620 -0.503832
O30   O     O_R   0.553720 0.918040 0.173380 -0.505743
O31   O     O_R   0.946280 0.418040 0.826620 -0.503831
O32   O     O_R   0.053720 0.418040 0.173380 -0.505742
O33   O     O_R   0.457080 0.716270 0.831760 -0.519931
O34   O     O_R   0.542920 0.716270 0.168240 -0.520067
O35   O     O_R   0.957080 0.216270 0.831760 -0.519932
O36   O     O_R   0.042920 0.216270 0.168240 -0.520067
O37   O     O_R   0.320980 0.624440 0.823040 -0.488243
O38   O     O_R   0.679020 0.624440 0.176960 -0.495232
O39   O     O_R   0.820980 0.124440 0.823040 -0.488243
O40   O     O_R   0.179020 0.124440 0.176960 -0.495233
O41   O     O_R   0.213880 0.710510 0.665560 -0.522953
O42   O     O_R   0.786120 0.710510 0.334440 -0.515940
O43   O     O_R   0.713880 0.210510 0.665560 -0.522967
O44   O     O_R   0.286120 0.210510 0.334440 -0.515937
O45   O     O_R   0.235800 0.959720 0.673040 -0.526818
O46   O     O_R   0.764200 0.959720 0.326960 -0.503300
O47   O     O_R   0.735800 0.459720 0.673040 -0.526825
O48   O     O_R   0.264200 0.459720 0.326960 -0.503303
O49   O     O_R   0.331670 0.076720 0.669350 -0.517016
O50   O     O_R   0.668330 0.076720 0.330650 -0.513756
O51   O     O_R   0.831670 0.576720 0.669350 -0.517025
O52   O     O_R   0.168330 0.576720 0.330650 -0.513778
C121  C     C_1   0.081099 0.750397 0.419522 0.196711
N1    N     N_1   0.045906 0.817591 0.387233 -0.342373
C122  C     C_1   0.878771 0.820414 0.595374 0.194103
N2    N     N_1   0.891948 0.902298 0.632088 -0.300822
C123  C     C_1   0.581102 0.250390 0.419508 0.196729
N3    N     N_1   0.545902 0.317551 0.387202 -0.342348
C124  C     C_1   0.378795 0.320364 0.595375 0.194118
N4    N     N_1   0.391983 0.402237 0.632094 -0.300866

loop_
_geom_bond_atom_site_label_1
_geom_bond_atom_site_label_2
_ccdc_geom_bond_type
Cr12  O40   S    
C87   H31   S    
C55   C56   A    
Cr4   O20   S    
C67   C83   S    
C57   H13   S    
C5    C114  S    
Cr1   O21   S    
C85   H29   S    
C14   C18   A    
C84   C124  S    
C89   O1    A    
C111  C112  S    
Cr12  O12   S    
C73   C93   A    
C39   C91   S    
C22   H46   S    
C29   H57   S    
C60   H16   S    
C115  H3    S    
Cr3   O43   S    
C28   H52   S    
C84   H28   S    
C75   C95   A    
C7    C8    S    
C48   C120  S    
C63   C79   A    
C53   C54   A    
C15   C19   A    
C32   H60   S    
C33   H65   S    
C35   H67   S    
C55   H7    S    
C17   C33   S    
C12   C28   A    
C53   H5    S    
C32   C36   S    
C13   C29   S    
C16   C20   A    
Cr6   O30   S    
C45   O33   A    
C98   O46   A    
C63   C98   S    
C69   C93   A    
C42   C53   A    
C97   O45   A    
C5    C6    S    
C56   H8    S    
C72   C96   A    
C23   C39   A    
C59   H15   S    
C71   C95   A    
C76   H20   S    
C45   C117  S    
C22   C38   A    
C31   H59   S    
Cr12  O16   S    
C2    O22   A    
C91   O3    A    
C49   C57   S    
C41   C102  S    
C46   C118  S    
Cr11  O19   S    
C123  N3    T    
C41   C49   A    
Cr10  O18   S    
C9    C13   A    
C43   C104  S    
C1    O21   A    
Cr9   O17   S    
C83   H27   S    
C52   C60   S    
C8    C115  S    
C93   C105  S    
C64   C80   A    
Cr5   O5    S    
C11   C15   A    
Cr10  O38   S    
C12   C16   A    
C29   C33   S    
C75   H19   S    
C88   H36   S    
C7    H43   S    
C24   H48   S    
Cr6   O18   S    
C16   C32   S    
C86   H30   S    
C104  O8    A    
C23   C27   A    
Cr4   O44   S    
C24   C28   A    
Cr8   O20   S    
C23   H47   S    
C92   O4    A    
C109  C113  S    
Cr2   O46   S    
C60   H10   S    
C34   H62   S    
Cr1   O45   S    
C96   C108  S    
Cr2   O22   S    
C33   H61   S    
C59   C60   S    
Cr8   O32   S    
C113  H1    S    
Cr7   O27   S    
C4    O24   A    
C46   O30   A    
C107  O43   A    
Cr6   O26   S    
C1    C12   S    
C45   O29   A    
C106  O42   A    
Cr5   O25   S    
C2    C11   S    
C101  O5    A    
C110  C117  S    
C105  O41   A    
C72   C88   S    
C44   C103  S    
C25   H49   S    
C109  C118  S    
C80   H24   S    
C47   O35   A    
C106  O14   A    
C63   C67   A    
C81   H25   S    
C90   O38   A    
Cr7   O19   S    
C51   C52   A    
C68   C84   S    
C7    C119  S    
C62   C66   A    
Cr7   O7    S    
C99   O51   A    
C21   C25   A    
C10   C14   A    
C3    O27   A    
C103  O11   A    
C37   C89   S    
C98   O50   A    
C30   C34   S    
C102  O10   A    
C97   O49   A    
C6    H42   S    
C101  O9    A    
C14   C30   S    
Cr11  O15   S    
Cr10  O34   S    
C116  C120  S    
C115  C119  S    
C5    C117  S    
C68   C72   A    
Cr12  O20   S    
C50   C58   S    
C7    C116  S    
Cr4   O48   S    
Cr1   O41   S    
C36   H64   S    
C6    C113  S    
C100  O48   A    
C69   C85   S    
C89   O37   A    
C66   C82   S    
C102  O6    A    
C34   H66   S    
C44   C52   A    
C65   C81   S    
C114  C118  S    
C20   C40   A    
C11   C27   A    
C88   H32   S    
Cr8   O28   S    
C31   H53   S    
Cr7   O31   S    
C10   C26   A    
C114  H2    S    
C107  O15   A    
C82   H26   S    
Cr8   O52   S    
C30   H56   S    
C40   C92   S    
C92   O40   A    
C112  H40   S    
C18   C34   S    
C59   H9    S    
C108  O16   A    
C87   H35   S    
C95   C107  S    
C42   C50   A    
C71   C87   S    
C110  H38   S    
C47   O31   A    
C64   C97   S    
C83   C123  S    
Cr4   O4    S    
C54   H6    S    
C61   C77   A    
C46   O34   A    
Cr11  O11   S    
C31   C35   S    
C82   C122  S    
Cr10  O10   S    
C61   C100  S    
C51   C59   S    
C109  H37   S    
C17   C37   A    
C99   O47   A    
C122  N2    T    
C70   C86   S    
C42   C101  S    
C64   C68   A    
C110  C114  S    
C112  C116  S    
C77   H21   S    
C47   C119  S    
C2    O26   A    
Cr7   O51   S    
C113  C117  S    
C1    O25   A    
C8    C120  S    
Cr3   O19   S    
C94   C106  S    
C3    O23   A    
Cr2   O18   S    
C108  O44   A    
C73   H17   S    
C48   O36   A    
C5    H41   S    
C62   C78   A    
C78   H22   S    
C76   C80   A    
C103  O7    A    
C100  O52   A    
C105  O13   A    
C83   C87   S    
C9    C25   A    
C112  C119  S    
C111  C115  S    
C8    H44   S    
C15   C31   S    
C36   H68   S    
C116  H4    S    
C32   H54   S    
Cr2   O42   S    
Cr1   O17   S    
C29   H55   S    
C38   C90   S    
Cr11  O35   S    
Cr5   O29   S    
C13   C17   A    
C58   H14   S    
Cr6   O50   S    
C85   H33   S    
Cr2   O2    S    
Cr5   O49   S    
C18   C38   A    
C74   H18   S    
Cr1   O1    S    
C48   O32   A    
C3    C10   S    
C82   C86   S    
C109  C110  S    
C76   C96   A    
C35   H63   S    
C44   C55   A    
C43   C51   A    
C57   C58   S    
C121  N1    T    
C84   C88   S    
Cr3   O23   S    
Cr6   O6    S    
C65   C69   A    
Cr9   O33   S    
C30   H58   S    
C21   H45   S    
C26   H50   S    
Cr12  O36   S    
Cr10  O14   S    
C67   C71   A    
Cr9   O9    S    
C4    O28   A    
C61   C65   A    
Cr9   O13   S    
C27   H51   S    
C41   C54   A    
Cr3   O47   S    
Cr9   O37   S    
Cr11  O39   S    
C79   H23   S    
C62   C99   S    
C20   C36   S    
C58   H12   S    
C43   C56   A    
C21   C37   A    
C66   C70   A    
C24   C40   A    
C73   C77   A    
C19   C39   A    
C49   C50   A    
C22   C26   A    
C91   O39   A    
C74   C94   A    
C70   C94   A    
Cr4   O24   S    
C104  O12   A    
C111  C120  S    
C19   C35   S    
Cr8   O8    S    
Cr3   O3    S    
C81   C121  S    
C4    C9    S    
C75   C79   A    
C6    C118  S    
C81   C85   S    
C124  N4    T    
C57   H11   S    
C86   H34   S    
C74   C78   A    
C90   O2    A    
C111  H39   S    
Cr5   O17   S    
