data_mof_unit_18892.cif
_audit_creation_date              2012-12-10T16:49:23-0500
_audit_creation_method            fapswitch 2.2
_symmetry_space_group_name_H-M    P1
_symmetry_Int_Tables_number       1
_space_group_crystal_system       triclinic
_cell_length_a                    19.304941
_cell_length_b                    8.766418
_cell_length_c                    7.417377
_cell_angle_alpha                 102.84071
_cell_angle_beta                  94.497474
_cell_angle_gamma                 92.346402
_cell_volume                      1217.9182107

loop_
_atom_site_label
_atom_site_type_symbol
_atom_type_description
_atom_site_fract_x
_atom_site_fract_y
_atom_site_fract_z
_atom_type_partial_charge
C1    C     C_R   0.496198 0.200215 0.453686 0.834537
C2    C     C_R   0.498029 0.799064 0.545702 0.837697
C3    C     C_2   0.494412 0.032973 0.425128 -0.006270
C4    C     C_2   0.486817 0.962703 0.568243 0.033822
C5    C     C_R   0.367272 0.500519 0.502043 0.829355
C6    C     C_R   0.632942 0.504138 0.498467 0.870056
C7    C     C_R   0.261107 0.587604 0.663507 0.339842
C8    C     C_R   0.741270 0.440613 0.334715 0.323142
C9    C     C_R   0.189485 0.573409 0.677515 0.371277
C10   C     C_R   0.812622 0.420680 0.341991 0.348144
C11   C     C_R   0.146123 0.475258 0.531174 -0.225360
C12   C     C_R   0.854536 0.476898 0.510714 -0.192784
C13   C     C_R   0.174888 0.389380 0.373685 0.176011
C14   C     C_R   0.824715 0.551151 0.672249 0.183152
C15   C     C_R   0.246973 0.402633 0.360219 0.179827
C16   C     C_R   0.752501 0.573053 0.664577 0.178257
C17   C     C_R   0.290807 0.499397 0.506969 -0.316091
C18   C     C_R   0.709880 0.509420 0.497312 -0.297148
C19   C     C_R   0.930369 0.472572 0.515484 0.455241
C20   C     C_R   0.070412 0.475498 0.529285 0.425039
Cu1   Cu    Cu3+1 0.507710 0.517380 0.684380 0.954201
Cu2   Cu    Cu3+1 0.492290 0.482620 0.315620 0.958240
H1    H     H_    0.446500 0.377792 0.947322 0.223529
H2    H     H_    0.554125 0.621709 0.052071 0.235812
N1    N     N_R   0.034277 0.547071 0.411040 -0.215916
N2    N     N_R   0.966528 0.401894 0.635218 -0.193530
N3    N     N_R   0.965325 0.545697 0.404199 -0.243776
N4    N     N_R   0.035638 0.402716 0.641467 -0.262489
N5    N     N_2   0.480680 0.456420 0.038530 -0.216484
N6    N     N_2   0.519320 0.543580 0.961470 -0.209851
O1    O     O_R   0.505010 0.286130 0.619770 -0.594583
O2    O     O_R   0.494990 0.713870 0.380230 -0.571792
O3    O     O_R   0.491990 0.256780 0.308370 -0.580735
O4    O     O_R   0.508010 0.743220 0.691630 -0.591432
O5    O     O_R   0.406650 0.514660 0.655750 -0.594757
O6    O     O_R   0.593350 0.485340 0.344250 -0.585449
O7    O     O_R   0.393640 0.485310 0.344340 -0.549622
O8    O     O_R   0.606360 0.514690 0.655660 -0.537206
O9    O     O_3   0.300107 0.692797 0.804979 -0.691440
H3    H     H_    0.339795 0.737329 0.752887 0.320176
O10   O     O_3   0.702972 0.385126 0.166703 -0.664857
H4    H     H_    0.680343 0.476399 0.134977 0.328888
O11   O     O_3   0.164295 0.664121 0.833470 -0.692174
H5    H     H_    0.113405 0.645163 0.830697 0.328858
O12   O     O_3   0.839008 0.344637 0.179994 -0.688751
H6    H     H_    0.885476 0.307879 0.208703 0.325107
N7    N     N_2   0.131732 0.284022 0.230398 -0.426825
H7    H     H_    0.094763 0.216536 0.275766 0.260082
C21   C     C_3   0.106176 0.345740 0.073534 -0.566814
H8    H     H_    0.116339 0.263102 0.942998 0.229882
H9    H     H_    0.131653 0.462442 0.076466 0.247320
H10   H     H_    0.049083 0.357326 0.073128 0.239712
N8    N     N_2   0.868317 0.602425 0.841378 -0.399194
H11   H     H_    0.849819 0.573948 0.956978 0.285538
C22   C     C_3   0.899836 0.759795 0.874462 -0.630355
H12   H     H_    0.941061 0.777370 0.991465 0.239481
H13   H     H_    0.860385 0.846990 0.912020 0.222674
H14   H     H_    0.924134 0.779132 0.749846 0.239842
N9    N     N_2   0.275613 0.313514 0.201337 -0.413648
H15   H     H_    0.257863 0.197279 0.162570 0.270809
C23   C     C_3   0.278523 0.388641 0.046179 -0.532219
H16   H     H_    0.239149 0.331599 0.931357 0.198594
H17   H     H_    0.330340 0.375851 0.993009 0.215108
H18   H     H_    0.269822 0.515944 0.086846 0.260482
N10   N     N_2   0.722792 0.663513 0.821679 -0.400288
H19   H     H_    0.746962 0.663840 0.950398 0.252204
C24   C     C_3   0.703293 0.817743 0.803855 -0.615360
H20   H     H_    0.677865 0.875220 0.928458 0.225555
H21   H     H_    0.665903 0.809860 0.680142 0.211390
H22   H     H_    0.749918 0.891652 0.791280 0.223215
N11   N     N_2   0.500775 0.945510 0.240356 -0.439188
H23   H     H_    0.536581 0.994564 0.170214 0.260525
C25   C     C_3   0.434475 0.902086 0.131252 -0.530041
H24   H     H_    0.442892 0.829897 0.992817 0.255855
H25   H     H_    0.407995 0.008411 0.113714 0.215141
H26   H     H_    0.400018 0.832304 0.199910 0.237735
N12   N     N_2   0.460963 0.038928 0.738396 -0.443149
H27   H     H_    0.494737 0.119154 0.829875 0.284269
C26   C     C_3   0.388680 0.077200 0.724397 -0.696672
H28   H     H_    0.370808 0.113343 0.865048 0.225575
H29   H     H_    0.355466 0.973574 0.646132 0.229474
H30   H     H_    0.381869 0.174910 0.653107 0.225578

loop_
_geom_bond_atom_site_label_1
_geom_bond_atom_site_label_2
_ccdc_geom_bond_type
C22   H12   S    
Cu2   N5    S    
C5    O7    A    
O10   H4    S    
C2    C4    S    
C1    O3    A    
N7    C21   S    
N8    H11   S    
Cu1   O1    S    
Cu2   O2    S    
H1    N5    S    
C5    C17   S    
C20   N1    A    
C1    O1    A    
C2    O2    A    
C25   H24   S    
C23   H17   S    
C19   N2    A    
Cu1   O8    S    
N10   C24   S    
C6    O8    A    
C19   N3    A    
C2    O4    A    
N8    C22   S    
N9    H15   S    
Cu1   Cu2   S    
C25   H25   S    
N12   C26   S    
C6    C18   S    
C11   C20   S    
C9    O11   S    
N9    C23   S    
C24   H20   S    
C8    O10   S    
O9    H3    S    
C26   H29   S    
Cu1   O4    S    
C20   N4    A    
C21   H9    S    
N12   H27   S    
Cu2   O7    S    
C8    C18   A    
C1    C3    S    
C23   H18   S    
C3    N11   S    
O11   H5    S    
N5    N6    D    
N7    H7    S    
C21   H10   S    
C10   O12   S    
C9    C11   A    
C10   C12   A    
C8    C10   A    
C12   C14   A    
C21   H8    S    
C22   H13   S    
C25   H26   S    
C14   C16   A    
O12   H6    S    
C3    C4    D    
C13   N7    S    
C15   C17   A    
Cu2   O3    S    
C15   N9    S    
C7    C17   A    
C26   H30   S    
Cu1   O5    S    
N1    N3    A    
Cu2   O6    S    
Cu1   N6    S    
N2    N4    A    
C24   H22   S    
C13   C15   A    
N11   H23   S    
C11   C13   A    
C5    O5    A    
C12   C19   S    
C6    O6    A    
C23   H16   S    
H2    N6    S    
C26   H28   S    
C7    C9    A    
C4    N12   S    
C14   N8    S    
C16   C18   A    
N10   H19   S    
C22   H14   S    
N11   C25   S    
C7    O9    S    
C16   N10   S    
C24   H21   S    
