data_mof_unit_49212.cif
_audit_creation_date              2013-03-05T15:40:33-0500
_audit_creation_method            fapswitch 2.2
_symmetry_space_group_name_H-M    P1
_symmetry_Int_Tables_number       1
_space_group_crystal_system       triclinic
_cell_length_a                    15.010322
_cell_length_b                    8.677016
_cell_length_c                    7.515029
_cell_angle_alpha                 103.450896
_cell_angle_beta                  94.199358
_cell_angle_gamma                 92.878406
_cell_volume                      947.104498866

loop_
_atom_site_label
_atom_site_type_symbol
_atom_site_description
_atom_site_fract_x
_atom_site_fract_y
_atom_site_fract_z
_atom_type_partial_charge
O1    O     O_R   0.506510 0.286130 0.619770 -0.585908
O2    O     O_R   0.493490 0.713870 0.380230 -0.585839
O3    O     O_R   0.489600 0.256770 0.308360 -0.561653
O4    O     O_R   0.510400 0.743230 0.691640 -0.561617
C1    C     C_R   0.497101 0.199770 0.452965 0.874492
C2    C     C_R   0.502902 0.800230 0.547035 0.874543
O5    O     O_R   0.378710 0.514640 0.655720 -0.533021
O6    O     O_R   0.621290 0.485360 0.344280 -0.533062
O7    O     O_R   0.361800 0.485290 0.344300 -0.547172
O8    O     O_R   0.638200 0.514710 0.655700 -0.547179
C3    C     C_R   0.329329 0.497227 0.501776 0.890697
C4    C     C_R   0.670671 0.502778 0.498225 0.890684
Cu1   Cu    Cu3+1 0.510010 0.517380 0.684380 1.149090
Cu2   Cu    Cu3+1 0.489990 0.482620 0.315620 1.149079
C5    C     C_R   0.821087 0.630331 0.613084 0.238050
C6    C     C_R   0.178913 0.369664 0.386933 0.238044
C7    C     C_R   0.767085 0.505372 0.494856 -0.229321
C8    C     C_R   0.232915 0.494632 0.505147 -0.229317
C9    C     C_R   0.804711 0.377049 0.382258 0.396915
C10   C     C_R   0.195288 0.622959 0.617738 0.396951
C11   C     C_R   0.897938 0.376363 0.381262 0.015449
C12   C     C_R   0.102061 0.623635 0.618747 0.015415
C13   C     C_R   0.953070 0.501043 0.499568 0.006760
C14   C     C_R   0.046929 0.498949 0.500449 0.006756
C15   C     C_R   0.914649 0.628041 0.616445 -0.002482
C16   C     C_R   0.085351 0.371951 0.383574 -0.002478
C17   C     C_R   0.936917 0.251844 0.265825 -0.157847
C18   C     C_R   0.063082 0.748155 0.734183 -0.157826
C19   C     C_R   0.029290 0.248654 0.268420 -0.142461
C20   C     C_R   0.970709 0.751339 0.731598 -0.142470
H1    H     H_    0.896183 0.155259 0.173513 0.203956
H2    H     H_    0.103816 0.844748 0.826485 0.203982
H3    H     H_    0.055999 0.148079 0.179807 0.188499
H4    H     H_    0.944000 0.851913 0.820212 0.188494
C21   C     C_2   0.495624 0.031277 0.427166 -0.309780
C22   C     C_2   0.504380 0.968723 0.572833 -0.309761
H5    H     H_    0.487492 0.958502 0.287347 0.208089
H6    H     H_    0.512513 0.041498 0.712652 0.208030
N1    N     N_2   0.474890 0.456420 0.038520 0.007777
N2    N     N_2   0.525110 0.543580 0.961480 0.007843
N3    N     N_R   0.780434 0.760088 0.726679 0.129356
O9    O     O_R   0.727311 0.845998 0.652245 -0.382668
O10   O     O_R   0.791043 0.784731 0.904678 -0.309467
N4    N     N_R   0.219567 0.239904 0.273344 0.129351
O11   O     O_R   0.272696 0.154007 0.347781 -0.382686
O12   O     O_R   0.208949 0.215244 0.095344 -0.309502
O13   O     O_3   0.749748 0.254011 0.270202 -0.555036
C23   C     C_3   0.733436 0.136818 0.368640 -0.188039
H7    H     H_    0.796169 0.082698 0.402664 0.176045
H8    H     H_    0.687120 0.041040 0.280986 0.236849
H9    H     H_    0.700711 0.184967 0.496219 0.137862
O14   O     O_3   0.250247 0.746023 0.729763 -0.554995
C24   C     C_3   0.266540 0.863197 0.631286 -0.188108
H10   H     H_    0.312723 0.959134 0.719022 0.236906
H11   H     H_    0.203783 0.917106 0.596966 0.175934
H12   H     H_    0.299394 0.815089 0.503881 0.137918
N5    N     N_R   0.388972 0.416984 0.954433 0.277035
O15   O     O_R   0.365799 0.270100 0.871061 -0.340597
O16   O     O_R   0.327023 0.515952 0.994704 -0.291461
N6    N     N_R   0.611000 0.583220 0.045693 0.277028
O17   O     O_R   0.634050 0.730172 0.129037 -0.340719
O18   O     O_R   0.673054 0.484449 0.005432 -0.291410

loop_
_geom_bond_atom_site_label_1
_geom_bond_atom_site_label_2
_geom_bond_distance
_ccdc_geom_bond_type
C4    C7    1.448419 S    
O5    Cu1   1.965189 S    
O7    Cu2   1.952516 S    
C3    C8    1.448418 S    
N2    N6    1.384072 S    
C17   C19   1.387019 A    
C10   C12   1.400232 A    
N3    O10   1.301061 A    
N3    O9    1.301061 A    
C6    N4    1.437674 S    
C21   C22   1.331448 D    
O6    C4    1.300953 A    
C13   C14   1.409434 A    
C24   H12   1.112680 S    
C23   H8    1.108209 S    
C11   C17   1.401444 A    
O3    C1    1.294587 A    
C10   O14   1.386049 S    
C12   C18   1.401450 A    
Cu1   Cu2   2.709454 S    
O14   C24   1.411670 S    
N6    O18   1.301716 A    
O5    C3    1.300952 A    
O7    C3    1.296662 A    
N5    O15   1.299999 A    
O2    C2    1.295870 A    
O3    Cu2   1.947437 S    
O8    C4    1.296660 A    
O1    C1    1.295869 A    
C1    C21   1.428223 S    
C18   C20   1.387016 A    
C23   H7    1.112483 S    
C7    C9    1.403433 A    
C2    C22   1.428223 S    
C8    C10   1.403438 A    
C24   H11   1.112422 S    
C11   C13   1.414414 A    
C6    C16   1.403997 A    
O2    Cu2   1.948645 S    
C12   C14   1.414414 A    
C5    C15   1.403990 A    
O4    C2    1.294587 A    
N5    O16   1.301620 A    
C20   H4    1.081504 S    
N1    N2    1.298371 D    
C17   H1    1.083238 S    
C22   H6    1.087432 S    
N1    N5    1.383957 S    
C19   H3    1.081501 S    
C18   H2    1.083242 S    
C13   C15   1.416376 A    
O1    Cu1   1.948645 S    
N4    O11   1.301060 A    
C5    N3    1.437676 S    
C16   C19   1.404917 A    
C6    C8    1.407197 A    
C9    O13   1.386036 S    
O4    Cu1   1.947437 S    
C5    C7    1.407190 A    
C15   C20   1.404917 A    
Cu1   N2    2.035917 S    
O6    Cu2   1.965189 S    
N4    O12   1.301055 A    
C21   H5    1.087437 S    
Cu2   N1    2.035918 S    
C24   H10   1.108160 S    
C23   H9    1.112779 S    
O13   C23   1.411648 S    
C14   C16   1.416372 A    
N6    O17   1.300122 A    
C9    C11   1.400230 A    
O8    Cu1   1.952516 S    
