data_mof_unit_37532.cif
_audit_creation_date              2012-12-10T17:13:10-0500
_audit_creation_method            fapswitch 2.2
_symmetry_space_group_name_H-M    P1
_symmetry_Int_Tables_number       1
_space_group_crystal_system       triclinic
_cell_length_a                    18.159208
_cell_length_b                    18.187194
_cell_length_c                    18.319544
_cell_angle_alpha                 119.892768
_cell_angle_beta                  90.252189
_cell_angle_gamma                 119.611282
_cell_volume                      4300.7590003

loop_
_atom_site_label
_atom_site_type_symbol
_atom_type_description
_atom_site_fract_x
_atom_site_fract_y
_atom_site_fract_z
_atom_type_partial_charge
C1    C     C_R   0.640006 0.780039 0.639928 0.801884
C2    C     C_R   0.312817 0.890893 0.275219 -0.175644
C3    C     C_R   0.283542 0.944516 0.263375 0.094801
C4    C     C_R   0.361569 0.220121 0.360230 0.775971
C5    C     C_R   0.338116 0.054167 0.318523 0.097646
C6    C     C_R   0.310456 0.107851 0.304354 -0.068838
C7    C     C_R   0.232853 0.053841 0.234531 -0.213201
C8    C     C_R   0.179620 0.946893 0.180778 -0.211448
C9    C     C_R   0.202948 0.891896 0.195814 -0.060238
C10   C     C_R   0.776022 0.697310 0.386216 -0.183174
C11   C     C_R   0.840316 0.789963 0.398575 -0.218227
C12   C     C_3   0.836378 0.570639 0.768471 -0.134821
C13   C     C_R   0.888889 0.790674 0.340493 -0.245230
C14   C     C_R   0.873395 0.697857 0.267943 0.490492
C15   C     C_R   0.815037 0.603886 0.260597 0.001498
C16   C     C_R   0.359800 0.499947 0.639634 0.830491
C17   C     C_R   0.763055 0.603419 0.318476 0.037260
C18   C     C_R   0.697004 0.508193 0.304845 -0.038261
C19   C     C_R   0.682415 0.415721 0.235354 -0.197705
C20   C     C_R   0.735470 0.416185 0.181685 -0.233933
C21   C     C_R   0.802852 0.508811 0.194834 -0.065382
C22   C     C_R   0.629824 0.892120 0.575119 -0.169776
C23   C     C_3   0.765259 0.593624 0.792795 -0.186337
C24   C     C_R   0.624084 0.945963 0.544208 -0.141104
C25   C     C_R   0.677263 0.053477 0.597488 -0.141484
C26   C     C_R   0.736656 0.107792 0.681919 -0.170336
C27   C     C_R   0.742960 0.054839 0.715100 0.095186
C28   C     C_R   0.640282 0.501929 0.360349 0.771651
C29   C     C_R   0.688597 0.945456 0.661293 0.048192
C30   C     C_R   0.696238 0.892449 0.694022 -0.098134
C31   C     C_R   0.759375 0.947650 0.778228 0.160130
C32   C     C_R   0.813360 0.055124 0.829119 -0.255935
C33   C     C_R   0.804360 0.108258 0.799389 -0.095968
C34   C     C_3   0.730699 0.522871 0.825812 -0.174247
C35   C     C_R   0.182609 0.479759 0.390316 0.456173
C36   C     C_R   0.091824 0.438964 0.382657 -0.248383
C37   C     C_R   0.033014 0.412693 0.311787 -0.215665
C38   C     C_R   0.064821 0.430640 0.249683 -0.162444
C39   C     C_R   0.154980 0.467672 0.253796 0.042101
C40   C     C_R   0.354320 0.496735 0.359940 0.841143
C41   C     C_R   0.212524 0.482142 0.318882 -0.032296
C42   C     C_R   0.295814 0.497464 0.307658 -0.064746
C43   C     C_R   0.323016 0.508214 0.240433 -0.217697
C44   C     C_R   0.271177 0.507946 0.185474 -0.220454
C45   C     C_3   0.663329 0.428621 0.731004 -0.132050
C46   C     C_R   0.188958 0.490151 0.193534 -0.022112
C47   C     C_R   0.432118 0.672238 0.823372 -0.143299
C48   C     C_R   0.467456 0.756563 0.912195 -0.140959
C49   C     C_R   0.413762 0.756865 0.966049 -0.139709
C50   C     C_R   0.324540 0.672717 0.931402 -0.132675
C51   C     C_R   0.287117 0.586482 0.841240 0.028993
C52   C     C_R   0.641705 0.499860 0.641647 0.774267
C53   C     C_R   0.341426 0.586283 0.786389 0.052914
C54   C     C_R   0.304009 0.500534 0.696106 -0.182527
C55   C     C_R   0.213256 0.415103 0.659858 0.043191
C56   C     C_3   0.698804 0.499458 0.698833 0.055759
C57   C     C_R   0.161869 0.412469 0.716745 0.417517
C58   C     C_R   0.197462 0.499718 0.805332 -0.217518
C59   C     C_R   0.859773 0.502177 0.139666 0.872558
C60   C     C_R   0.139335 0.498965 0.859430 0.870618
C61   C     C_R   0.141816 0.779762 0.139805 0.773551
C62   C     C_R   0.860124 0.220082 0.858753 0.792952
C63   C     C_R   0.140849 0.499046 0.140352 0.774039
C64   C     C_3   0.768992 0.476357 0.673656 -0.175209
C65   C     C_R   0.858227 0.499735 0.858001 0.770043
C66   C     C_3   0.734445 0.405622 0.706698 -0.182039
C67   C     C_R   0.420205 0.106703 0.383813 -0.176699
C68   C     C_3   0.800950 0.499852 0.800679 0.061428
C69   C     C_3   0.902257 0.748894 0.171951 0.024649
C70   C     C_3   0.900629 0.700356 0.075351 -0.293310
C71   C     C_3   0.897365 0.759364 0.040024 -0.999672
C72   C     C_3   0.769433 0.895073 0.817235 -0.390610
C73   C     C_3   0.690399 0.850938 0.847727 -0.892693
C74   C     C_3   0.261128 0.631879 0.526825 0.081624
C75   C     C_3   0.326951 0.692816 0.619362 -0.268284
C76   C     C_3   0.345699 0.799846 0.680423 -0.985753
C77   C     C_3   0.168040 0.331031 0.559710 -0.343999
C78   C     C_R   0.446642 0.052018 0.395278 -0.144836
C79   C     C_3   0.107567 0.345457 0.518268 -0.822012
C80   C     C_3   0.065812 0.253060 0.689126 0.076868
C81   C     C_3   0.966479 0.166834 0.657388 -0.305175
C82   C     C_3   0.953861 0.081651 0.664774 -0.951046
C83   C     C_R   0.393149 0.944494 0.341157 -0.140820
H1    H     H_    0.722653 0.328458 0.672296 0.126683
H2    H     H_    0.783820 0.457288 0.610339 0.132986
H3    H     H_    0.588652 0.808667 0.530119 0.134632
H4    H     H_    0.578723 0.904014 0.478246 0.127939
H5    H     H_    0.673204 0.095016 0.572929 0.125238
H6    H     H_    0.778366 0.191293 0.719947 0.132709
H7    H     H_    0.861311 0.098505 0.894225 0.148328
H8    H     H_    0.386349 0.520305 0.232398 0.154061
H9    H     H_    0.068269 0.434313 0.435337 0.153553
H10   H     H_    0.963647 0.383490 0.307587 0.157855
H11   H     H_    0.017760 0.413163 0.197322 0.134759
H12   H     H_    0.414617 0.902379 0.349444 0.131352
H13   H     H_    0.908237 0.629119 0.784687 0.149120
H14   H     H_    0.295421 0.522370 0.136918 0.148104
H15   H     H_    0.476589 0.675128 0.784308 0.122298
H16   H     H_    0.536866 0.821767 0.939414 0.135178
H17   H     H_    0.441482 0.822263 0.035127 0.131771
H18   H     H_    0.285740 0.675674 0.976173 0.118877
H19   H     H_    0.777040 0.670791 0.827298 0.137012
H20   H     H_    0.715717 0.541852 0.889046 0.141887
H21   H     H_    0.591472 0.370194 0.714859 0.148865
H22   H     H_    0.212323 0.094844 0.222799 0.156461
H23   H     H_    0.275381 0.807508 0.232839 0.139757
H24   H     H_    0.465765 0.190075 0.425394 0.143973
H25   H     H_    0.509602 0.093316 0.445561 0.129573
H26   H     H_    0.959483 0.831973 0.213185 0.156708
H27   H     H_    0.837844 0.742364 0.173174 0.132986
H28   H     H_    0.961434 0.700356 0.070931 0.230726
H29   H     H_    0.840839 0.618814 0.033101 0.206709
H30   H     H_    0.833333 0.753295 0.037157 0.262461
H31   H     H_    0.901962 0.726170 0.971861 0.273621
H32   H     H_    0.954622 0.842169 0.083487 0.260918
H33   H     H_    0.683634 0.913100 0.897390 0.260329
H34   H     H_    0.118680 0.906659 0.128270 0.159716
H35   H     H_    0.626912 0.789075 0.790408 0.249020
H36   H     H_    0.701959 0.817264 0.879312 0.242255
H37   H     H_    0.831693 0.951050 0.876182 0.197855
H38   H     H_    0.777065 0.833414 0.768621 0.228013
H39   H     H_    0.198823 0.627993 0.535397 0.133395
H40   H     H_    0.292041 0.674691 0.496126 0.142888
H41   H     H_    0.298525 0.649850 0.650068 0.234784
H42   H     H_    0.391380 0.702569 0.613019 0.274724
H43   H     H_    0.375251 0.844978 0.651761 0.270341
H44   H     H_    0.394089 0.842012 0.746774 0.277151
H45   H     H_    0.631249 0.342827 0.224301 0.152111
H46   H     H_    0.282706 0.793055 0.689494 0.269079
H47   H     H_    0.048984 0.330796 0.542026 0.279915
H48   H     H_    0.146018 0.425593 0.536482 0.277716
H49   H     H_    0.082438 0.290501 0.444430 0.234373
H50   H     H_    0.217026 0.330854 0.523913 0.195336
H51   H     H_    0.127789 0.253005 0.545738 0.201277
H52   H     H_    0.097570 0.284288 0.758896 0.173172
H53   H     H_    0.099185 0.219611 0.646936 0.120960
H54   H     H_    0.932300 0.199895 0.698442 0.224415
H55   H     H_    0.934655 0.132757 0.586665 0.217328
H56   H     H_    0.736613 0.700839 0.430244 0.160808
H57   H     H_    0.987624 0.047440 0.624287 0.258864
H58   H     H_    0.881117 0.019630 0.639494 0.266355
H59   H     H_    0.981979 0.113237 0.735567 0.279011
H60   H     H_    0.850758 0.861471 0.452142 0.165392
H61   H     H_    0.937043 0.863703 0.350461 0.140009
H62   H     H_    0.725127 0.343641 0.130499 0.152504
O1    O     O_3   0.500000 0.500000 0.500000 -0.480577
O2    O     O_R   0.945270 0.268330 0.884560 -0.643851
O3    O     O_R   0.117250 0.560610 0.177960 -0.647735
O4    O     O_R   0.676930 0.731590 0.616180 -0.649137
O5    O     O_R   0.821970 0.439270 0.882700 -0.646254
O6    O     O_R   0.117250 0.439170 0.056520 -0.646903
O7    O     O_R   0.943420 0.560710 0.882700 -0.643553
O8    O     O_R   0.115410 0.731560 0.054670 -0.649506
O9    O     O_R   0.823040 0.268350 0.883790 -0.640779
O10   O     O_R   0.945270 0.560650 0.176870 -0.599625
O11   O     O_R   0.116170 0.439210 0.884560 -0.659808
O12   O     O_R   0.384570 0.439270 0.616180 -0.644117
O13   O     O_R   0.384570 0.268390 0.445310 -0.647967
O14   O     O_R   0.383800 0.560730 0.615410 -0.647648
O15   O     O_R   0.554710 0.439290 0.323100 -0.635829
O16   O     O_R   0.382720 0.560770 0.443450 -0.612306
O17   O     O_R   0.678010 0.560670 0.617270 -0.639028
O18   O     O_R   0.382720 0.439330 0.322010 -0.647340
O19   O     O_R   0.556550 0.439230 0.617270 -0.649569
O20   O     O_3   0.914526 0.697912 0.204166 -0.644231
O21   O     O_3   0.241860 0.531126 0.472990 -0.630928
O22   O     O_3   0.072429 0.330387 0.682743 -0.652791
O23   O     O_R   0.676930 0.560710 0.445310 -0.646529
O24   O     O_R   0.554710 0.731610 0.615410 -0.669051
O25   O     O_R   0.383800 0.268410 0.323100 -0.633676
O26   O     O_3   0.999970 0.499940 0.999970 -0.488323
O27   O     O_R   0.823040 0.439240 0.054670 -0.651509
O28   O     O_R   0.115410 0.560680 0.883790 -0.636116
O29   O     O_R   0.116170 0.731530 0.176870 -0.618489
Zn1   Zn    Zn3+2 0.457160 0.413230 0.543930 0.956517
Zn2   Zn    Zn3+2 0.456070 0.586770 0.542830 0.951754
Zn3   Zn    Zn3+2 0.456070 0.413260 0.369320 0.967188
Zn4   Zn    Zn3+2 0.630700 0.586740 0.543930 0.950089
Zn5   Zn    Zn3+2 0.042810 0.586720 0.956040 0.962785
Zn6   Zn    Zn3+2 0.043900 0.586680 0.130650 0.987670
Zn7   Zn    Zn3+2 0.043900 0.413170 0.957150 0.946322
Zn8   Zn    Zn3+2 0.869280 0.413210 0.956040 0.963185

loop_
_geom_bond_atom_site_label_1
_geom_bond_atom_site_label_2
_ccdc_geom_bond_type
C66   C68   S    
O8    Zn5   S    
C73   H36   S    
C22   C29   A    
C72   H38   S    
C27   C29   A    
C76   H43   S    
C41   C42   A    
C64   H2    S    
O26   Zn8   S    
C35   C36   A    
C82   H59   S    
C81   C82   S    
C7    C8    A    
C39   C41   A    
C53   C54   A    
C27   C33   A    
C26   H6    S    
C81   H54   S    
C12   C68   S    
C12   C23   S    
O1    Zn4   S    
C26   C27   A    
C29   C30   A    
C47   H15   S    
C4    O25   A    
C9    C61   S    
C36   C37   A    
C21   C59   S    
C12   C64   S    
C30   C31   A    
C55   C77   S    
C23   H19   S    
O28   Zn5   S    
C10   C17   A    
C58   C60   S    
C19   H45   S    
C28   O15   A    
C35   O21   S    
C36   H9    S    
C71   H30   S    
O19   Zn1   S    
C78   H25   S    
C18   C19   A    
C76   H46   S    
C13   H61   S    
C65   O5    A    
C1    C30   S    
C82   H57   S    
C69   H26   S    
C78   C83   A    
C32   H7    S    
C47   C48   A    
C45   C56   S    
C8    C9    A    
O1    Zn2   S    
O18   Zn3   S    
C7    H22   S    
C1    O4    A    
C70   C71   S    
C80   O22   S    
C5    C67   A    
C47   C53   A    
O2    Zn7   S    
C40   C42   S    
C74   H40   S    
C83   H12   S    
O3    Zn6   S    
C80   H52   S    
C13   C14   A    
C16   O14   A    
C60   O28   A    
O26   Zn5   S    
C2    C83   A    
C67   C78   A    
C77   H50   S    
C82   H58   S    
C44   C46   A    
O7    Zn5   S    
O6    Zn7   S    
C16   C54   S    
C77   C79   S    
C81   H55   S    
C4    O13   A    
C74   C75   S    
O25   Zn3   S    
C71   H32   S    
C75   H41   S    
C23   C56   S    
C18   C28   S    
C24   C25   A    
C40   O18   A    
C4    C6    S    
C70   H28   S    
C34   C68   S    
C38   H11   S    
C51   C58   A    
O16   Zn2   S    
C59   O10   A    
C33   C62   S    
C50   C51   A    
C25   C26   A    
C79   H47   S    
C2    H23   S    
C25   H5    S    
C43   H8    S    
C62   O9    A    
C71   H31   S    
C75   H42   S    
C64   C66   S    
C75   C76   S    
C60   O11   A    
C37   C38   A    
C3    C9    A    
C45   H21   S    
C44   H14   S    
C31   C32   A    
C14   C15   A    
C65   C68   S    
C79   H48   S    
O1    Zn1   S    
C72   H37   S    
C56   C64   S    
C17   C18   A    
C3    C5    A    
C37   H10   S    
C34   C45   S    
C14   O20   S    
C73   H33   S    
C63   O6    A    
C70   H29   S    
O12   Zn1   S    
C39   C46   A    
C48   C49   A    
C74   H39   S    
C69   H27   S    
C52   O19   A    
O14   Zn2   S    
C55   C57   A    
C43   C44   A    
C22   C24   A    
O26   Zn6   S    
C77   H51   S    
C59   O27   A    
O29   Zn6   S    
C63   O3    A    
C74   O21   S    
O10   Zn6   S    
C15   C17   A    
C48   H16   S    
C54   C55   A    
C31   C72   S    
C23   C34   S    
C73   H35   S    
C16   O12   A    
C38   C39   A    
O26   Zn7   S    
C61   O29   A    
C80   C81   S    
O5    Zn8   S    
C61   O8    A    
O11   Zn7   S    
C6    C7    A    
C57   O22   S    
C34   H20   S    
C80   H53   S    
C46   C63   S    
C62   O2    A    
C32   C33   A    
C19   C20   A    
C2    C3    A    
C40   O16   A    
C49   H17   S    
C11   C13   A    
C67   H24   S    
C57   C58   A    
C5    C6    A    
C65   O7    A    
C72   C73   S    
O23   Zn4   S    
C79   H49   S    
O9    Zn8   S    
C1    O24   A    
O4    Zn4   S    
O24   Zn2   S    
C10   H56   S    
C22   H3    S    
C69   C70   S    
C35   C41   A    
C24   H4    S    
C69   O20   S    
O15   Zn3   S    
O17   Zn4   S    
C10   C11   A    
C28   O23   A    
C66   H1    S    
O27   Zn8   S    
O13   Zn1   S    
C15   C21   A    
C20   C21   A    
O1    Zn3   S    
C50   H18   S    
C49   C50   A    
C42   C43   A    
C45   C66   S    
C76   H44   S    
C20   H62   S    
C12   H13   S    
C51   C53   A    
C11   H60   S    
C52   C56   S    
C52   O17   A    
C8    H34   S    
