data_mof_unit_51304.cif
_audit_creation_date              2012-12-11T15:37:14-0500
_audit_creation_method            fapswitch 2.2
_symmetry_space_group_name_H-M    P1
_symmetry_Int_Tables_number       1
_space_group_crystal_system       triclinic
_cell_length_a                    16.603399
_cell_length_b                    7.089687
_cell_length_c                    15.192231
_cell_angle_alpha                 90.0
_cell_angle_beta                  94.954121
_cell_angle_gamma                 89.999971
_cell_volume                      1781.64073009

loop_
_atom_site_label
_atom_site_type_symbol
_atom_type_description
_atom_site_fract_x
_atom_site_fract_y
_atom_site_fract_z
_atom_type_partial_charge
O1    O     O_R   0.578230 0.505720 0.424270 -0.518866
O2    O     O_R   0.421770 0.005720 0.575730 -0.518865
O3    O     O_R   0.412470 0.173950 0.404530 -0.519956
O4    O     O_R   0.587530 0.673950 0.595470 -0.519956
C1    C     C_R   0.384829 0.345320 0.381798 0.766913
C2    C     C_R   0.615171 0.845320 0.618202 0.766914
O5    O     O_R   0.577030 0.175880 0.413670 -0.541375
O6    O     O_R   0.422970 0.675880 0.586330 -0.541375
O7    O     O_R   0.587510 0.007580 0.584940 -0.549551
O8    O     O_R   0.412490 0.507580 0.415060 -0.549551
C3    C     C_R   0.603492 0.344732 0.393324 0.718139
C4    C     C_R   0.396508 0.844732 0.606676 0.718139
O9    O     O_3   0.503240 0.339850 0.556180 -0.378921
O10   O     O_3   0.496760 0.839850 0.443820 -0.378921
V1    V     V_3+5 0.499400 0.064230 0.489580 1.453396
V2    V     V_3+5 0.500600 0.564230 0.510420 1.453395
C5    C     C_1   0.333703 0.854956 0.668518 -0.164164
C6    C     C_1   0.666296 0.354956 0.331481 -0.164164
C7    C     C_1   0.280865 0.865674 0.719633 0.016592
C8    C     C_1   0.719135 0.365674 0.280367 0.016592
C9    C     C_1   0.218558 0.879133 0.779678 0.016337
C10   C     C_1   0.781442 0.379133 0.220322 0.016337
C11   C     C_1   0.165839 0.889829 0.830927 -0.173168
C12   C     C_1   0.834161 0.389829 0.169073 -0.173170
C13   C     C_3   0.749784 0.732282 0.838265 0.144628
C14   C     C_3   0.250215 0.232280 0.161736 0.144627
H1    H     H_    0.783694 0.596381 0.842948 0.154714
H2    H     H_    0.216305 0.096380 0.157053 0.154713
C15   C     C_3   0.679991 0.708535 0.763341 -0.437932
C16   C     C_3   0.320009 0.208534 0.236659 -0.437933
H3    H     H_    0.620081 0.711247 0.790452 0.148128
H4    H     H_    0.379918 0.211245 0.209549 0.148129
H5    H     H_    0.682888 0.564445 0.735815 0.198435
H6    H     H_    0.317112 0.064445 0.264186 0.198434
H7    H     H_    0.868885 0.695121 0.733262 0.166418
H8    H     H_    0.131115 0.195123 0.266738 0.166418
C17   C     C_3   0.841934 0.838344 0.722412 -0.040867
C18   C     C_3   0.158066 0.338346 0.277588 -0.040867
C19   C     C_3   0.762492 0.082147 0.803621 0.275267
C20   C     C_3   0.237509 0.582146 0.196378 0.275268
C21   C     C_3   0.810435 0.891687 0.814145 -0.170313
C22   C     C_3   0.189565 0.391687 0.185855 -0.170312
H9    H     H_    0.801445 0.188528 0.774763 0.071122
H10   H     H_    0.198555 0.688528 0.225235 0.071120
C23   C     C_3   0.686054 0.860612 0.689324 -0.128992
C24   C     C_3   0.313946 0.360612 0.310676 -0.128991
C25   C     C_3   0.769628 0.824590 0.647594 0.552901
C26   C     C_3   0.230372 0.324592 0.352406 0.552901
C27   C     C_3   0.684310 0.058308 0.738734 0.078489
C28   C     C_3   0.315690 0.558307 0.261265 0.078486
H11   H     H_    0.684876 0.173707 0.690100 0.123235
H12   H     H_    0.315125 0.673707 0.309899 0.123235
O11   O     O_R   0.087480 0.241090 0.084980 -0.553007
O12   O     O_R   0.912520 0.741090 0.915020 -0.553007
O13   O     O_R   0.922960 0.569060 0.086330 -0.542408
O14   O     O_R   0.077040 0.069060 0.913670 -0.542408
C29   C     C_R   0.896715 0.400117 0.106921 0.724592
C30   C     C_R   0.103285 0.900117 0.893079 0.724592
O15   O     O_R   0.087520 0.570920 0.095480 -0.525039
O16   O     O_R   0.912480 0.070920 0.904520 -0.525038
O17   O     O_R   0.078240 0.739160 0.924260 -0.516622
O18   O     O_R   0.921760 0.239160 0.075740 -0.516623
C31   C     C_R   0.117506 0.402414 0.115731 0.798078
C32   C     C_R   0.882494 0.902414 0.884269 0.798077
O19   O     O_3   0.996740 0.404980 0.943840 -0.374844
O20   O     O_3   0.003260 0.904980 0.056160 -0.374845
V3    V     V_3+5 0.000600 0.680640 0.010420 1.486337
V4    V     V_3+5 0.999400 0.180640 0.989580 1.486337
N1    N     N_2   0.905986 0.963802 0.696980 -0.523209
H13   H     H_    0.922036 0.076212 0.737672 0.258885
C33   C     C_3   0.974156 0.874553 0.660601 -0.511639
H14   H     H_    0.012549 0.983761 0.632663 0.201833
H15   H     H_    0.953166 0.775010 0.607009 0.226088
H16   H     H_    0.010886 0.796769 0.713332 0.175892
N2    N     N_2   0.094014 0.463805 0.303020 -0.523209
H17   H     H_    0.077965 0.576215 0.262328 0.258885
C34   C     C_3   0.025843 0.374558 0.339399 -0.511639
H18   H     H_    0.987451 0.483767 0.367336 0.201833
H19   H     H_    0.046834 0.275015 0.392991 0.226088
H20   H     H_    0.989114 0.296774 0.286669 0.175892
N3    N     N_2   0.781779 0.938460 0.568830 -0.502150
H21   H     H_    0.826056 0.886819 0.531614 0.300178
C35   C     C_3   0.778020 0.141891 0.566447 -0.462143
H22   H     H_    0.810440 0.195190 0.510439 0.207953
H23   H     H_    0.807505 0.204443 0.627436 0.229064
H24   H     H_    0.714610 0.189164 0.553464 0.216878
N4    N     N_2   0.218221 0.438464 0.431169 -0.502150
H25   H     H_    0.173944 0.386825 0.468386 0.300178
C36   C     C_3   0.221980 0.641895 0.433552 -0.462142
H26   H     H_    0.189561 0.695196 0.489560 0.207955
H27   H     H_    0.192495 0.704446 0.372562 0.229063
H28   H     H_    0.285391 0.689168 0.446535 0.216878
N5    N     N_2   0.717393 0.772324 0.922767 -0.471766
H29   H     H_    0.666929 0.857495 0.919758 0.326304
C37   C     C_3   0.712488 0.618082 0.984018 -0.465236
H30   H     H_    0.699094 0.674252 0.049392 0.191118
H31   H     H_    0.770954 0.542364 0.992682 0.227617
H32   H     H_    0.663161 0.520571 0.960105 0.216533
N6    N     N_2   0.282607 0.272321 0.077234 -0.471766
H33   H     H_    0.333071 0.357491 0.080242 0.326305
C38   C     C_3   0.287512 0.118078 0.015984 -0.465237
H34   H     H_    0.300910 0.174246 0.950610 0.191117
H35   H     H_    0.229046 0.042365 0.007317 0.227617
H36   H     H_    0.336837 0.020563 0.039898 0.216535
Cl1   Cl    Cl    0.769947 0.586721 0.605304 -0.792566
Cl2   Cl    Cl    0.230052 0.086724 0.394697 -0.792566
Cl3   Cl    Cl    0.744635 0.185652 0.908454 -0.708457
Cl4   Cl    Cl    0.255365 0.685648 0.091544 -0.708456
N7    N     N_2   0.609815 0.079567 0.783742 -0.461519
H37   H     H_    0.564245 0.985560 0.764903 0.235194
C39   C     C_3   0.576365 0.267726 0.788017 -0.476524
H38   H     H_    0.520823 0.263584 0.823813 0.182645
H39   H     H_    0.560383 0.323630 0.720604 0.192106
H40   H     H_    0.619492 0.363806 0.824427 0.229226
N8    N     N_2   0.390185 0.579565 0.216257 -0.461521
H41   H     H_    0.435756 0.485559 0.235097 0.235195
C40   C     C_3   0.423635 0.767723 0.211980 -0.476529
H42   H     H_    0.479174 0.763581 0.176179 0.182649
H43   H     H_    0.439622 0.823624 0.279392 0.192105
H44   H     H_    0.380506 0.863804 0.175575 0.229225

loop_
_geom_bond_atom_site_label_1
_geom_bond_atom_site_label_2
_ccdc_geom_bond_type
C11   C30   S    
O20   V4    S    
N4    H25   S    
C3    C6    S    
C13   N5    S    
C38   H34   S    
C2    C23   S    
C17   N1    S    
C37   H30   S    
O1    C3    A    
O2    C4    A    
C2    O7    A    
N3    H21   S    
C37   H32   S    
C29   O18   A    
C19   C21   S    
C34   H18   S    
C19   Cl3   S    
N5    H29   S    
C35   H22   S    
H7    C17   S    
C18   C22   S    
C40   H43   S    
O19   V3    S    
N8    H41   S    
C15   H5    S    
C28   N8    S    
N1    C33   S    
O11   V4    S    
N7    C39   S    
O15   V3    S    
C26   Cl2   S    
C39   H38   S    
C12   C29   S    
N8    C40   S    
C4    C5    S    
C28   H12   S    
C36   H27   S    
C18   C26   S    
C14   N6    S    
C20   Cl4   S    
C30   O17   A    
O5    V1    S    
O20   V3    S    
O6    V2    S    
N3    C35   S    
C18   N2    S    
C23   C25   S    
C9    C11   T    
C13   C15   S    
C24   C26   S    
C19   C27   S    
C16   H6    S    
C34   H19   S    
O4    C2    A    
C40   H44   S    
C13   C21   S    
C33   H15   S    
C19   H9    S    
O12   V3    S    
C27   H11   S    
O14   V4    S    
C15   C23   S    
O4    V2    S    
O5    C3    A    
N2    H17   S    
O17   V3    S    
N6    H33   S    
C23   C27   S    
O6    C4    A    
O19   V4    S    
C26   N4    S    
C39   H39   S    
O1    V2    S    
C36   H28   S    
O2    V1    S    
N2    C34   S    
N6    C38   S    
C8    C10   S    
C14   C16   S    
C38   H36   S    
O13   C29   A    
C10   C12   T    
C17   C25   S    
O3    V1    S    
C14   C22   S    
C27   N7    S    
C38   H35   S    
C34   H20   S    
C35   H23   S    
C14   H2    S    
C16   C24   S    
O3    C1    A    
C33   H16   S    
O13   V3    S    
C37   H31   S    
C13   H1    S    
C1    C24   S    
C24   C28   S    
O15   C31   A    
O18   V4    S    
O16   C32   A    
H8    C18   S    
O7    V1    S    
C1    O8    A    
C15   H3    S    
O8    V2    S    
C40   H42   S    
C16   H4    S    
O11   C31   A    
O12   C32   A    
C20   C28   S    
C20   C22   S    
C5    C7    T    
O14   C30   A    
C39   H40   S    
C6    C8    T    
C25   N3    S    
C17   C21   S    
N1    H13   S    
C20   H10   S    
C35   H24   S    
C33   H14   S    
O16   V4    S    
N5    C37   S    
O9    V2    S    
N4    C36   S    
O10   V1    S    
C21   C32   S    
C25   Cl1   S    
C36   H26   S    
N7    H37   S    
C22   C31   S    
C7    C9    S    
