data_mof_unit_6187.cif
_audit_creation_date              2012-12-10T16:50:09-0500
_audit_creation_method            fapswitch 2.2
_symmetry_space_group_name_H-M    P1
_symmetry_Int_Tables_number       1
_space_group_crystal_system       triclinic
_cell_length_a                    7.786584
_cell_length_b                    8.562756
_cell_length_c                    10.599867
_cell_angle_alpha                 91.100704
_cell_angle_beta                  85.583243
_cell_angle_gamma                 93.745742
_cell_volume                      703.066580202

loop_
_atom_site_label
_atom_site_type_symbol
_atom_type_description
_atom_site_fract_x
_atom_site_fract_y
_atom_site_fract_z
_atom_type_partial_charge
C1    C     C_R   0.545790 0.794685 0.496684 0.929959
C2    C     C_R   0.454196 0.205300 0.502988 0.983021
C3    C     C_R   0.499003 0.502883 0.260676 0.883515
C4    C     C_R   0.413817 0.786992 0.878283 -0.256022
C5    C     C_R   0.366942 0.919004 0.948648 -0.269784
C6    C     C_R   0.358538 0.917471 0.081767 0.596385
C7    C     C_R   0.404388 0.783737 0.141435 -0.254884
C8    C     C_R   0.450768 0.648766 0.071085 0.002154
C9    C     C_3   0.178671 0.121324 0.117645 -0.325367
C10   C     C_R   0.455392 0.650370 0.938951 0.099654
C11   C     C_R   0.507554 0.515756 0.871375 -0.068153
C12   C     C_R   0.560722 0.385638 0.930258 -0.237805
C13   C     C_R   0.556701 0.384247 0.059190 -0.179087
C14   C     C_R   0.498704 0.512579 0.128493 -0.069283
C15   C     C_2   0.569781 0.958263 0.494490 -0.382406
C16   C     C_2   0.430128 0.041677 0.504445 -0.351531
C17   C     C_R   0.502452 0.504853 0.739252 0.855635
H1    H     H_    0.601232 0.283734 0.876291 0.152567
H2    H     H_    0.071277 0.035502 0.094835 0.163721
H3    H     H_    0.217760 0.198665 0.036136 0.177226
H4    H     H_    0.128723 0.197000 0.196450 0.195450
H5    H     H_    0.986701 0.618158 0.594714 0.194037
H6    H     H_    0.421155 0.794477 0.776260 0.166120
H7    H     H_    0.341190 0.022799 0.898568 0.146144
H8    H     H_    0.404331 0.787717 0.243410 0.170482
H9    H     H_    0.596093 0.281899 0.105410 0.179195
H10   H     H_    0.701612 0.009490 0.484917 0.182884
H11   H     H_    0.298293 0.990434 0.513875 0.181716
H12   H     H_    0.013318 0.381875 0.405263 0.189648
N1    N     N_2   0.950330 0.457950 0.466250 -0.172427
N2    N     N_2   0.049670 0.542050 0.533750 -0.170835
O1    O     O_R   0.389250 0.738570 0.508280 -0.622567
O2    O     O_R   0.678390 0.711630 0.486650 -0.624770
O3    O     O_R   0.355400 0.513470 0.694050 -0.617782
O4    O     O_R   0.644540 0.486530 0.672420 -0.622647
O5    O     O_R   0.321610 0.288370 0.513350 -0.625195
O6    O     O_R   0.610750 0.261430 0.491720 -0.616578
O7    O     O_R   0.355460 0.513470 0.327580 -0.626165
O8    O     O_R   0.644600 0.486530 0.305950 -0.615138
O9    O     O_3   0.321974 0.047573 0.157097 -0.629359
Zn1   Zn    Zn3+2 0.306930 0.517990 0.514440 0.943275
Zn2   Zn    Zn3+2 0.693070 0.482010 0.485560 0.944995

loop_
_geom_bond_atom_site_label_1
_geom_bond_atom_site_label_2
_ccdc_geom_bond_type
C16   H11   S    
C17   O3    A    
O1    Zn1   S    
C6    C7    A    
C1    C15   S    
C2    C16   S    
C9    H3    S    
C15   H10   S    
C7    H8    S    
C11   C12   A    
C5    H7    S    
C3    O8    A    
C7    C8    A    
N2    Zn1   S    
C13   C14   A    
C3    C14   S    
C2    O6    A    
C9    H4    S    
O5    Zn1   S    
H12   N1    S    
O3    Zn1   S    
C5    C6    A    
O2    Zn2   S    
O8    Zn2   S    
C9    O9    S    
N1    N2    D    
C6    O9    S    
C13   H9    S    
H5    N2    S    
C1    O2    A    
C15   C16   D    
C2    O5    A    
C12   C13   A    
O7    Zn1   S    
C8    C10   A    
C10   C11   A    
C12   H1    S    
O6    Zn2   S    
C4    H6    S    
O4    Zn2   S    
N1    Zn2   S    
C8    C14   A    
C17   O4    A    
C4    C10   A    
C9    H2    S    
C1    O1    A    
C11   C17   S    
C3    O7    A    
C4    C5    A    
