data_mof_unit_37166.cif
_audit_creation_date              2012-12-10T20:40:04-0500
_audit_creation_method            fapswitch 2.2
_symmetry_space_group_name_H-M    P1
_symmetry_Int_Tables_number       1
_space_group_crystal_system       triclinic
_cell_length_a                    23.429159
_cell_length_b                    10.674522
_cell_length_c                    9.841251
_cell_angle_alpha                 90.112025
_cell_angle_beta                  90.073398
_cell_angle_gamma                 90.035798
_cell_volume                      2461.24118086

loop_
_atom_site_label
_atom_site_type_symbol
_atom_type_description
_atom_site_fract_x
_atom_site_fract_y
_atom_site_fract_z
_atom_type_partial_charge
C1    C     C_R   0.498172 0.259881 0.499947 0.889435
C2    C     C_R   0.970136 0.276184 0.525914 -0.140178
C3    C     C_R   0.029547 0.276079 0.526204 -0.150675
C4    C     C_R   0.059804 0.388665 0.510567 -0.016581
C5    C     C_R   0.029977 0.502238 0.494006 -0.015070
C6    C     C_R   0.059963 0.615676 0.477537 -0.016776
C7    C     C_R   0.029856 0.728303 0.461077 -0.149394
C8    C     C_R   0.970442 0.728493 0.461472 -0.134702
C9    C     C_R   0.119390 0.391053 0.511044 0.506463
C10   C     C_R   0.119550 0.613167 0.478459 0.507241
C11   C     C_R   0.237355 0.492764 0.620099 -0.097212
C12   C     C_R   0.389254 0.500202 0.499871 0.872034
C13   C     C_R   0.296601 0.492549 0.621495 -0.210639
C14   C     C_R   0.326978 0.501070 0.499021 -0.040696
C15   C     C_R   0.297328 0.510676 0.375367 -0.211728
C16   C     C_R   0.238104 0.511266 0.374376 -0.098269
C17   C     C_R   0.208271 0.502080 0.496619 0.320253
C18   C     C_R   0.762192 0.493250 0.378772 -0.146584
C19   C     C_R   0.703059 0.492350 0.378000 -0.176985
C20   C     C_R   0.673003 0.501437 0.500625 -0.128490
C21   C     C_R   0.702762 0.512080 0.624001 -0.288328
C22   C     C_R   0.762250 0.513647 0.625576 0.511033
C23   C     C_R   0.498157 0.740143 0.500088 0.888641
C24   C     C_R   0.791768 0.503602 0.501572 0.173770
C25   C     C_R   0.488152 0.064234 0.623268 0.122063
C26   C     C_R   0.488790 0.128595 0.500385 -0.101300
C27   C     C_R   0.478295 0.064487 0.378367 -0.211257
C28   C     C_R   0.478217 0.934980 0.378501 -0.211501
C29   C     C_R   0.488707 0.871437 0.500652 -0.100955
C30   C     C_R   0.488062 0.936433 0.623440 0.140973
C31   C     C_3   0.527887 0.929719 0.742068 -0.483283
C32   C     C_3   0.528087 0.071704 0.741660 -0.457718
C33   C     C_R   0.479320 0.399240 0.071038 0.219828
C34   C     C_R   0.610735 0.500316 0.500093 0.912859
C35   C     C_R   0.525562 0.593636 0.072326 -0.122138
C36   C     C_R   0.525663 0.593498 0.928188 -0.119983
C37   C     C_R   0.479290 0.399313 0.928344 0.217081
C38   C     C_3   0.420031 0.348873 0.922266 -0.506568
C39   C     C_3   0.420069 0.348641 0.076553 -0.507162
C40   C     C_R   0.880622 0.613952 0.480348 0.582503
C41   C     C_R   0.880484 0.391627 0.511114 0.589894
C42   C     C_R   0.940046 0.388917 0.510354 -0.031256
C43   C     C_R   0.970025 0.502405 0.494205 -0.022971
C44   C     C_R   0.940194 0.616055 0.478260 -0.024152
H1    H     H_    0.947931 0.187926 0.538452 0.198473
H2    H     H_    0.680984 0.484079 0.281635 0.188810
H3    H     H_    0.679652 0.519594 0.718833 0.206339
H4    H     H_    0.474361 0.113175 0.282377 0.165251
H5    H     H_    0.474147 0.885801 0.282561 0.170230
H6    H     H_    0.506965 0.889495 0.833447 0.200645
H7    H     H_    0.569927 0.887967 0.715586 0.213195
H8    H     H_    0.507485 0.113145 0.832944 0.199769
H9    H     H_    0.570216 0.112697 0.714571 0.217920
H10   H     H_    0.545278 0.670311 0.126975 0.154997
H11   H     H_    0.051623 0.187720 0.538846 0.195068
H12   H     H_    0.545660 0.669726 0.873960 0.150482
H13   H     H_    0.389307 0.416771 0.878200 0.214556
H14   H     H_    0.418468 0.253366 0.877238 0.203196
H15   H     H_    0.389265 0.416152 0.121310 0.215913
H16   H     H_    0.418592 0.252920 0.120545 0.198673
H17   H     H_    0.052054 0.816527 0.448201 0.194406
H18   H     H_    0.948357 0.816863 0.448993 0.196335
H19   H     H_    0.213958 0.485950 0.714604 0.139827
H20   H     H_    0.318439 0.485571 0.718030 0.153048
H21   H     H_    0.319745 0.518167 0.279651 0.155059
H22   H     H_    0.215304 0.518567 0.278960 0.139625
H23   H     H_    0.785288 0.485693 0.283844 0.181091
N1    N     N_R   0.852432 0.503180 0.498543 -0.347501
N2    N     N_R   0.147631 0.502110 0.495330 -0.361790
N3    N     N_R   0.499610 0.499140 0.142800 -0.110529
N4    N     N_R   0.499610 0.499180 0.857150 -0.108607
O1    O     O_R   0.500010 0.316790 0.614690 -0.617219
O2    O     O_2   0.850650 0.284164 0.524838 -0.507096
O3    O     O_2   0.149037 0.283616 0.526554 -0.543981
O4    O     O_2   0.149350 0.720514 0.463437 -0.543561
O5    O     O_R   0.500000 0.316760 0.385350 -0.620957
O6    O     O_R   0.416160 0.499980 0.614700 -0.622595
O7    O     O_R   0.416150 0.499940 0.385360 -0.624505
O8    O     O_R   0.500000 0.683240 0.614650 -0.621670
O9    O     O_R   0.499990 0.683210 0.385310 -0.628469
O10   O     O_R   0.583850 0.500060 0.614640 -0.617314
O11   O     O_R   0.583840 0.500020 0.385300 -0.615316
O12   O     O_2   0.850922 0.721366 0.465218 -0.514888
Zn1   Zn    Zn3+2 0.500000 0.500020 0.653130 0.955508
Zn2   Zn    Zn3+2 0.500000 0.499980 0.346870 0.954523
S1    S     S_3+6 0.798904 0.528329 0.782214 0.038192
O13   O     O_2   0.837920 0.640024 0.776669 -0.278313
O14   O     O_2   0.757455 0.544728 0.897452 -0.305218
O15   O     O_3   0.837957 0.398647 0.809217 -0.525825
H24   H     H_    0.862157 0.418821 0.888944 0.382704

loop_
_geom_bond_atom_site_label_1
_geom_bond_atom_site_label_2
_ccdc_geom_bond_type
C27   H4    S    
C4    C9    A    
C17   N2    S    
C41   C42   A    
C19   C20   A    
C19   H2    S    
C7    C8    A    
C26   C27   A    
C37   C38   S    
C18   C24   A    
C23   C29   S    
C28   C29   A    
C9    N2    A    
C11   H19   S    
O8    Zn1   S    
S1    O14   D    
C15   C16   A    
C15   H21   S    
C18   C19   A    
C28   H5    S    
C7    H17   S    
C38   H14   S    
C3    H11   S    
C32   H8    S    
C35   C36   A    
C35   N3    A    
C16   C17   A    
C12   O7    A    
C34   O10   A    
C23   O9    A    
C29   C30   A    
C42   C43   A    
C36   N4    A    
C20   C34   S    
C25   C32   S    
C5    C43   A    
C13   C14   A    
C35   H10   S    
C40   O12   S    
C41   N1    A    
C2    H1    S    
C38   C39   S    
C1    O1    A    
S1    O13   D    
O6    Zn1   S    
C18   H23   S    
C33   C37   A    
C43   C44   A    
O9    Zn2   S    
C36   H12   S    
C38   H13   S    
C10   O4    S    
C31   C32   S    
C30   C31   S    
C39   H15   S    
C12   O6    A    
C33   C39   S    
O1    Zn1   S    
C33   N3    A    
O7    Zn2   S    
C12   C14   S    
C37   N4    A    
C1    C26   S    
C22   C24   A    
C16   H22   S    
C9    O3    S    
C31   H6    S    
C3    C4    A    
C32   H9    S    
O10   Zn1   S    
N4    Zn1   S    
C25   C30   A    
C11   C17   A    
C1    O5    A    
C8    C44   A    
C31   H7    S    
C4    C5    A    
S1    O15   S    
C6    C10   A    
C6    C7    A    
O11   Zn2   S    
C2    C3    A    
C25   C26   A    
C11   C13   A    
C5    C6    A    
C13   H20   S    
C2    C42   A    
C39   H16   S    
C22   S1    S    
C24   N1    S    
C41   O2    S    
C10   N2    A    
C40   C44   A    
C20   C21   A    
C40   N1    A    
C27   C28   A    
C14   C15   A    
C34   O11   A    
C23   O8    A    
O15   H24   S    
C21   C22   A    
N3    Zn2   S    
O5    Zn2   S    
C8    H18   S    
C21   H3    S    
