data_mof_unit_19471.cif
_audit_creation_date              2013-03-05T16:09:16-0500
_audit_creation_method            fapswitch 2.2
_symmetry_space_group_name_H-M    P1
_symmetry_Int_Tables_number       1
_space_group_crystal_system       triclinic
_cell_length_a                    8.584555
_cell_length_b                    10.769393
_cell_length_c                    9.927727
_cell_angle_alpha                 90.629756
_cell_angle_beta                  98.10316
_cell_angle_gamma                 92.658854
_cell_volume                      907.538316082

loop_
_atom_site_label
_atom_site_type_symbol
_atom_site_description
_atom_site_fract_x
_atom_site_fract_y
_atom_site_fract_z
_atom_type_partial_charge
O1    O     O_R   0.499990 0.316750 0.614620 -0.525956
O2    O     O_R   0.500010 0.683250 0.385380 -0.525955
O3    O     O_R   0.499990 0.316780 0.385290 -0.633776
O4    O     O_R   0.500010 0.683220 0.614710 -0.633781
C1    C     C_R   0.514849 0.260708 0.500692 0.916338
C2    C     C_R   0.485149 0.739291 0.499307 0.916335
O5    O     O_R   0.271750 0.499990 0.587840 -0.642788
O6    O     O_R   0.728250 0.500010 0.412160 -0.642787
O7    O     O_R   0.271750 0.500010 0.358510 -0.559570
O8    O     O_R   0.728250 0.499990 0.641490 -0.559576
C3    C     C_R   0.201520 0.498594 0.464599 0.984916
C4    C     C_R   0.798480 0.501406 0.535401 0.984916
Zn1   Zn    Zn3+2 0.500000 0.499980 0.653120 1.080071
Zn2   Zn    Zn3+2 0.500000 0.500020 0.346880 1.080074
N1    N     N_R   0.499960 0.499970 0.857200 -0.156941
N2    N     N_R   0.500040 0.500030 0.142800 -0.156939
C5    C     C_2   0.036375 0.493197 0.445897 -0.324985
C6    C     C_2   0.963625 0.506803 0.554103 -0.324987
H1    H     H_    0.975017 0.475687 0.343662 0.191943
H2    H     H_    0.024982 0.524313 0.656337 0.191943
C7    C     C_R   0.509395 0.059992 0.374905 -0.193417
C8    C     C_R   0.490596 0.940007 0.625094 -0.193416
C9    C     C_R   0.463253 0.934648 0.374726 0.336774
C10   C     C_R   0.536740 0.065350 0.625273 0.336777
C11   C     C_R   0.468948 0.873001 0.499791 -0.295814
C12   C     C_R   0.531045 0.126998 0.500208 -0.295813
C13   C     C_R   0.623821 0.554835 0.086326 -0.111939
C14   C     C_R   0.376179 0.445166 0.913674 -0.111940
C15   C     C_R   0.624208 0.553022 0.942919 0.322810
C16   C     C_R   0.375792 0.446978 0.057081 0.322809
C17   C     C_2   0.545914 0.117963 0.246505 0.656289
H3    H     H_    0.647252 0.182632 0.249511 0.049793
O9    O     O_2   0.462600 0.096945 0.137796 -0.422418
C18   C     C_2   0.454072 0.882036 0.753492 0.656283
H4    H     H_    0.352735 0.817365 0.750483 0.049792
O10   O     O_2   0.537379 0.903056 0.862204 -0.422413
N3    N     N_R   0.404157 0.870741 0.248408 0.257459
O11   O     O_R   0.262641 0.818878 0.231117 -0.344772
O12   O     O_R   0.496299 0.852379 0.157430 -0.271706
N4    N     N_R   0.595837 0.129256 0.751591 0.257460
O13   O     O_R   0.737355 0.181116 0.768882 -0.344772
O14   O     O_R   0.503697 0.147622 0.842569 -0.271707
C19   C     C_2   0.759032 0.619811 0.171142 0.579699
H5    H     H_    0.878008 0.602717 0.153784 0.112185
O15   O     O_2   0.740162 0.699330 0.254602 -0.496813
C20   C     C_2   0.240968 0.380190 0.828857 0.579696
H6    H     H_    0.121991 0.397285 0.846214 0.112185
O16   O     O_2   0.259838 0.300670 0.745398 -0.496812
N5    N     N_R   0.755699 0.608087 0.887761 0.212027
O17   O     O_R   0.889586 0.554641 0.903286 -0.395152
O18   O     O_R   0.745742 0.715746 0.830333 -0.324248
N6    N     N_R   0.244298 0.391915 0.112238 0.212028
O19   O     O_R   0.110410 0.445361 0.096707 -0.395154
O20   O     O_R   0.254261 0.284268 0.169690 -0.324252

loop_
_geom_bond_atom_site_label_1
_geom_bond_atom_site_label_2
_geom_bond_distance
_ccdc_geom_bond_type
O7    Zn2   1.978998 S    
C17   O9    1.220459 D    
N3    O11   1.301322 A    
C13   C15   1.424098 A    
C7    C17   1.491627 S    
C18   O10   1.220458 D    
C17   H3    1.085700 S    
O6    C4    1.285096 A    
C19   H5    1.083113 S    
O3    C1    1.294086 A    
N2    C13   1.381612 A    
C14   C16   1.424098 A    
C5    C6    1.326519 D    
N3    O12   1.300979 A    
C15   N5    1.430029 S    
C8    C18   1.491628 S    
O5    C3    1.285097 A    
C19   O15   1.217071 D    
C14   C20   1.477200 S    
N1    C14   1.381611 A    
O2    C2    1.300997 A    
O3    Zn2   2.013996 S    
O8    C4    1.285104 A    
O1    C1    1.300998 A    
O7    C3    1.285105 A    
C8    C10   1.388958 A    
N4    O14   1.300979 A    
N4    O13   1.301323 A    
C5    H1    1.085821 S    
C7    C12   1.416120 A    
C10   C12   1.410244 A    
N1    C15   1.365714 A    
C6    H2    1.085820 S    
Zn1   N1    2.026101 S    
C7    C9    1.388957 A    
O2    Zn2   2.005818 S    
Zn2   N2    2.026100 S    
C2    C11   1.453099 S    
O1    Zn1   2.005816 S    
N2    C16   1.365716 A    
C1    C12   1.453099 S    
C20   O16   1.217071 D    
C13   C19   1.477200 S    
O5    Zn1   1.975193 S    
C9    C11   1.410243 A    
N6    O19   1.299804 A    
O4    C2    1.294086 A    
C18   H4    1.085701 S    
C4    C6    1.402010 S    
O4    Zn1   2.013997 S    
N5    O17   1.299802 A    
C16   N6    1.430033 S    
C20   H6    1.083112 S    
C3    C5    1.402010 S    
O6    Zn2   1.975193 S    
C10   N4    1.439775 S    
C9    N3    1.439775 S    
O8    Zn1   1.978998 S    
N6    O20   1.298682 A    
N5    O18   1.298685 A    
C8    C11   1.416117 A    
