data_mof_unit_55972.cif
_audit_creation_date              2012-12-10T18:52:58-0500
_audit_creation_method            fapswitch 2.2
_symmetry_space_group_name_H-M    P1
_symmetry_Int_Tables_number       1
_space_group_crystal_system       triclinic
_cell_length_a                    9.937067
_cell_length_b                    10.722262
_cell_length_c                    16.711782
_cell_angle_alpha                 92.265316
_cell_angle_beta                  85.261419
_cell_angle_gamma                 89.976214
_cell_volume                      1773.11919016

loop_
_atom_site_label
_atom_site_type_symbol
_atom_type_description
_atom_site_fract_x
_atom_site_fract_y
_atom_site_fract_z
_atom_type_partial_charge
C1    C     C_R   0.499982 0.739842 0.500026 0.865839
C2    C     C_R   0.499942 0.260144 0.499885 0.875482
C3    C     C_R   0.622789 0.935840 0.495853 -0.148250
C4    C     C_R   0.376652 0.064104 0.503293 -0.170355
C5    C     C_R   0.622742 0.063535 0.496405 -0.155739
C6    C     C_R   0.376652 0.936332 0.503432 -0.171850
C7    C     C_R   0.499768 0.127504 0.499879 -0.046057
C8    C     C_R   0.499792 0.872427 0.499744 -0.041719
C9    C     C_R   0.935120 0.417481 0.450909 0.016939
C10   C     C_R   0.064328 0.575879 0.553341 0.018614
C11   C     C_R   0.079457 0.424800 0.446412 0.004887
C12   C     C_R   0.921291 0.583225 0.548486 0.015098
C13   C     C_R   0.481405 0.502144 0.653357 0.867022
C14   C     C_R   0.518551 0.506954 0.347273 0.859384
C15   C     C_R   0.471160 0.522844 0.740333 -0.059779
C16   C     C_R   0.528452 0.549728 0.265481 -0.032094
C17   C     C_R   0.589401 0.535405 0.780142 -0.194476
C18   C     C_R   0.418383 0.614084 0.239086 -0.166187
C19   C     C_R   0.582114 0.572058 0.860686 -0.127471
C20   C     C_R   0.428514 0.665664 0.164312 -0.152456
C21   C     C_R   0.456196 0.597961 0.902570 0.186539
C22   C     C_R   0.547552 0.650428 0.113953 0.189955
C23   C     C_R   0.337740 0.580371 0.863749 -0.150623
C24   C     C_R   0.660201 0.592349 0.141577 -0.149672
C25   C     C_R   0.345036 0.542775 0.782997 -0.171969
C26   C     C_R   0.650863 0.542197 0.217396 -0.188383
C27   C     C_2   0.444344 0.628428 0.988894 -0.215697
C28   C     C_2   0.547699 0.672092 0.028382 -0.228141
H1    H     H_    0.688082 0.518767 0.748923 0.165512
H2    H     H_    0.324540 0.625915 0.276490 0.174489
H3    H     H_    0.737992 0.495974 0.237823 0.159393
H4    H     H_    0.252412 0.531549 0.753833 0.193808
H5    H     H_    0.641648 0.700331 0.996604 0.153923
H6    H     H_    0.351658 0.599376 0.022049 0.157546
H7    H     H_    0.239618 0.596008 0.895940 0.142549
H8    H     H_    0.752587 0.579825 0.102874 0.135846
H9    H     H_    0.341559 0.712850 0.144407 0.142257
H10   H     H_    0.675314 0.577169 0.889700 0.134253
H11   H     H_    0.718817 0.887357 0.492289 0.198565
H12   H     H_    0.280632 0.112694 0.506112 0.170049
H13   H     H_    0.718677 0.111562 0.494071 0.199104
H14   H     H_    0.280627 0.888163 0.506496 0.169794
N1    N     N_R   0.142790 0.500030 0.500020 -0.190734
N2    N     N_R   0.857210 0.499970 0.499980 -0.188964
O1    O     O_R   0.385380 0.683250 0.500010 -0.653541
O2    O     O_R   0.614620 0.316750 0.499990 -0.638278
O3    O     O_R   0.614710 0.683220 0.500000 -0.639705
O4    O     O_R   0.385290 0.316780 0.500000 -0.647867
O5    O     O_R   0.371780 0.500040 0.615800 -0.634760
O6    O     O_R   0.628220 0.499960 0.384200 -0.643074
O7    O     O_R   0.601110 0.500010 0.615800 -0.643016
O8    O     O_R   0.398890 0.499990 0.384200 -0.632240
Zn1   Zn    Zn3+2 0.346870 0.500020 0.500000 0.925389
Zn2   Zn    Zn3+2 0.653130 0.499980 0.500000 0.928611
C29   C     C_2   0.869407 0.317139 0.404689 0.470723
H15   H     H_    0.775750 0.332593 0.378770 0.110940
O9    O     O_2   0.919562 0.212968 0.396088 -0.591540
C30   C     C_2   0.127401 0.646478 0.618500 0.470679
H16   H     H_    0.226679 0.685567 0.609274 0.112595
O10   O     O_2   0.068230 0.660149 0.685291 -0.597113
C31   C     C_2   0.161079 0.355919 0.380873 0.520831
H17   H     H_    0.251838 0.306979 0.391866 0.099811
O11   O     O_2   0.127491 0.354781 0.312184 -0.580430
C32   C     C_2   0.842885 0.685582 0.592645 0.496497
H18   H     H_    0.744012 0.670251 0.621661 0.103783
O12   O     O_2   0.888753 0.791137 0.596066 -0.584525

loop_
_geom_bond_atom_site_label_1
_geom_bond_atom_site_label_2
_ccdc_geom_bond_type
C29   H15   S    
O5    Zn1   S    
C11   N1    A    
C19   C21   A    
C9    C29   S    
C19   H10   S    
C1    C8    S    
C17   H1    S    
C10   N1    A    
C18   C20   A    
C2    C7    S    
C13   C15   S    
C3    C5    A    
O7    Zn2   S    
C32   H18   S    
O2    Zn2   S    
C25   H4    S    
C23   C25   A    
C21   C27   S    
C3    H11   S    
C26   H3    S    
C12   N2    A    
C16   C18   A    
C22   C28   S    
C2    O2    A    
C20   H9    S    
C9    C11   A    
C1    O1    A    
C24   H8    S    
C10   C12   A    
C4    C7    A    
C13   O5    A    
C13   O7    A    
C22   C24   A    
C4    C6    A    
C17   C19   A    
C20   C22   A    
C28   H5    S    
C23   H7    S    
C29   O9    D    
C27   H6    S    
C16   C26   A    
O4    Zn1   S    
C12   C32   S    
C14   C16   S    
C15   C25   A    
C31   H17   S    
C14   O6    A    
C18   H2    S    
O1    Zn1   S    
N2    Zn2   S    
O6    Zn2   S    
O8    Zn1   S    
C31   O11   D    
C3    C8    A    
C6    H14   S    
C27   C28   D    
C5    C7    A    
C5    H13   S    
O3    Zn2   S    
C1    O3    A    
C9    N2    A    
C6    C8    A    
C10   C30   S    
C2    O4    A    
C30   H16   S    
C15   C17   A    
C30   O10   D    
C21   C23   A    
N1    Zn1   S    
C14   O8    A    
C4    H12   S    
C24   C26   A    
C11   C31   S    
C32   O12   D    
