data_mof_unit_17499.cif
_audit_creation_date              2012-10-26T21:11:06-0400
_audit_creation_method            fapswitch 2.2
_symmetry_space_group_name_H-M    P1
_symmetry_Int_Tables_number       1
_space_group_crystal_system       triclinic
_cell_length_a                    10.885474
_cell_length_b                    10.882932
_cell_length_c                    13.121128
_cell_angle_alpha                 89.876797
_cell_angle_beta                  90.347772
_cell_angle_gamma                 90.274862
_cell_volume                      1554.35587101

loop_
_atom_site_label
_atom_site_type_symbol
_atom_type_description
_atom_site_fract_x
_atom_site_fract_y
_atom_site_fract_z
_atom_type_partial_charge
C1    C     C_R   0.504194 0.259816 0.499937 0.573624
C2    C     C_R   0.396459 0.871389 0.752885 -0.035200
C3    C     C_R   0.659107 0.128890 0.358199 0.080534
C4    C     C_R   0.355768 0.872490 0.651149 0.085263
C5    C     C_R   0.781632 0.146604 0.388923 -0.073434
C6    C     C_R   0.246760 0.810575 0.624741 -0.079263
C7    C     C_R   0.862737 0.212449 0.326839 -0.113231
C8    C     C_R   0.179429 0.748181 0.699240 -0.096786
C9    C     C_R   0.822170 0.259977 0.233506 -0.101414
C10   C     C_R   0.221030 0.746288 0.800223 -0.103617
C11   C     C_R   0.566192 0.935552 0.424101 0.226758
C12   C     C_R   0.499213 0.740449 0.499768 0.595224
C13   C     C_R   0.427858 0.065136 0.569637 0.224435
C14   C     C_R   0.497142 0.873062 0.498673 -0.049259
C15   C     C_R   0.501884 0.127495 0.498732 -0.052256
C16   C     C_R   0.259480 0.504266 0.499437 0.546825
C17   C     C_R   0.740119 0.491322 0.500416 0.564845
C18   C     C_R   0.428618 0.937235 0.572150 -0.077078
C19   C     C_R   0.572047 0.063540 0.426270 -0.074369
C20   C     C_1   0.500087 0.500141 0.173578 0.111955
C21   C     C_1   0.499993 0.500086 0.826427 0.137400
C22   C     C_1   0.500146 0.500190 0.050689 -0.056984
C23   C     C_R   0.872666 0.487485 0.500930 0.001563
C24   C     C_1   0.500085 0.500181 0.949318 -0.052801
C25   C     C_R   0.220367 0.738451 0.219147 -0.143358
C26   C     C_R   0.752082 0.251621 0.765850 -0.128365
C27   C     C_R   0.168652 0.695596 0.309760 -0.080301
C28   C     C_R   0.807642 0.297420 0.677858 -0.081290
C29   C     C_R   0.117035 0.577396 0.314395 0.005799
C30   C     C_R   0.881683 0.403368 0.682405 -0.004910
C31   C     C_R   0.117349 0.502724 0.227313 -0.021476
C32   C     C_R   0.901562 0.461105 0.776833 -0.026459
C33   C     C_R   0.168952 0.545073 0.136155 0.278063
C34   C     C_R   0.126896 0.501730 0.498092 -0.012891
C35   C     C_R   0.846407 0.415465 0.865474 0.271455
C36   C     C_R   0.220750 0.663882 0.132578 -0.098840
C37   C     C_R   0.771041 0.310104 0.859365 -0.101302
C38   C     C_R   0.932783 0.524328 0.412002 -0.144437
C39   C     C_R   0.066969 0.462175 0.586386 -0.176252
C40   C     C_3   0.580404 0.856810 0.263360 -0.082249
C41   C     C_3   0.242508 0.154401 0.595890 -0.093866
C42   C     C_R   0.939938 0.452890 0.588732 -0.041274
C43   C     C_R   0.059517 0.532634 0.409559 -0.041154
C44   C     C_R   0.700539 0.241880 0.202159 -0.103073
C45   C     C_R   0.329444 0.807922 0.827033 -0.112418
C46   C     C_R   0.618968 0.176936 0.264355 -0.061646
Cu1   Cu    Cu3+1 0.499990 0.499990 0.592680 1.018292
Cu2   Cu    Cu3+1 0.500010 0.500010 0.407320 0.993252
H1    H     H_    0.261236 0.698619 0.063027 0.084672
H2    H     H_    0.792095 0.251105 0.606011 0.097789
H3    H     H_    0.078065 0.411242 0.230528 0.115251
H4    H     H_    0.959016 0.542500 0.781443 0.121751
H5    H     H_    0.880700 0.550469 0.344654 0.148254
H6    H     H_    0.119549 0.435517 0.653291 0.134111
H7    H     H_    0.884823 0.310685 0.185314 0.120449
H8    H     H_    0.169120 0.697384 0.857690 0.115085
H9    H     H_    0.669331 0.278673 0.129872 0.096637
H10   H     H_    0.361635 0.806456 0.905224 0.096926
H11   H     H_    0.524465 0.164711 0.239960 0.099884
H12   H     H_    0.727083 0.273413 0.926771 0.092246
H13   H     H_    0.480546 0.918517 0.774353 0.113006
H14   H     H_    0.594482 0.939233 0.215116 0.110728
H15   H     H_    0.480297 0.837182 0.270683 0.106851
H16   H     H_    0.621679 0.777842 0.222913 0.150512
H17   H     H_    0.192655 0.068428 0.575232 0.103563
H18   H     H_    0.250809 0.215073 0.527903 0.112446
H19   H     H_    0.186127 0.203437 0.652830 0.145453
H20   H     H_    0.206574 0.512129 0.994486 0.321041
H21   H     H_    0.821788 0.432712 0.011093 0.316099
H22   H     H_    0.813919 0.110025 0.461003 0.095980
H23   H     H_    0.214027 0.811087 0.546778 0.073679
H24   H     H_    0.956921 0.226816 0.351146 0.103590
H25   H     H_    0.095001 0.701388 0.678679 0.111477
H26   H     H_    0.259547 0.829935 0.215819 0.099956
H27   H     H_    0.694090 0.170686 0.761498 0.125915
H28   H     H_    0.167980 0.754654 0.375927 0.098268
N1    N     N_1   0.500030 0.500030 0.268070 -0.178212
N2    N     N_1   0.499970 0.499970 0.731930 -0.165978
O1    O     O_R   0.499980 0.319630 0.578260 -0.453217
O2    O     O_3   0.358446 0.129329 0.639740 -0.541712
O3    O     O_3   0.167290 0.468736 0.052401 -0.681144
O4    O     O_3   0.867487 0.475725 0.956316 -0.683537
O5    O     O_R   0.500020 0.680370 0.421740 -0.472574
O6    O     O_R   0.500000 0.319650 0.421740 -0.510363
O7    O     O_R   0.500000 0.680350 0.578260 -0.497966
O8    O     O_R   0.319630 0.500000 0.578260 -0.498428
O9    O     O_R   0.680370 0.500000 0.421740 -0.493633
O10   O     O_R   0.319650 0.500020 0.421740 -0.494210
O11   O     O_R   0.680350 0.499980 0.578260 -0.490735
O12   O     O_3   0.640852 0.870486 0.358296 -0.543945

loop_
_geom_bond_atom_site_label_1
_geom_bond_atom_site_label_2
_ccdc_geom_bond_type
C46   H11   S    
C27   C29   A    
C14   C18   A    
Cu1   O1    S    
C41   O2    S    
C41   H19   S    
C1    O6    A    
C15   C19   A    
C11   C19   A    
C17   C23   S    
C23   C42   A    
C20   N1    T    
H20   O3    S    
Cu1   O7    S    
C35   C37   A    
C11   C14   A    
C39   H6    S    
C33   C36   A    
C40   H14   S    
C13   C18   A    
C25   H26   S    
C32   H4    S    
H21   O4    S    
C16   C34   S    
C28   H2    S    
C21   N2    T    
C31   C33   A    
C3    C19   S    
C9    H7    S    
C10   H8    S    
C2    H13   S    
C4    C18   S    
C13   O2    S    
C29   C43   S    
C16   O8    A    
Cu1   O11   S    
C35   O4    S    
C44   C46   A    
C39   C42   A    
C2    C45   A    
C6    H23   S    
C45   H10   S    
C34   C39   A    
Cu1   O8    S    
C17   O11   A    
C4    C6    A    
C31   H3    S    
C7    H24   S    
C5    C7    A    
C41   H17   S    
Cu2   O6    S    
C12   O5    A    
Cu2   N1    S    
C2    C4    A    
C32   C35   A    
C5    H22   S    
Cu1   Cu2   S    
C44   H9    S    
C10   C45   A    
Cu2   O10   S    
C26   H27   S    
Cu2   O9    S    
C40   H15   S    
C1    C15   S    
C12   O7    A    
C12   C14   S    
C13   C15   A    
C1    O1    A    
C22   C24   T    
C27   H28   S    
C7    C9    A    
C9    C44   A    
C17   O9    A    
C34   C43   A    
C20   C22   S    
C3    C5    A    
C6    C8    A    
C26   C37   A    
C41   H18   S    
C25   C27   A    
C23   C38   A    
C3    C46   A    
C26   C28   A    
C40   H16   S    
Cu2   O5    S    
C28   C30   A    
C38   C43   A    
C29   C31   A    
C30   C32   A    
C11   O12   S    
C38   H5    S    
C8    H25   S    
C37   H12   S    
C25   C36   A    
C8    C10   A    
C21   C24   S    
C16   O10   A    
C30   C42   S    
Cu1   N2    S    
C40   O12   S    
C33   O3    S    
C36   H1    S    
