data_mof_unit_56111.cif
_audit_creation_date              2012-12-11T16:44:23-0500
_audit_creation_method            fapswitch 2.2
_symmetry_space_group_name_H-M    P1
_symmetry_Int_Tables_number       1
_space_group_crystal_system       triclinic
_cell_length_a                    27.120593
_cell_length_b                    7.190638
_cell_length_c                    22.834449
_cell_angle_alpha                 90.001305
_cell_angle_beta                  101.546199
_cell_angle_gamma                 90.000516
_cell_volume                      4362.93213205

loop_
_atom_site_label
_atom_site_type_symbol
_atom_type_description
_atom_site_fract_x
_atom_site_fract_y
_atom_site_fract_z
_atom_type_partial_charge
O1    O     O_R   0.707300 0.594030 0.176840 -0.534074
O2    O     O_R   0.292700 0.405970 0.823160 -0.532474
O3    O     O_R   0.792700 0.094030 0.323160 -0.534076
O4    O     O_R   0.207300 0.905970 0.676840 -0.532478
O5    O     O_R   0.697330 0.262360 0.295660 -0.541535
O6    O     O_R   0.302670 0.737640 0.704340 -0.538889
O7    O     O_R   0.802670 0.762360 0.204340 -0.541536
O8    O     O_R   0.197330 0.237640 0.795660 -0.538889
C1    C     C_R   0.684687 0.432396 0.311562 0.674536
C2    C     C_R   0.315433 0.567558 0.688590 0.681403
C3    C     C_R   0.815313 0.932395 0.188438 0.674535
C4    C     C_R   0.184567 0.067559 0.811410 0.681405
O9    O     O_R   0.701410 0.264250 0.175600 -0.532582
O10   O     O_R   0.298590 0.735750 0.824400 -0.537948
O11   O     O_R   0.798590 0.764250 0.324400 -0.532579
O12   O     O_R   0.201410 0.235750 0.675600 -0.537948
O13   O     O_R   0.796800 0.094950 0.202240 -0.537093
O14   O     O_R   0.203200 0.905050 0.797760 -0.536881
O15   O     O_R   0.703200 0.594950 0.297760 -0.537094
O16   O     O_R   0.296800 0.405050 0.702240 -0.536883
C5    C     C_R   0.690041 0.431904 0.153126 0.712357
C6    C     C_R   0.310184 0.567822 0.846714 0.714949
C7    C     C_R   0.809958 0.931909 0.346874 0.712357
C8    C     C_R   0.189817 0.067817 0.653286 0.714950
O17   O     O_3   0.781290 0.427390 0.258880 -0.372394
O18   O     O_3   0.218710 0.572610 0.741120 -0.375505
O19   O     O_3   0.718710 0.927390 0.241120 -0.372394
O20   O     O_3   0.281290 0.072610 0.758880 -0.375507
V1    V     V_3+5 0.744190 0.152150 0.248350 1.411067
V2    V     V_3+5 0.255810 0.847850 0.751650 1.385973
V3    V     V_3+5 0.755810 0.652150 0.251650 1.411066
V4    V     V_3+5 0.244190 0.347850 0.748350 1.385975
C9    C     C_R   0.154897 0.065350 0.594658 -0.147230
C10   C     C_R   0.844586 0.929720 0.405676 -0.129673
C11   C     C_R   0.345106 0.565372 0.905341 -0.147258
C12   C     C_R   0.655414 0.429699 0.094323 -0.129673
C13   C     C_R   0.134703 0.179437 0.492936 0.432275
C14   C     C_R   0.864364 0.792751 0.504720 0.434198
C15   C     C_R   0.365315 0.679558 0.007052 0.432277
C16   C     C_R   0.635632 0.292681 0.995284 0.434196
C17   C     C_R   0.168767 0.158424 0.546969 -0.235896
C18   C     C_R   0.829994 0.831024 0.451894 -0.237135
C19   C     C_R   0.331247 0.658525 0.953024 -0.235839
C20   C     C_R   0.670003 0.330971 0.048109 -0.237136
C21   C     C_R   0.105783 0.994943 0.588355 -0.205812
C22   C     C_R   0.894578 0.990633 0.412396 -0.181713
C23   C     C_R   0.394214 0.494913 0.911646 -0.205822
C24   C     C_R   0.605422 0.490628 0.087601 -0.181712
C25   C     C_R   0.070641 0.003479 0.532717 0.038775
C26   C     C_R   0.932175 0.934718 0.462450 0.037878
C27   C     C_R   0.429360 0.503480 0.967281 0.038794
C28   C     C_R   0.567825 0.434693 0.037548 0.037866
C29   C     C_R   0.086641 0.095959 0.484745 -0.045346
C30   C     C_R   0.915692 0.837997 0.509251 -0.025299
C31   C     C_R   0.413368 0.596021 0.015248 -0.045387
C32   C     C_R   0.584306 0.337941 0.990752 -0.025287
C33   C     C_R   0.019601 0.933970 0.523566 -0.078939
C34   C     C_R   0.985205 0.972215 0.468011 -0.080796
C35   C     C_R   0.480399 0.433947 0.976433 -0.078921
C36   C     C_R   0.514796 0.472203 0.031987 -0.080815
C37   C     C_R   0.005947 0.036860 0.419220 0.392825
C38   C     C_R   0.001581 0.822425 0.566418 0.395248
C39   C     C_R   0.494057 0.536879 0.080777 0.392833
C40   C     C_R   0.498416 0.322377 0.933584 0.395248
C41   C     C_R   0.054825 0.104619 0.428740 -0.255994
C42   C     C_R   0.950596 0.781992 0.559566 -0.236534
C43   C     C_R   0.445184 0.604683 0.071254 -0.256015
C44   C     C_R   0.549400 0.281925 0.940437 -0.236548
H1    H     H_    0.068148 0.161563 0.390777 0.185817
H2    H     H_    0.938669 0.701362 0.594363 0.186441
H3    H     H_    0.431864 0.661658 0.109215 0.185817
H4    H     H_    0.561326 0.201278 0.905643 0.186438
H5    H     H_    0.902696 0.078127 0.377337 0.183091
H6    H     H_    0.095718 0.947970 0.628998 0.184873
H7    H     H_    0.597306 0.578148 0.122656 0.183088
H8    H     H_    0.404270 0.447877 0.871005 0.184892
H9    H     H_    0.791776 0.779446 0.446415 0.121616
H10   H     H_    0.205721 0.221398 0.552337 0.129712
H11   H     H_    0.708220 0.279380 0.053591 0.121619
H12   H     H_    0.294298 0.721546 0.947652 0.129737
C45   C     C_R   0.880522 0.110528 0.147343 -0.193820
C46   C     C_R   0.118967 0.889153 0.851735 -0.185570
C47   C     C_R   0.619478 0.610527 0.352658 -0.193820
C48   C     C_R   0.381032 0.389154 0.648263 -0.185575
H13   H     H_    0.873383 0.231972 0.172440 0.132951
H14   H     H_    0.126179 0.768050 0.826520 0.131138
H15   H     H_    0.626617 0.731970 0.327561 0.132951
H16   H     H_    0.373820 0.268052 0.673477 0.131137
C49   C     C_R   0.916582 0.123318 0.111491 -0.093807
C50   C     C_R   0.082739 0.875798 0.887362 -0.085656
C51   C     C_R   0.583417 0.623318 0.388509 -0.093807
C52   C     C_R   0.417260 0.375800 0.612636 -0.085660
H17   H     H_    0.936551 0.253314 0.110594 0.144965
H18   H     H_    0.062701 0.745811 0.887916 0.144733
H19   H     H_    0.563448 0.753311 0.389406 0.144966
H20   H     H_    0.437299 0.245816 0.612081 0.144734
C53   C     C_R   0.926920 0.970337 0.077538 0.127823
C54   C     C_R   0.072293 0.028249 0.921473 0.126919
C55   C     C_R   0.573080 0.470339 0.422462 0.127817
C56   C     C_R   0.427706 0.528249 0.578526 0.126914
C57   C     C_R   0.901563 0.801824 0.082238 -0.175187
C58   C     C_R   0.097786 0.196763 0.917217 -0.172905
C59   C     C_R   0.598437 0.301829 0.417761 -0.175188
C60   C     C_R   0.402212 0.696760 0.582782 -0.172907
H21   H     H_    0.908596 0.681282 0.056693 0.148432
H22   H     H_    0.090641 0.316917 0.942854 0.148566
H23   H     H_    0.591404 0.181288 0.443305 0.148431
H24   H     H_    0.409357 0.816912 0.557145 0.148564
C61   C     C_R   0.865950 0.788086 0.118856 -0.162883
C62   C     C_R   0.133627 0.211025 0.880885 -0.164411
C63   C     C_R   0.634050 0.288090 0.381143 -0.162881
C64   C     C_R   0.366372 0.711021 0.619115 -0.164416
H25   H     H_    0.846674 0.656988 0.120765 0.124284
H26   H     H_    0.153028 0.342050 0.879358 0.125363
H27   H     H_    0.653326 0.156994 0.379234 0.124283
H28   H     H_    0.346971 0.842045 0.620642 0.125362
C65   C     C_R   0.854481 0.943137 0.151267 -0.043565
C66   C     C_R   0.145140 0.056541 0.848247 -0.045107
C67   C     C_R   0.645519 0.443139 0.348733 -0.043565
C68   C     C_R   0.354859 0.556540 0.651752 -0.045106
C69   C     C_R   0.998699 0.842840 0.035507 -0.277724
C70   C     C_R   0.000197 0.155141 0.963126 -0.276647
C71   C     C_R   0.501301 0.342836 0.464491 -0.277704
C72   C     C_R   0.499801 0.655148 0.536872 -0.276630
H29   H     H_    0.999022 0.721506 0.063709 0.159030
H30   H     H_    0.999873 0.276455 0.934918 0.160332
H31   H     H_    0.500979 0.221499 0.436290 0.159034
H32   H     H_    0.500124 0.776465 0.565081 0.160334
C73   C     C_R   0.034492 0.855116 0.998952 0.422874
C74   C     C_R   0.964307 0.142603 0.999559 0.421582
C75   C     C_R   0.465508 0.355113 0.501045 0.422872
C76   C     C_R   0.535691 0.642610 0.500440 0.421581
C77   C     C_R   0.035149 0.011760 0.961562 -0.083936
C78   C     C_R   0.963818 0.986330 0.037149 -0.084323
C79   C     C_R   0.464850 0.511761 0.538436 -0.083947
C80   C     C_R   0.536181 0.486331 0.462850 -0.084334
O21   O     O_3   0.067691 0.709469 0.998798 -0.561666
C81   C     C_3   0.111400 0.744031 0.042527 0.091779
H33   H     H_    0.102519 0.742974 0.088095 0.120866
H34   H     H_    0.128759 0.880049 0.034744 0.124515
C82   C     C_3   0.149731 0.591838 0.039376 -0.708797
H35   H     H_    0.159363 0.590114 0.994318 0.219481
H36   H     H_    0.184505 0.617807 0.073344 0.186406
H37   H     H_    0.134074 0.454288 0.048237 0.218124
O22   O     O_3   0.930775 0.287446 0.999303 -0.560818
C83   C     C_3   0.886823 0.249424 0.956292 0.101993
H38   H     H_    0.870379 0.111965 0.964429 0.121673
H39   H     H_    0.895135 0.251474 0.910460 0.119569
C84   C     C_3   0.847700 0.398247 0.960014 -0.729816
H40   H     H_    0.862394 0.537271 0.950963 0.221249
H41   H     H_    0.812834 0.369794 0.926446 0.176247
H42   H     H_    0.838518 0.398408 0.005303 0.219111
O23   O     O_3   0.432309 0.209461 0.501198 -0.561665
C85   C     C_3   0.388596 0.244030 0.457478 0.091775
H43   H     H_    0.397471 0.242984 0.411906 0.120869
H44   H     H_    0.371239 0.380046 0.465269 0.124514
C86   C     C_3   0.350265 0.091835 0.460630 -0.708800
H45   H     H_    0.340638 0.090103 0.505692 0.219477
H46   H     H_    0.315488 0.117809 0.426668 0.186412
H47   H     H_    0.365919 0.954288 0.451762 0.218127
O24   O     O_3   0.569222 0.787458 0.500698 -0.560817
C87   C     C_3   0.613178 0.749435 0.543702 0.101990
H48   H     H_    0.629621 0.611982 0.535558 0.121676
H49   H     H_    0.604870 0.751472 0.589536 0.119569
C88   C     C_3   0.652299 0.898267 0.539981 -0.729816
H50   H     H_    0.637605 0.037286 0.549039 0.221250
H51   H     H_    0.687167 0.869815 0.573544 0.176252
H52   H     H_    0.661477 0.898440 0.494690 0.219110
O25   O     O_3   0.148531 0.284796 0.448159 -0.556751
C89   C     C_3   0.136416 0.472580 0.457151 0.080917
H53   H     H_    0.159264 0.526508 0.499824 0.125314
H54   H     H_    0.095653 0.488902 0.457947 0.107331
C90   C     C_3   0.147731 0.590473 0.406165 -0.695506
H55   H     H_    0.124896 0.541693 0.362999 0.216796
H56   H     H_    0.138276 0.738178 0.413039 0.183146
H57   H     H_    0.188301 0.580400 0.404542 0.226723
O26   O     O_3   0.848850 0.691312 0.549303 -0.558120
C91   C     C_3   0.819917 0.807544 0.579191 0.086697
H58   H     H_    0.784663 0.852919 0.548640 0.117657
H59   H     H_    0.841944 0.932287 0.598016 0.123972
C92   C     C_3   0.805336 0.700213 0.630535 -0.712349
H60   H     H_    0.839679 0.654499 0.662403 0.224377
H61   H     H_    0.782641 0.790441 0.654476 0.171120
H62   H     H_    0.782655 0.576219 0.613090 0.222826
O27   O     O_3   0.351496 0.784999 0.051820 -0.556741
C93   C     C_3   0.363655 0.972737 0.042828 0.080882
H63   H     H_    0.340850 0.026672 0.000132 0.125308
H64   H     H_    0.404430 0.988940 0.042080 0.107347
C94   C     C_3   0.352317 0.090737 0.093780 -0.695492
H65   H     H_    0.375106 0.041943 0.136969 0.216809
H66   H     H_    0.361813 0.238401 0.086910 0.183136
H67   H     H_    0.311736 0.080797 0.095350 0.226725
O28   O     O_3   0.651144 0.191212 0.950704 -0.558120
C95   C     C_3   0.680082 0.307414 0.920814 0.086698
H68   H     H_    0.715338 0.352782 0.951365 0.117656
H69   H     H_    0.658061 0.432161 0.901987 0.123970
C96   C     C_3   0.694659 0.200051 0.869473 -0.712343
H70   H     H_    0.660315 0.154343 0.837606 0.224375
H71   H     H_    0.717359 0.290256 0.845530 0.171117
H72   H     H_    0.717335 0.076052 0.886920 0.222827
O29   O     O_3   0.980209 0.028069 0.360647 -0.565658
C97   C     C_3   0.985306 0.846935 0.338637 0.074159
H73   H     H_    0.025259 0.818800 0.336264 0.126383
H74   H     H_    0.972166 0.739287 0.367162 0.128158
C98   C     C_3   0.953311 0.830815 0.276037 -0.682445
H75   H     H_    0.965679 0.934675 0.245976 0.228473
H76   H     H_    0.957139 0.689317 0.257981 0.179117
H77   H     H_    0.913150 0.855703 0.277446 0.206174
O30   O     O_3   0.032941 0.744660 0.615284 -0.564360
C99   C     C_3   0.050958 0.572878 0.598207 0.063493
H78   H     H_    0.071367 0.590716 0.560776 0.112618
H79   H     H_    0.019421 0.472591 0.584573 0.132701
C100  C     C_3   0.087472 0.491811 0.651306 -0.659226
H80   H     H_    0.068484 0.473827 0.689750 0.214901
H81   H     H_    0.100915 0.354498 0.639167 0.180113
H82   H     H_    0.120286 0.585919 0.664521 0.224601
O31   O     O_3   0.519792 0.528083 0.139350 -0.565655
C101  C     C_3   0.514698 0.346942 0.161353 0.074164
H83   H     H_    0.474744 0.318787 0.163720 0.126383
H84   H     H_    0.527843 0.239306 0.132827 0.128156
C102  C     C_3   0.546688 0.330822 0.223955 -0.682435
H85   H     H_    0.534316 0.434670 0.254018 0.228472
H86   H     H_    0.542862 0.189319 0.242005 0.179117
H87   H     H_    0.586850 0.355729 0.222552 0.206171
O32   O     O_3   0.467056 0.244625 0.884714 -0.564364
C103  C     C_3   0.449045 0.072819 0.901780 0.063481
H88   H     H_    0.428634 0.090625 0.939211 0.112594
H89   H     H_    0.480586 0.972548 0.915410 0.132702
C104  C     C_3   0.412536 0.991750 0.848676 -0.659218
H90   H     H_    0.431524 0.973819 0.810230 0.214905
H91   H     H_    0.399102 0.854411 0.860804 0.180110
H92   H     H_    0.379716 0.085830 0.835468 0.224593

loop_
_geom_bond_atom_site_label_1
_geom_bond_atom_site_label_2
_ccdc_geom_bond_type
O17   V3    S    
C95   H69   S    
O1    C5    A    
C86   H45   S    
O19   V1    S    
C9    C21   A    
O29   C97   S    
O3    C7    A    
C10   C18   A    
C56   C60   A    
C11   C23   A    
C62   C66   A    
O24   C87   S    
C33   C34   A    
C25   C33   A    
C33   C38   A    
C5    C12   S    
C92   H60   S    
C96   H72   S    
O7    C3    A    
C6    C11   S    
C54   C77   S    
C35   C40   A    
C102  H85   S    
C97   H74   S    
C36   C39   A    
C40   C44   A    
O2    V4    S    
O32   C103  S    
C23   H8    S    
C14   C18   A    
C102  H87   S    
C75   C79   A    
C82   H36   S    
C13   O25   S    
O4    C8    A    
C25   C29   A    
C91   H59   S    
C98   H77   S    
C95   C96   S    
C89   H53   S    
C57   C61   A    
C83   C84   S    
C45   C65   A    
O1    V3    S    
O13   V1    S    
C31   C43   A    
C72   C76   A    
C59   C63   A    
O25   C89   S    
C47   C67   A    
O3    V1    S    
C103  C104  S    
C76   O24   S    
C28   C36   A    
C37   O29   S    
C28   C32   A    
C71   H31   S    
C1    O15   A    
C15   C31   A    
O27   C93   S    
C2    O16   A    
C16   C32   A    
C97   C98   S    
O2    C6    A    
C58   H22   S    
C10   C22   A    
C69   C78   A    
C11   C19   A    
C62   H26   S    
C16   C20   A    
C87   H49   S    
C56   C79   S    
C76   C80   A    
C72   H32   S    
C13   C29   A    
O11   C7    A    
C34   C37   A    
C98   H76   S    
C95   H68   S    
C93   H63   S    
O15   V3    S    
C35   C36   A    
O12   C8    A    
C14   O26   S    
C90   H55   S    
C74   O22   S    
C49   H17   S    
C84   H41   S    
C88   H51   S    
C74   C78   A    
C53   C78   S    
O10   V2    S    
C40   O32   S    
C50   H18   S    
C83   H39   S    
C16   O28   S    
C100  H81   S    
C52   H20   S    
C57   H21   S    
C39   C43   A    
O7    V3    S    
C97   H73   S    
C38   C42   A    
C61   C65   A    
O8    V4    S    
C100  H80   S    
C91   H58   S    
C75   O23   S    
C2    C68   S    
C44   H4    S    
C85   C86   S    
C55   C59   A    
C92   H61   S    
C69   C73   A    
C17   H10   S    
C60   C64   A    
O18   V4    S    
C15   C19   A    
C27   C31   A    
C19   H12   S    
C32   C44   A    
C82   H37   S    
O4    V2    S    
C83   H38   S    
C49   C53   A    
C21   H6    S    
C26   C34   A    
C70   H30   S    
C94   H67   S    
C70   C77   A    
C69   H29   S    
C104  H90   S    
C87   C88   S    
C63   H27   S    
C101  H84   S    
C14   C30   A    
C21   C25   A    
C48   C68   A    
C7    C10   S    
O30   C99   S    
O9    C5    A    
C26   C30   A    
C24   H7    S    
C85   H43   S    
C90   H56   S    
C81   H34   S    
O26   C91   S    
C73   C77   A    
C63   C67   A    
O6    V2    S    
O28   C95   S    
C88   H52   S    
C103  H89   S    
O14   V2    S    
C1    C67   S    
C4    C66   S    
C84   H42   S    
C27   C35   A    
C46   C66   A    
C93   H64   S    
C3    C65   S    
O5    V1    S    
O22   C83   S    
C60   H24   S    
C29   C41   A    
C52   C56   A    
C101  C102  S    
C64   C68   A    
C87   H48   S    
O16   V4    S    
C100  H82   S    
O9    V1    S    
C94   H65   S    
C98   H75   S    
C3    O13   A    
C92   H62   S    
C72   C79   A    
C71   C75   A    
C85   H44   S    
C20   H11   S    
C48   H16   S    
O5    C1    A    
C81   C82   S    
C47   H15   S    
O6    C2    A    
C23   C27   A    
C64   H28   S    
O11   V3    S    
C30   C42   A    
C61   H25   S    
C86   H47   S    
O12   V4    S    
C99   C100  S    
C47   C51   A    
O21   C81   S    
C22   C26   A    
C99   H79   S    
C8    C9    S    
C46   C50   A    
C71   C80   A    
C102  H86   S    
C9    C17   A    
O10   C6    A    
C93   C94   S    
C96   H71   S    
O31   C101  S    
C45   C49   A    
C104  H91   S    
C54   C58   A    
C82   H35   S    
C46   H14   S    
C39   O31   S    
C101  H83   S    
C42   H2    S    
C89   H54   S    
C58   C62   A    
C41   H1    S    
O20   V2    S    
C90   H57   S    
C38   O30   S    
C70   C74   A    
C55   C80   S    
C12   C24   A    
C43   H3    S    
C99   H78   S    
C13   C17   A    
C96   H70   S    
C45   H13   S    
C91   C92   S    
C12   C20   A    
C81   H33   S    
C51   H19   S    
C104  H92   S    
C15   O27   S    
C37   C41   A    
C88   H50   S    
C24   C28   A    
C73   O21   S    
C18   H9    S    
C86   H46   S    
C103  H88   S    
C4    O14   A    
C59   H23   S    
C48   C52   A    
C51   C55   A    
O23   C85   S    
C84   H40   S    
C50   C54   A    
C22   H5    S    
C53   C57   A    
O8    C4    A    
C94   H66   S    
C89   C90   S    
