data_mof_unit_31044.cif
_audit_creation_date              2013-03-05T16:48:39-0500
_audit_creation_method            fapswitch 2.2
_symmetry_space_group_name_H-M    P1
_symmetry_Int_Tables_number       1
_space_group_crystal_system       triclinic
_cell_length_a                    10.853095
_cell_length_b                    10.857534
_cell_length_c                    10.424747
_cell_angle_alpha                 90.700744
_cell_angle_beta                  90.398584
_cell_angle_gamma                 90.085485
_cell_volume                      1228.306629

loop_
_atom_site_label
_atom_site_type_symbol
_atom_site_description
_atom_site_fract_x
_atom_site_fract_y
_atom_site_fract_z
_atom_type_partial_charge
O1    O     O_R   0.499990 0.319650 0.605810 -0.588623
O2    O     O_R   0.500010 0.680350 0.394190 -0.588597
O3    O     O_R   0.499990 0.319640 0.394190 -0.576649
O4    O     O_R   0.500010 0.680360 0.605810 -0.576632
C1    C     C_R   0.496283 0.261513 0.498930 0.813661
C2    C     C_R   0.503716 0.738488 0.501070 0.813639
O5    O     O_R   0.319640 0.500010 0.605810 -0.591724
O6    O     O_R   0.680360 0.499990 0.394190 -0.591740
O7    O     O_R   0.319650 0.500010 0.394190 -0.561970
O8    O     O_R   0.680350 0.499990 0.605810 -0.561959
C3    C     C_R   0.261552 0.504099 0.499388 0.820922
C4    C     C_R   0.738447 0.495885 0.500611 0.820953
Cu1   Cu    Cu3+1 0.500000 0.500000 0.625300 0.995564
Cu2   Cu    Cu3+1 0.500000 0.500000 0.374700 0.995562
H1    H     H_    0.259536 0.732853 0.965287 0.136821
H2    H     H_    0.740453 0.267193 0.034749 0.136835
C5    C     C_R   0.226330 0.760684 0.167099 -0.123704
C6    C     C_R   0.773616 0.239341 0.832933 -0.123672
H3    H     H_    0.269696 0.850454 0.170439 0.127786
H4    H     H_    0.730212 0.149589 0.829605 0.127787
C7    C     C_R   0.175817 0.711243 0.278374 -0.087387
C8    C     C_R   0.824132 0.288756 0.721646 -0.087314
H5    H     H_    0.181395 0.763067 0.367692 0.145387
H6    H     H_    0.818518 0.236932 0.632330 0.145431
C9    C     C_R   0.117084 0.595864 0.273607 0.110990
C10   C     C_R   0.882913 0.404112 0.726398 0.110977
C11   C     C_R   0.109403 0.531027 0.156437 -0.136270
C12   C     C_R   0.890642 0.468947 0.843567 -0.136298
H7    H     H_    0.063071 0.442757 0.151028 0.142096
H8    H     H_    0.937015 0.557197 0.848966 0.142013
C13   C     C_R   0.161853 0.579821 0.045948 -0.151002
C14   C     C_R   0.838189 0.420180 0.954066 -0.150970
H9    H     H_    0.156875 0.528880 0.956147 0.130357
H10   H     H_    0.843202 0.471122 0.043865 0.130357
C15   C     C_R   0.219973 0.694727 0.051186 -0.112223
C16   C     C_R   0.780019 0.305298 0.948843 -0.112228
C17   C     C_R   0.932483 0.536449 0.392684 -0.167495
C18   C     C_R   0.067517 0.463500 0.607307 -0.167565
H11   H     H_    0.880186 0.567544 0.310144 0.145804
H12   H     H_    0.119816 0.432408 0.689846 0.145827
C19   C     C_R   0.872011 0.493692 0.501623 -0.042469
C20   C     C_R   0.127988 0.506266 0.498371 -0.042564
C21   C     C_R   0.940112 0.455547 0.610069 0.027878
C22   C     C_R   0.059887 0.544407 0.389924 0.027881
H13   H     H_    0.323797 0.253327 0.936250 0.154082
H14   H     H_    0.676281 0.746527 0.063655 0.154053
C23   C     C_R   0.269312 0.216053 0.130040 -0.178027
C24   C     C_R   0.730712 0.783862 0.869859 -0.177947
H15   H     H_    0.178536 0.254605 0.115553 0.161434
H16   H     H_    0.821490 0.745288 0.884285 0.161365
C25   C     C_R   0.302535 0.165074 0.248920 0.371745
C26   C     C_R   0.697458 0.834911 0.751024 0.371853
C27   C     C_R   0.422351 0.114150 0.263497 -0.003142
C28   C     C_R   0.577650 0.885853 0.736502 -0.003162
C29   C     C_R   0.503281 0.112984 0.158773 -0.196234
C30   C     C_R   0.496752 0.887005 0.841253 -0.196254
H17   H     H_    0.594377 0.073244 0.168138 0.157312
H18   H     H_    0.405661 0.926768 0.831932 0.157311
C31   C     C_R   0.467693 0.162864 0.041542 -0.141467
C32   C     C_R   0.532372 0.837077 0.958455 -0.141461
H19   H     H_    0.530412 0.161050 0.961365 0.139167
H20   H     H_    0.469682 0.838885 0.038658 0.139185
C33   C     C_R   0.351150 0.214691 0.027349 -0.181291
C34   C     C_R   0.648907 0.785206 0.972582 -0.181260
C35   C     C_R   0.472702 0.931717 0.389381 -0.203425
C36   C     C_R   0.527281 0.068286 0.610624 -0.203253
H21   H     H_    0.449873 0.879048 0.303496 0.141584
H22   H     H_    0.550108 0.120955 0.696510 0.141554
C37   C     C_R   0.505305 0.872029 0.502779 -0.044638
C38   C     C_R   0.494689 0.127974 0.497223 -0.044446
C39   C     C_R   0.534756 0.941110 0.614670 0.073906
C40   C     C_R   0.465229 0.058894 0.385334 0.073975
N1    N     N_1   0.500010 0.499990 0.186410 -0.143114
N2    N     N_1   0.499990 0.500010 0.813590 -0.143112
C41   C     C_1   0.500017 0.500012 0.071938 0.090355
C42   C     C_1   0.499982 0.499987 0.928062 0.090369
N3    N     N_R   0.213642 0.164390 0.351185 0.100521
O9    O     O_R   0.216445 0.080125 0.438855 -0.368076
O10   O     O_R   0.121019 0.240384 0.349373 -0.388677
N4    N     N_R   0.786316 0.835682 0.648738 0.100481
O11   O     O_R   0.783740 0.920288 0.561434 -0.368028
O12   O     O_R   0.878759 0.759474 0.650273 -0.388709

loop_
_geom_bond_atom_site_label_1
_geom_bond_atom_site_label_2
_geom_bond_distance
_ccdc_geom_bond_type
C2    C37   1.449894 S    
C36   H22   1.083504 S    
C29   C31   1.395083 A    
C11   H7    1.082315 S    
C19   C21   1.413026 A    
C41   C42   1.499858 S    
C23   H15   1.081368 S    
N3    O9    1.301312 A    
O5    C3    1.273494 A    
C4    C19   1.449779 S    
N2    C42   1.193348 T    
O1    C1    1.274201 A    
C14   C16   1.397459 A    
C18   C20   1.399402 A    
C23   C33   1.395707 A    
C24   C34   1.395739 A    
C3    C20   1.449776 S    
C32   H20   1.081629 S    
O4    Cu1   1.971246 S    
C37   C39   1.413510 A    
C28   C39   1.483565 S    
C35   H21   1.083505 S    
C13   H9    1.082472 S    
C24   H16   1.081387 S    
Cu1   Cu2   2.612442 S    
N1    C41   1.193348 T    
O2    C2    1.274209 A    
C20   C22   1.413018 A    
C9    C22   1.481162 S    
H1    C15   1.082339 S    
C26   C28   1.421631 A    
C10   C21   1.481175 S    
C27   C29   1.405898 A    
C7    H5    1.083304 S    
C28   C30   1.405898 A    
C31   H19   1.081614 S    
C11   C13   1.398049 A    
Cu2   N1    1.962875 S    
C12   C14   1.398048 A    
N4    O12   1.301562 A    
C23   C25   1.408335 A    
H13   C33   1.082682 S    
C5    C7    1.399123 A    
C30   C32   1.395114 A    
H14   C34   1.082694 S    
C25   C27   1.421694 A    
C14   H10   1.082473 S    
O7    Cu2   1.969278 S    
C25   N3    1.442865 S    
C1    C38   1.449872 S    
C36   C39   1.384468 A    
C24   C26   1.408308 A    
O6    C4    1.273491 A    
N3    O10   1.301633 A    
O7    C3    1.269146 A    
O3    Cu2   1.971247 S    
O8    C4    1.269152 A    
O4    C2    1.268680 A    
C29   H17   1.083572 S    
C8    H6    1.083305 S    
O1    Cu1   1.966196 S    
C7    C9    1.404918 A    
O6    Cu2   1.966575 S    
C6    C8    1.399127 A    
C10   C12   1.404246 A    
N4    O11   1.301202 A    
O3    C1    1.268677 A    
O8    Cu1   1.969277 S    
C9    C11   1.404241 A    
C35   C40   1.384474 A    
C31   C33   1.392818 A    
C32   C34   1.392871 A    
C17   C22   1.385819 A    
C12   H8    1.082317 S    
C18   C21   1.385831 A    
C17   H11   1.085081 S    
H2    C16   1.082340 S    
C18   H12   1.085081 S    
C36   C38   1.398662 A    
C35   C37   1.398663 A    
C13   C15   1.397462 A    
C5    H3    1.081811 S    
C30   H18   1.083590 S    
C6    H4    1.081804 S    
C17   C19   1.399404 A    
O2    Cu2   1.966196 S    
O5    Cu1   1.966576 S    
Cu1   N2    1.962876 S    
C8    C10   1.404925 A    
C38   C40   1.413503 A    
C5    C15   1.398307 A    
C26   N4    1.442780 S    
C27   C40   1.483558 S    
C6    C16   1.398307 A    
