data_mof_unit_67051.cif
_audit_creation_date              2013-03-05T15:58:16-0500
_audit_creation_method            fapswitch 2.2
_symmetry_space_group_name_H-M    P1
_symmetry_Int_Tables_number       1
_space_group_crystal_system       triclinic
_cell_length_a                    8.315178
_cell_length_b                    12.878912
_cell_length_c                    14.202074
_cell_angle_alpha                 93.435997
_cell_angle_beta                  90.205455
_cell_angle_gamma                 99.172992
_cell_volume                      1498.62404125

loop_
_atom_site_label
_atom_site_type_symbol
_atom_site_description
_atom_site_fract_x
_atom_site_fract_y
_atom_site_fract_z
_atom_type_partial_charge
P1    P     P_3+3 0.054400 0.427280 0.286870 0.482233
O1    O     O_2   0.887370 0.460630 0.272300 -0.390222
O2    O     O_3   0.129410 0.451380 0.388510 -0.367575
O3    O     O_3   0.670210 0.653170 0.329170 -0.365258
O4    O     O_2   0.777558 0.585305 0.164419 -0.334402
O5    O     O_3   0.032756 0.292455 0.252542 -0.595650
O6    O     O_3   0.723052 0.779291 0.171152 -0.450261
H1    H     H_    0.666004 0.890499 0.269781 0.074795
C1    C     C_3   0.600868 0.927083 0.129607 -0.147207
H2    H     H_    0.531131 0.988116 0.158475 0.148439
H3    H     H_    0.723125 0.966100 0.109659 0.169375
P2    P     P_3+3 0.668300 0.742890 0.573060 0.467195
P3    P     P_3+3 0.139917 0.841884 0.384206 0.506004
O7    O     O_2   0.845380 0.761330 0.544970 -0.369697
O8    O     O_3   0.088930 0.704860 0.376040 -0.343441
O9    O     O_2   0.043135 0.882204 0.467002 -0.355607
O10   O     O_3   0.676661 0.767333 0.695753 -0.555923
O11   O     O_3   0.055461 0.893829 0.287917 -0.493419
C2    C     C_3   0.155911 0.887860 0.209296 0.828650
H4    H     H_    0.286609 0.910877 0.228540 -0.063384
C3    C     C_3   0.113696 0.963569 0.138989 -0.814376
H5    H     H_    0.990275 0.936411 0.108370 0.255528
H6    H     H_    0.115517 0.041405 0.176096 0.265538
C4    C     C_3   0.218720 0.759726 0.655167 0.313691
H7    H     H_    0.327016 0.735737 0.620561 0.030041
H8    H     H_    0.112854 0.742908 0.606153 0.127458
C5    C     C_3   0.249901 0.877125 0.681740 -0.114079
H9    H     H_    0.372356 0.898674 0.714959 0.139198
H10   H     H_    0.245141 0.922495 0.618209 0.135689
Ba1   Ba    Ba6+2 0.855630 0.555280 0.454520 1.617779
C6    C     C_3   0.913173 0.228826 0.300902 0.768639
H11   H     H_    0.837093 0.273609 0.346389 0.076697
C7    C     C_3   0.809991 0.155041 0.228463 -0.949357
H12   H     H_    0.743801 0.198226 0.180516 0.255945
H13   H     H_    0.722917 0.096771 0.264823 0.239736
H14   H     H_    0.888679 0.112184 0.183324 0.257883
C8    C     C_3   0.717954 0.680264 0.738786 0.411782
H15   H     H_    0.843849 0.670331 0.719704 0.094831
H16   H     H_    0.630707 0.607665 0.718297 0.110379
C9    C     C_3   0.709613 0.700274 0.845176 -0.844897
H17   H     H_    0.791529 0.774138 0.868487 0.305376
H18   H     H_    0.746856 0.634272 0.881988 0.205713
H19   H     H_    0.582730 0.707462 0.864946 0.267483
P4    P     P_3+3 0.135310 0.572810 0.713130 0.489340
O12   O     O_2   0.302330 0.539400 0.727760 -0.368525
O13   O     O_3   0.060300 0.548700 0.611500 -0.382474
O14   O     O_3   0.519500 0.346920 0.670840 -0.344108
O15   O     O_3   0.187640 0.707716 0.738184 -0.525866
P5    P     P_3+3 0.056606 0.158697 0.631433 0.553558
O16   O     O_3   0.614310 0.373510 0.452640 -0.336724
O17   O     O_3   0.100780 0.295230 0.623970 -0.322961
O18   O     O_2   0.190492 0.112754 0.574790 -0.344899
O19   O     O_3   0.093859 0.133549 0.748343 -0.479633
Ba2   Ba    Ba6+2 0.334200 0.444810 0.545490 1.618712
P6    P     P_3+3 0.653619 0.652234 0.206440 0.532794
C10   C     C_3   0.615321 0.847413 0.203376 0.306944
H20   H     H_    0.490515 0.806791 0.218160 0.035887
O20   O     O_3   0.575400 0.626570 0.547370 -0.399540
C11   C     C_3   0.431932 0.280481 0.254881 0.753003
H21   H     H_    0.331563 0.306729 0.296257 0.104925
C12   C     C_3   0.551155 0.374164 0.226488 -0.918538
H22   H     H_    0.662593 0.348500 0.198817 0.255080
H23   H     H_    0.499710 0.410512 0.167406 0.212038
H24   H     H_    0.579326 0.432627 0.287031 0.267230
P7    P     P_3+3 0.525504 0.240170 0.424311 0.467069
O21   O     O_2   0.344320 0.238700 0.455090 -0.323730
O22   O     O_3   0.513262 0.210612 0.301960 -0.610201
H25   H     H_    0.203305 0.970361 0.081059 0.278813
C13   C     C_3   0.038923 0.210242 0.809021 0.450351
H26   H     H_    0.117861 0.287733 0.803756 0.132160
H27   H     H_    0.911006 0.217766 0.792769 0.008948
C14   C     C_3   0.047706 0.177823 0.909964 -0.826540
H28   H     H_    0.175395 0.171961 0.929081 0.310267
H29   H     H_    0.003937 0.236853 0.959343 0.206442
H30   H     H_    0.970270 0.100154 0.917246 0.264315
P8    P     P_3+3 0.534178 0.352115 0.794466 0.476477
C15   C     C_3   0.537410 0.151932 0.770943 0.409597
H31   H     H_    0.653550 0.185617 0.738292 0.030839
O23   O     O_2   0.402847 0.414025 0.834486 -0.403172
O24   O     O_3   0.472046 0.224843 0.831297 -0.489822
H32   H     H_    0.447811 0.121396 0.713709 0.130952
H33   H     H_    0.658388 0.090885 0.885949 0.262347
C16   C     C_3   0.571337 0.060970 0.827348 -0.874938
H34   H     H_    0.625482 0.003436 0.781066 0.227371
H35   H     H_    0.456317 0.021008 0.857292 0.312676
C17   C     C_R   0.987763 0.442227 0.061638 -0.101950
C18   C     C_R   0.181168 0.500501 0.197080 0.307792
C19   C     C_R   0.331343 0.557063 0.227840 -0.463162
C20   C     C_R   0.446654 0.598694 0.163405 0.207737
C21   C     C_R   0.407374 0.593538 0.067400 -0.200540
C22   C     C_R   0.251813 0.546011 0.034635 0.083720
C23   C     C_R   0.139176 0.494371 0.098454 0.030189
H36   H     H_    0.364189 0.561522 0.301937 0.162340
C24   C     C_R   0.054604 0.502535 0.903151 -0.022109
C25   C     C_R   0.943022 0.448317 0.966357 0.057850
C26   C     C_R   0.006250 0.506550 0.806676 0.225304
C27   C     C_R   0.847311 0.464003 0.779430 -0.485652
C28   C     C_R   0.738006 0.411096 0.840711 0.255422
C29   C     C_R   0.785811 0.402025 0.933979 -0.320713
C30   C     C_R   0.208110 0.551278 0.939178 -0.046334
H37   H     H_    0.498065 0.627031 0.018565 0.170003
H38   H     H_    0.699942 0.360348 0.981345 0.175013
H39   H     H_    0.805258 0.476778 0.710058 0.185539
H40   H     H_    0.901317 0.398314 0.106672 0.150838
H41   H     H_    0.294190 0.596002 0.894300 0.168831
C31   C     C_R   0.753924 0.175523 0.546976 -0.023698
C32   C     C_R   0.441035 0.812589 0.455732 -0.477264
C33   C     C_R   0.415850 0.991909 0.425865 -0.198639
C34   C     C_R   0.354457 0.884972 0.417928 0.129010
C35   C     C_R   0.582966 0.846058 0.509743 0.287442
C36   C     C_R   0.645596 0.956723 0.520728 -0.057038
C37   C     C_R   0.560425 0.030015 0.476885 -0.081717
C38   C     C_R   0.616688 0.140106 0.489373 0.164699
C39   C     C_R   0.848437 0.105396 0.582510 0.174335
C40   C     C_R   0.790712 0.996744 0.572603 -0.212792
H42   H     H_    0.343230 0.044733 0.396555 0.208188
H43   H     H_    0.861585 0.944984 0.604788 0.219778
H44   H     H_    0.389391 0.729789 0.450157 0.162804
Br1   Br    Br    0.087296 0.910628 0.771717 -0.445823
Br2   Br    Br    0.020803 0.139241 0.374530 -0.501106
Br3   Br    Br    0.490552 0.860636 0.016165 -0.532900
Br4   Br    Br    0.341752 0.208783 0.138280 -0.602359
Br5   Br    Br    0.113763 0.748759 0.147688 -0.456947
Br6   Br    Br    0.808869 0.321446 0.581055 -0.443881

loop_
_geom_bond_atom_site_label_1
_geom_bond_atom_site_label_2
_geom_bond_distance
_ccdc_geom_bond_type
P1    C18   1.861014 S    
C18   C19   1.395972 A    
C5    H10   1.107885 S    
C2    H4    1.108649 S    
P8    O23   1.542422 D    
O6    P6    1.749664 S    
O19   C13   1.404113 S    
H1    C10   1.111214 S    
P5    O17   1.747795 S    
P2    C35   1.875303 S    
C39   C40   1.403578 A    
C15   H31   1.108873 S    
C33   C34   1.388127 A    
Ba1   Ba2   4.638693 S    
C2    Br5   1.925475 S    
C30   H41   1.079899 S    
O16   Ba2   2.926755 S    
P3    O11   1.750254 S    
C31   C39   1.402186 A    
C2    C3    1.514696 S    
C4    H8    1.105956 S    
O14   P8    1.756075 S    
O11   C2    1.402569 S    
C8    C9    1.521185 S    
C13   H26   1.110353 S    
O2    Ba2   2.814009 S    
C25   C29   1.410707 A    
C15   C16   1.519843 S    
P8    C28   1.844629 S    
C28   C29   1.398507 A    
C7    H14   1.104295 S    
C10   H20   1.111935 S    
C12   H23   1.102063 S    
P1    O1    1.534630 D    
C13   H27   1.108063 S    
C35   C36   1.436313 A    
P3    C34   1.834707 S    
C11   O22   1.406051 S    
C9    H19   1.109361 S    
C36   C37   1.435505 A    
C40   H43   1.077245 S    
P2    O10   1.751172 S    
C1    Br3   1.934757 S    
C4    C5    1.517107 S    
C24   C30   1.409425 A    
C22   C30   1.410634 A    
C1    H2    1.109331 S    
C32   H44   1.082341 S    
P2    O20   1.592976 S    
C11   Br4   1.935009 S    
C9    H18   1.108064 S    
O5    C6    1.394467 S    
Ba1   O16   2.828766 S    
C17   H40   1.078262 S    
C11   H21   1.107139 S    
C3    H5    1.108497 S    
C32   C34   1.395263 A    
C24   C25   1.424346 A    
O6    C10   1.409619 S    
O7    Ba1   2.892027 S    
C14   H30   1.110590 S    
C37   C38   1.420703 A    
P4    O13   1.564224 S    
C27   C28   1.388201 A    
C11   C12   1.510286 S    
C31   C38   1.400766 A    
P1    O5    1.755962 S    
C4    O15   1.395412 S    
C4    H7    1.105256 S    
C14   H29   1.108319 S    
C22   C23   1.421542 A    
P7    O22   1.755490 S    
C33   C37   1.405032 A    
P1    O2    1.564343 S    
O2    Ba1   2.947574 S    
C21   H37   1.082436 S    
C8    H15   1.107372 S    
P4    C26   1.870578 S    
C16   H34   1.110810 S    
C15   H32   1.111015 S    
P5    O18   1.547922 D    
C26   C27   1.391638 A    
O13   Ba2   2.948347 S    
C6    C7    1.521215 S    
C7    H12   1.102827 S    
C1    C10   1.527138 S    
O10   C8    1.397237 S    
C24   C26   1.432754 A    
C1    H3    1.105653 S    
C27   H39   1.074868 S    
O14   Ba2   2.828672 S    
C9    H17   1.110200 S    
C16   H35   1.110261 S    
P2    O7    1.512529 D    
O12   Ba2   2.825780 S    
P7    O21   1.567750 D    
P3    O8    1.744704 S    
C3    H25   1.109937 S    
C32   C35   1.399531 A    
C13   C14   1.521695 S    
P4    O12   1.535011 D    
O8    Ba1   2.792508 S    
Ba2   O20   2.828099 S    
C15   O24   1.407644 S    
C19   H36   1.082120 S    
P2    Ba1   3.439461 S    
P7    C38   1.881151 S    
O4    P6    1.545056 D    
C6    H11   1.106692 S    
P8    O24   1.749853 S    
C14   H28   1.110271 S    
Ba2   O21   2.892250 S    
C5    Br1   1.944110 S    
Ba1   O13   2.813425 S    
O1    Ba1   2.825273 S    
O17   Ba2   2.793094 S    
C33   H42   1.078824 S    
C3    H6    1.102104 S    
O3    P6    1.747145 S    
C17   C23   1.411786 A    
C12   H24   1.107173 S    
C21   C22   1.404806 A    
P5    O19   1.746542 S    
Ba1   O20   2.927547 S    
P1    Ba1   3.397768 S    
C7    H13   1.109033 S    
P5    C39   1.872314 S    
C12   H22   1.098642 S    
P6    C20   1.836919 S    
O16   P7    1.779588 S    
C6    Br2   1.921631 S    
C17   C25   1.412132 A    
P4    Ba2   3.398238 S    
C29   H38   1.083966 S    
C19   C20   1.394802 A    
C8    H16   1.111215 S    
H33   C16   1.110567 S    
P3    O9    1.538438 D    
C31   Br6   1.894859 S    
C5    H9    1.107766 S    
C36   C40   1.419255 A    
C20   C21   1.396126 A    
C18   C23   1.436851 A    
O3    Ba1   2.829285 S    
P4    O15   1.737355 S    
