data_mof_unit_41932.cif
_audit_creation_date              2012-12-10T17:11:58-0500
_audit_creation_method            fapswitch 2.2
_symmetry_space_group_name_H-M    P1
_symmetry_Int_Tables_number       1
_space_group_crystal_system       triclinic
_cell_length_a                    11.661222
_cell_length_b                    13.003981
_cell_length_c                    15.83601
_cell_angle_alpha                 92.190023
_cell_angle_beta                  73.980057
_cell_angle_gamma                 99.842785
_cell_volume                      2274.07543929

loop_
_atom_site_label
_atom_site_type_symbol
_atom_type_description
_atom_site_fract_x
_atom_site_fract_y
_atom_site_fract_z
_atom_type_partial_charge
C1    C     C_R   0.520784 0.700869 0.501301 0.810416
C2    C     C_R   0.348498 0.015359 0.490546 -0.214362
C3    C     C_R   0.640711 0.876553 0.508857 -0.194495
C4    C     C_R   0.359289 0.123447 0.491143 -0.194492
C5    C     C_R   0.435455 0.860786 0.496106 -0.266282
C6    C     C_R   0.564544 0.139214 0.503894 -0.266281
C7    C     C_R   0.445560 0.968800 0.496644 0.175594
C8    C     C_R   0.554440 0.031200 0.503356 0.175594
C9    C     C_R   0.939993 0.595674 0.582671 -0.349396
C10   C     C_R   0.060007 0.404326 0.417329 -0.349399
C11   C     C_R   0.821718 0.586629 0.574588 0.080877
C12   C     C_R   0.479216 0.299131 0.498699 0.810422
C13   C     C_R   0.178282 0.413371 0.425411 0.080879
C14   C     C_R   0.859860 0.458701 0.464245 0.019820
C15   C     C_R   0.140140 0.541298 0.535755 0.019833
C16   C     C_R   0.426828 0.495209 0.668235 0.801779
C17   C     C_R   0.573172 0.504794 0.331764 0.801781
C18   C     C_R   0.979792 0.465268 0.469946 0.072302
C19   C     C_R   0.020208 0.534732 0.530054 0.072303
C20   C     C_R   0.383782 0.495327 0.764558 -0.062472
C21   C     C_R   0.616216 0.504679 0.235440 -0.062482
C22   C     C_R   0.226056 0.498984 0.900170 -0.184288
C23   C     C_R   0.350867 0.459721 0.084785 0.181471
C24   C     C_R   0.773977 0.501159 0.099830 -0.184286
C25   C     C_R   0.263267 0.501314 0.808588 -0.187981
C26   C     C_R   0.736766 0.498827 0.191410 -0.187991
C27   C     C_R   0.466660 0.491467 0.813068 -0.239854
C28   C     C_R   0.533311 0.508431 0.186930 -0.239851
C29   C     C_R   0.434812 0.502794 0.904527 0.088991
C30   C     C_R   0.565181 0.497136 0.095466 0.088974
C31   C     C_R   0.310457 0.496415 0.948223 0.117292
C32   C     C_R   0.689554 0.503608 0.051774 0.117302
C33   C     C_R   0.521449 0.511024 0.953869 0.003220
C34   C     C_R   0.649122 0.540205 0.915197 0.181461
C35   C     C_R   0.478546 0.488880 0.046117 0.003223
C36   C     C_3   0.295112 0.395794 0.168376 -0.903550
C37   C     C_3   0.704847 0.604099 0.831586 -0.903490
C38   C     C_R   0.270137 0.476489 0.038037 -0.233818
C39   C     C_R   0.729866 0.523519 0.961957 -0.233808
C40   C     C_R   0.467261 0.185729 0.497874 -0.053342
C41   C     C_R   0.532738 0.814271 0.502126 -0.053340
C42   C     C_R   0.651502 0.984641 0.509454 -0.214362
Cu1   Cu    Cu3+1 0.386820 0.492450 0.493500 0.935626
Cu2   Cu    Cu3+1 0.613180 0.507550 0.506500 0.935619
H1    H     H_    0.173585 0.461350 0.069774 0.145834
H2    H     H_    0.197341 0.504196 0.772501 0.149179
H3    H     H_    0.130959 0.496616 0.933390 0.125053
H4    H     H_    0.869094 0.503640 0.066613 0.125048
H5    H     H_    0.648260 0.186814 0.509050 0.152797
H6    H     H_    0.351740 0.813186 0.490950 0.152797
H7    H     H_    0.283197 0.158129 0.486348 0.157262
H8    H     H_    0.716803 0.841870 0.513652 0.157260
H9    H     H_    0.735433 0.031673 0.514657 0.135545
H10   H     H_    0.264566 0.968327 0.485343 0.135545
H11   H     H_    0.172463 0.594367 0.581719 0.115277
H12   H     H_    0.826419 0.538711 0.930224 0.145822
H13   H     H_    0.827537 0.405633 0.418281 0.115292
H14   H     H_    0.361291 0.355580 0.186882 0.241019
H15   H     H_    0.253081 0.445678 0.222611 0.230844
H16   H     H_    0.222900 0.332431 0.158740 0.233175
H17   H     H_    0.746854 0.554195 0.777359 0.230860
H18   H     H_    0.638655 0.644303 0.813086 0.241035
H19   H     H_    0.777070 0.667473 0.841189 0.233136
H20   H     H_    0.239590 0.366047 0.384768 0.129634
H21   H     H_    0.760410 0.633953 0.615231 0.129645
H22   H     H_    0.968329 0.649835 0.629603 0.138848
H23   H     H_    0.031671 0.350165 0.370397 0.138853
H24   H     H_    0.444680 0.524429 0.221129 0.178306
H25   H     H_    0.555258 0.475383 0.778875 0.178282
H26   H     H_    0.802717 0.496057 0.227496 0.149205
N1    N     N_R   0.216750 0.481110 0.483710 -0.178209
N2    N     N_R   0.783250 0.518890 0.516290 -0.178212
O1    O     O_R   0.419950 0.645670 0.495380 -0.588495
O2    O     O_R   0.580050 0.354330 0.504620 -0.588494
O3    O     O_R   0.611110 0.658410 0.506370 -0.590167
O4    O     O_R   0.388890 0.341590 0.493630 -0.590164
O5    O     O_R   0.350820 0.490050 0.621260 -0.584395
O6    O     O_R   0.649180 0.509950 0.378740 -0.584399
O7    O     O_R   0.541970 0.502800 0.632250 -0.589083
O8    O     O_R   0.458030 0.497200 0.367750 -0.589090

loop_
_geom_bond_atom_site_label_1
_geom_bond_atom_site_label_2
_ccdc_geom_bond_type
Cu1   O1    S    
C21   C26   A    
C3    C42   A    
C12   O2    A    
C27   C29   A    
C34   C37   S    
C14   C18   A    
C2    C7    A    
C36   H15   S    
C37   H18   S    
C7    C8    A    
C10   H23   S    
C15   C19   A    
C30   C35   A    
C28   H24   S    
C24   C26   A    
C18   C19   A    
C36   H14   S    
C42   H9    S    
C20   C25   A    
C29   C33   A    
C16   O5    A    
C32   C39   A    
C9    H22   S    
C38   H1    S    
C9    C19   A    
C4    C40   A    
C22   C25   A    
C27   H25   S    
C22   H3    S    
C37   H19   S    
C22   C31   A    
C4    H7    S    
C34   C39   A    
C24   H4    S    
C2    H10   S    
C5    C7    A    
C11   N2    A    
C6    C8    A    
C13   N1    A    
Cu1   O8    S    
C17   O8    A    
C17   C21   S    
C1    O3    A    
C12   C40   S    
Cu2   O3    S    
C2    C4    A    
Cu1   Cu2   S    
C24   C32   A    
C39   H12   S    
C16   C20   S    
C33   C34   A    
Cu2   O2    S    
C9    C11   A    
C1    C41   S    
C21   C28   A    
C23   C35   A    
C12   O4    A    
C26   H26   S    
C6    C40   A    
C5    H6    S    
Cu1   O4    S    
C14   H13   S    
C5    C41   A    
C3    C41   A    
Cu1   N1    S    
C14   N2    A    
Cu2   O7    S    
C8    C42   A    
C36   H16   S    
C10   C13   A    
C37   H17   S    
C3    H8    S    
C20   C27   A    
Cu1   O5    S    
C23   C38   A    
C15   N1    A    
C31   C38   A    
C16   O7    A    
C1    O1    A    
Cu2   O6    S    
C29   C31   A    
C30   C32   A    
C13   H20   S    
C10   C18   A    
C28   C30   A    
C17   O6    A    
C33   C35   A    
Cu2   N2    S    
C6    H5    S    
C23   C36   S    
C25   H2    S    
C11   H21   S    
C15   H11   S    
