data_mof_unit_32679.cif
_audit_creation_date              2012-12-11T16:11:06-0500
_audit_creation_method            fapswitch 2.2
_symmetry_space_group_name_H-M    P1
_symmetry_Int_Tables_number       1
_space_group_crystal_system       triclinic
_cell_length_a                    12.841546
_cell_length_b                    13.317673
_cell_length_c                    26.977988
_cell_angle_alpha                 97.454027
_cell_angle_beta                  90.246493
_cell_angle_gamma                 118.729523
_cell_volume                      3999.80480517

loop_
_atom_site_label
_atom_site_type_symbol
_atom_type_description
_atom_site_fract_x
_atom_site_fract_y
_atom_site_fract_z
_atom_type_partial_charge
C1    C     C_R   0.627806 0.894705 0.424332 0.544021
C2    C     C_R   0.595602 0.357533 0.231336 0.159595
C3    C     C_R   0.595966 0.353118 0.283138 -0.076620
C4    C     C_R   0.668906 0.316715 0.305412 -0.069749
C5    C     C_R   0.683020 0.343789 0.204140 -0.041735
C6    C     C_1   0.693295 0.364350 0.152950 0.120913
C7    C     C_1   0.655041 0.297727 0.356911 0.048492
C8    C     C_1   0.702535 0.391132 0.111767 0.106904
C9    C     C_1   0.113169 0.805413 0.135241 0.028623
C10   C     C_1   0.139504 0.823795 0.179579 -0.002526
C11   C     C_1   0.159777 0.836709 0.231902 0.035235
C12   C     C_R   0.601876 0.223645 0.443341 0.548798
C13   C     C_1   0.174335 0.843731 0.276549 0.033348
C14   C     C_1   0.194520 0.850732 0.328514 -0.008628
C15   C     C_1   0.220702 0.859170 0.372289 0.021246
C16   C     C_1   0.689962 0.799319 0.136269 0.044962
C17   C     C_1   0.673609 0.809227 0.180085 0.031824
C18   C     C_1   0.662375 0.818487 0.232146 0.080698
C19   C     C_1   0.656366 0.827364 0.276854 0.073599
C20   C     C_1   0.650317 0.842022 0.329196 0.010418
C21   C     C_1   0.642811 0.861283 0.373471 0.020525
C22   C     C_1   0.694394 0.385852 0.874591 0.040217
C23   C     C_R   0.268441 0.875610 0.422455 0.545198
C24   C     C_1   0.686202 0.360608 0.829760 0.033844
C25   C     C_1   0.678468 0.341217 0.777003 0.097887
C26   C     C_1   0.670193 0.326665 0.731916 0.098775
C27   C     C_1   0.655625 0.305164 0.679195 0.048380
C28   C     C_1   0.636359 0.277078 0.634508 0.061338
C29   C     C_1   0.216404 0.862830 0.608465 0.061095
C30   C     C_R   0.211715 0.766788 0.724393 0.269876
C31   C     C_R   0.185131 0.747842 0.774404 0.207768
C32   C     C_R   0.108037 0.885656 0.780471 0.237969
C33   C     C_R   0.119906 0.891211 0.729545 -0.146451
C34   C     C_R   0.631000 0.898548 0.563679 0.556491
C35   C     C_R   0.171986 0.833837 0.701845 -0.059128
C36   C     C_R   0.142701 0.815612 0.803124 -0.036213
C37   C     C_1   0.127675 0.808326 0.855309 0.113975
C38   C     C_1   0.189590 0.849381 0.650494 0.042459
C39   C     C_1   0.104893 0.794334 0.897643 0.102154
C40   C     C_1   0.651269 0.865192 0.609229 0.059990
C41   C     C_R   0.694276 0.926817 0.739839 0.250301
C42   C     C_R   0.686702 0.911609 0.790123 -0.042376
C43   C     C_R   0.618944 0.705937 0.766665 0.022622
C44   C     C_R   0.627226 0.720218 0.715703 -0.017406
C45   C     C_R   0.603174 0.227519 0.582886 0.557658
C46   C     C_R   0.664626 0.830865 0.702401 0.014772
C47   C     C_R   0.649141 0.802525 0.803633 0.016230
C48   C     C_1   0.657341 0.794468 0.855864 0.025723
C49   C     C_1   0.660791 0.845364 0.650634 0.042015
C50   C     C_1   0.675631 0.787106 0.898503 0.051589
C51   C     C_R   0.065178 0.771747 0.084228 0.547498
C52   C     C_R   0.716006 0.438599 0.066472 0.547614
C53   C     C_R   0.720479 0.782351 0.086132 0.547874
C54   C     C_R   0.059664 0.764790 0.944473 0.548170
C55   C     C_R   0.709581 0.432353 0.926548 0.546694
C56   C     C_R   0.267601 0.879321 0.561716 0.555387
C57   C     C_R   0.712332 0.775006 0.946157 0.551275
C58   C     C_1   0.635124 0.271753 0.398143 0.060613
C59   C     C_R   0.747430 0.290692 0.276887 0.243626
C60   C     C_R   0.765008 0.318820 0.227585 0.208776
Cr1   Cr    Cr6+3 0.416010 0.828400 0.490230 1.083538
Cr2   Cr    Cr6+3 0.676380 0.087280 0.505260 1.099087
Cr3   Cr    Cr6+3 0.407590 0.084280 0.504540 1.074904
Cr4   Cr    Cr6+3 0.914090 0.832340 0.018020 1.091401
Cr5   Cr    Cr6+3 0.923310 0.576840 0.003860 1.092571
Cr6   Cr    Cr6+3 0.654200 0.573160 0.004700 1.100055
H1    H     H_    0.711299 0.985243 0.819113 0.168125
H2    H     H_    0.091470 0.942993 0.711466 0.172823
O1    O     O_R   0.294740 0.800910 0.434410 -0.488443
O2    O     O_R   0.664100 0.185180 0.560770 -0.474740
O3    O     O_R   0.500290 0.202770 0.565360 -0.494916
O4    O     O_R   0.310570 0.979360 0.548520 -0.495894
O5    O     O_3   0.499990 0.999990 0.500010 -0.271183
O6    O     O_R   0.819910 0.858260 0.073860 -0.488460
O7    O     O_R   0.018180 0.827180 0.067430 -0.491787
O8    O     O_R   0.044260 0.672570 0.062730 -0.492039
O9    O     O_R   0.818270 0.481940 0.049130 -0.491692
O10   O     O_R   0.635480 0.460400 0.052590 -0.472397
O11   O     O_R   0.662650 0.681410 0.060750 -0.484424
O12   O     O_R   0.526010 0.837250 0.440870 -0.487003
O13   O     O_R   0.814500 0.852290 0.965490 -0.485788
O14   O     O_R   0.013160 0.821640 0.966980 -0.488137
O15   O     O_R   0.038850 0.666600 0.954370 -0.476959
O16   O     O_R   0.813260 0.476410 0.948680 -0.485787
O17   O     O_R   0.630060 0.454430 0.944230 -0.490792
O18   O     O_R   0.657630 0.675880 0.960300 -0.492024
O19   O     O_3   0.830530 0.660780 0.008860 -0.283438
O20   O     O_R   0.704290 0.994500 0.446090 -0.508774
O21   O     O_R   0.662870 0.181760 0.460430 -0.483061
O22   O     O_R   0.498970 0.199080 0.457120 -0.503146
O23   O     O_R   0.309350 0.975930 0.448180 -0.495868
O24   O     O_R   0.296060 0.804610 0.542650 -0.489457
O25   O     O_R   0.527240 0.840670 0.541200 -0.506663
O26   O     O_R   0.705610 0.998200 0.554330 -0.468522
S1    S     S_3+6 0.817254 0.218472 0.302478 0.068885
O27   O     O_2   0.844285 0.147841 0.261816 -0.196174
O28   O     O_2   0.931037 0.307903 0.332039 -0.234054
O29   O     O_3   0.728152 0.127817 0.340579 -0.551493
H3    H     H_    0.781965 0.114311 0.361803 0.372907
C61   C     C_1   0.578343 0.592517 0.781060 0.249558
N1    N     N_1   0.545448 0.501989 0.792627 -0.270214
C62   C     C_1   0.595225 0.621377 0.677168 0.230180
N2    N     N_1   0.569686 0.542473 0.646438 -0.267433
S2    S     S_3+6 0.891424 0.329924 0.195791 0.075427
O30   O     O_2   0.993758 0.358119 0.232326 -0.158735
O31   O     O_2   0.856329 0.216630 0.162984 -0.246524
O32   O     O_3   0.938624 0.435678 0.159822 -0.544485
H4    H     H_    0.999752 0.427775 0.140019 0.379695
S3    S     S_3+6 0.490588 0.386731 0.201099 0.039390
O33   O     O_2   0.547549 0.514742 0.199984 -0.245073
O34   O     O_2   0.455810 0.324309 0.148154 -0.272850
O35   O     O_3   0.365567 0.345562 0.231425 -0.440219
H5    H     H_    0.328620 0.260168 0.228287 0.349013
C63   C     C_1   0.521740 0.385822 0.314044 0.278563
N3    N     N_1   0.463040 0.412096 0.338976 -0.214648
S4    S     S_3+6 0.299364 0.714179 0.690477 0.075353
O36   O     O_2   0.376085 0.692676 0.724976 -0.217514
O37   O     O_2   0.217120 0.603170 0.657017 -0.238768
O38   O     O_3   0.390293 0.811444 0.655161 -0.522184
H6    H     H_    0.401270 0.764835 0.626070 0.367436
S5    S     S_3+6 0.195707 0.635396 0.800223 0.073850
O39   O     O_2   0.318066 0.684700 0.825887 -0.258969
O40   O     O_2   0.104838 0.587218 0.837780 -0.278640
O41   O     O_3   0.171032 0.524838 0.755160 -0.414598
H7    H     H_    0.193479 0.474927 0.771600 0.386003
S6    S     S_3+6 0.044342 0.962704 0.814735 0.009167
O42   O     O_2   0.015558 0.030579 0.781980 -0.279261
O43   O     O_2   0.932130 0.877774 0.835082 -0.316142
O44   O     O_3   0.141191 0.053841 0.862788 -0.498306
H8    H     H_    0.095208 0.082384 0.883941 0.379164
S7    S     S_3+6 0.737994 0.066400 0.724554 0.043775
O45   O     O_2   0.632334 0.063903 0.699091 -0.242110
O46   O     O_2   0.781224 0.156049 0.770787 -0.270075
O47   O     O_3   0.846893 0.102010 0.684977 -0.479998
H9    H     H_    0.910257 0.094438 0.702397 0.364769

loop_
_geom_bond_atom_site_label_1
_geom_bond_atom_site_label_2
_ccdc_geom_bond_type
C2    S3    S    
C1    C21   S    
S6    O42   D    
C45   O3    A    
C41   C42   A    
C23   O1    A    
S2    O30   D    
S1    O27   D    
C9    C51   S    
C34   O25   A    
S7    O47   S    
Cr6   O17   S    
S2    O31   D    
C63   N3    T    
S1    O29   S    
C30   S4    S    
C57   O18   A    
Cr6   O11   S    
C46   C49   S    
C26   C27   S    
Cr5   O8    S    
C30   C35   A    
C34   C40   S    
C32   C36   A    
C12   O22   A    
C36   C37   S    
C53   O11   A    
C51   O7    A    
S3    O34   D    
C5    C6    S    
Cr1   O25   S    
Cr5   O15   S    
C39   C54   S    
Cr1   O12   S    
C40   C49   T    
Cr2   O21   S    
S4    O36   D    
Cr2   O2    S    
C18   C19   T    
C32   S6    S    
C16   C53   S    
C54   O15   A    
S5    O41   S    
C19   C20   S    
C16   C17   T    
C56   O4    A    
C29   C38   T    
O32   H4    S    
Cr2   O5    S    
C9    C10   T    
C8    C52   S    
Cr4   O19   S    
Cr1   O24   S    
C12   C58   S    
C1    O20   A    
C15   C23   S    
C59   C60   A    
C13   C14   S    
C59   S1    S    
C4    C7    S    
C52   O10   A    
O35   H5    S    
C44   C46   A    
Cr5   O19   S    
Cr6   O10   S    
C28   C45   S    
Cr5   O9    S    
C12   O21   A    
C35   C38   S    
C24   C25   S    
C31   S5    S    
S3    O35   S    
Cr6   O19   S    
C41   S7    S    
C44   C62   S    
Cr5   O16   S    
C6    C8    T    
Cr3   O5    S    
S6    O44   S    
Cr1   O5    S    
C25   C26   T    
Cr2   O20   S    
C55   O17   A    
C43   C44   A    
C4    C59   A    
C47   C48   S    
C41   C46   A    
C20   C21   T    
C17   C18   S    
C43   C61   S    
Cr4   O14   S    
S5    O39   D    
C22   C55   S    
Cr3   O3    S    
S7    O45   D    
Cr2   O26   S    
C42   H1    S    
C22   C24   T    
C2    C5    A    
C3    C4    A    
C54   O14   A    
O44   H8    S    
Cr1   O1    S    
S6    O43   D    
C7    C58   T    
C5    C60   A    
C45   O2    A    
C14   C15   T    
C50   C57   S    
C34   O26   A    
S7    O46   D    
C3    C63   S    
Cr6   O18   S    
O38   H6    S    
S1    O28   D    
O47   H9    S    
C29   C56   S    
S4    O38   S    
C32   C33   A    
C2    C3    A    
C37   C39   T    
S3    O33   D    
C11   C13   T    
C30   C31   A    
Cr3   O22   S    
C48   C50   T    
C61   N1    T    
C33   C35   A    
Cr4   O7    S    
S4    O37   D    
C23   O23   A    
C42   C47   A    
C62   N2    T    
C57   O13   A    
Cr4   O13   S    
S5    O40   D    
C10   C11   S    
C56   O24   A    
Cr3   O4    S    
O29   H3    S    
Cr3   O23   S    
C51   O8    A    
C1    O12   A    
Cr4   O6    S    
C31   C36   A    
C55   O16   A    
C60   S2    S    
C43   C47   A    
S2    O32   S    
C52   O9    A    
C33   H2    S    
O41   H7    S    
C27   C28   T    
C53   O6    A    
