data_mof_unit_39115.cif
_audit_creation_date              2013-03-05T16:48:48-0500
_audit_creation_method            fapswitch 2.2
_symmetry_space_group_name_H-M    P1
_symmetry_Int_Tables_number       1
_space_group_crystal_system       triclinic
_cell_length_a                    10.986306
_cell_length_b                    11.010641
_cell_length_c                    13.073635
_cell_angle_alpha                 90.82706
_cell_angle_beta                  89.970916
_cell_angle_gamma                 90.636641
_cell_volume                      1581.20640579

loop_
_atom_site_label
_atom_site_type_symbol
_atom_site_description
_atom_site_fract_x
_atom_site_fract_y
_atom_site_fract_z
_atom_type_partial_charge
O1    O     O_R   0.499980 0.319630 0.578260 -0.568068
O2    O     O_R   0.500020 0.680370 0.421740 -0.568040
O3    O     O_R   0.500000 0.319650 0.421740 -0.590347
O4    O     O_R   0.500000 0.680350 0.578260 -0.590337
C1    C     C_R   0.492467 0.259493 0.499279 0.866934
C2    C     C_R   0.507512 0.740509 0.500720 0.866994
O5    O     O_R   0.319630 0.500000 0.578260 -0.520154
O6    O     O_R   0.680370 0.500000 0.421740 -0.520130
O7    O     O_R   0.319650 0.500020 0.421740 -0.612008
O8    O     O_R   0.680350 0.499980 0.578260 -0.611996
C3    C     C_R   0.259667 0.507782 0.500281 0.895367
C4    C     C_R   0.740328 0.492187 0.499718 0.895445
Cu1   Cu    Cu3+1 0.499990 0.499990 0.592680 1.052833
Cu2   Cu    Cu3+1 0.500010 0.500010 0.407320 1.052862
H1    H     H_    0.269840 0.651809 0.052067 0.156073
H2    H     H_    0.730057 0.347998 0.947872 0.156106
C5    C     C_R   0.222025 0.714463 0.203252 -0.158587
C6    C     C_R   0.777906 0.285385 0.796682 -0.158562
H3    H     H_    0.254903 0.805721 0.189149 0.199326
H4    H     H_    0.745004 0.194129 0.810761 0.199321
C7    C     C_R   0.168691 0.685321 0.297804 0.385847
C8    C     C_R   0.831262 0.314547 0.702140 0.385749
C9    C     C_R   0.124721 0.564938 0.312695 0.072389
C10   C     C_R   0.875261 0.434930 0.687284 0.072406
C11   C     C_R   0.136308 0.477915 0.233637 -0.119199
C12   C     C_R   0.863686 0.521925 0.766367 -0.119117
H5    H     H_    0.103670 0.385744 0.244261 0.159646
H6    H     H_    0.896349 0.614093 0.755771 0.159649
C13   C     C_R   0.188404 0.509280 0.140253 -0.130362
C14   C     C_R   0.811565 0.490539 0.859736 -0.130354
H7    H     H_    0.196100 0.441833 0.079600 0.158621
H8    H     H_    0.803874 0.557967 0.920406 0.158661
C15   C     C_R   0.230364 0.627522 0.124882 -0.177356
C16   C     C_R   0.769567 0.372302 0.875071 -0.177333
C17   C     C_R   0.936399 0.514708 0.407464 0.355602
C18   C     C_R   0.063593 0.485199 0.592529 0.355557
C19   C     C_R   0.873017 0.490510 0.499147 -0.227337
C20   C     C_R   0.126975 0.509419 0.500849 -0.227395
C21   C     C_R   0.937218 0.471876 0.591149 -0.094302
C22   C     C_R   0.062772 0.528025 0.408842 -0.094327
H9    H     H_    0.551143 0.240413 0.028244 0.148088
H10   H     H_    0.448130 0.759519 0.971671 0.147993
C23   C     C_R   0.428631 0.188205 0.148754 -0.138822
C24   C     C_R   0.570859 0.811974 0.851400 -0.138761
H11   H     H_    0.347529 0.204081 0.104138 0.138722
H12   H     H_    0.651870 0.796267 0.896176 0.138810
C25   C     C_R   0.418494 0.144913 0.248418 -0.059195
C26   C     C_R   0.581180 0.855279 0.751754 -0.059288
H13   H     H_    0.329226 0.125769 0.279909 0.156397
H14   H     H_    0.670495 0.874603 0.720436 0.156509
C27   C     C_R   0.523631 0.122497 0.305876 0.113445
C28   C     C_R   0.476153 0.877492 0.694097 0.113277
C29   C     C_R   0.638747 0.146638 0.263560 -0.080336
C30   C     C_R   0.360971 0.853133 0.736192 -0.080353
H15   H     H_    0.720522 0.128945 0.306864 0.166527
H16   H     H_    0.279279 0.870663 0.692729 0.166580
C31   C     C_R   0.648425 0.190005 0.163849 -0.090881
C32   C     C_R   0.351110 0.809740 0.835881 -0.090756
H17   H     H_    0.737230 0.207102 0.130828 0.155759
H18   H     H_    0.262249 0.792464 0.868730 0.155976
C33   C     C_R   0.543520 0.209084 0.106051 -0.116954
C34   C     C_R   0.455897 0.790864 0.893880 -0.117023
C35   C     C_R   0.525889 0.935439 0.408399 0.005263
C36   C     C_R   0.474065 0.064564 0.591595 0.005232
C37   C     C_R   0.509524 0.873311 0.501592 -0.137603
C38   C     C_R   0.490431 0.126691 0.498403 -0.137652
C39   C     C_R   0.486988 0.938436 0.593703 -0.070955
C40   C     C_R   0.512938 0.061565 0.406286 -0.070956
N1    N     N_1   0.500030 0.500030 0.268070 -0.123820
N2    N     N_1   0.499970 0.499970 0.731930 -0.123817
C41   C     C_1   0.500348 0.500305 0.173481 0.225497
C42   C     C_1   0.499656 0.499700 0.826519 0.225452
C43   C     C_1   0.500235 0.500244 0.050690 -0.105846
C44   C     C_1   0.499772 0.499768 0.949310 -0.105903
C45   C     C_2   0.560813 0.870234 0.312300 0.858399
O9    O     O_2   0.492574 0.869545 0.238420 -0.606810
O10   O     O_R   0.671923 0.810077 0.306989 -0.708944
H19   H     H_    0.685145 0.769809 0.237726 0.359857
C46   C     C_2   0.439123 0.129768 0.687689 0.858473
O11   O     O_2   0.507350 0.130457 0.761577 -0.606931
O12   O     O_R   0.328015 0.189927 0.692986 -0.708940
H20   H     H_    0.314784 0.230191 0.762249 0.359895
N3    N     N_R   0.158978 0.778565 0.375930 0.108444
O13   O     O_R   0.232138 0.872339 0.375120 -0.375490
O14   O     O_R   0.070698 0.776931 0.442293 -0.331785
N4    N     N_R   0.840959 0.221323 0.623993 0.108473
O15   O     O_R   0.767845 0.127507 0.624836 -0.375501
O16   O     O_R   0.929184 0.223018 0.557572 -0.331811
N5    N     N_R   0.873180 0.525663 0.311886 0.131995
O17   O     O_R   0.873576 0.628745 0.264549 -0.341403
O18   O     O_R   0.831700 0.428618 0.265156 -0.384487
N6    N     N_R   0.126811 0.474230 0.688106 0.132007
O19   O     O_R   0.126369 0.371154 0.735452 -0.341443
O20   O     O_R   0.168287 0.571270 0.734844 -0.384680

loop_
_geom_bond_atom_site_label_1
_geom_bond_atom_site_label_2
_geom_bond_distance
_ccdc_geom_bond_type
C32   C34   1.397930 A    
C38   C40   1.415760 A    
C35   C37   1.416268 A    
C43   C44   1.325360 T    
H9    C33   1.081735 S    
O7    Cu2   1.990344 S    
O12   H20   1.013581 S    
C25   H13   1.083169 S    
O10   H19   1.013588 S    
O5    C3    1.218642 A    
O1    C1    1.220892 A    
C17   C19   1.413092 A    
C10   C12   1.405921 A    
N4    O16   1.301194 A    
C31   H17   1.082364 S    
Cu1   N2    1.820507 S    
C32   H18   1.082346 S    
C9    C22   1.488665 S    
C13   C15   1.393562 A    
C4    C19   1.458095 S    
C10   C21   1.488690 S    
O4    Cu1   1.997513 S    
N1    C41   1.236673 T    
H2    C16   1.081782 S    
C2    C37   1.462041 S    
C7    N3    1.442473 S    
C28   C30   1.404324 A    
C37   C39   1.415755 A    
N5    O18   1.301253 A    
H10   C34   1.081716 S    
C18   N6    1.437154 S    
C26   H14   1.083150 S    
C20   C22   1.413352 A    
Cu1   Cu2   2.423332 S    
O2    C2    1.220879 A    
C5    C15   1.395730 A    
C24   H12   1.082393 S    
C29   H15   1.083141 S    
C7    C9    1.421734 A    
C11   C13   1.394419 A    
C30   H16   1.083126 S    
C14   C16   1.393568 A    
C36   C39   1.398230 A    
C42   C44   1.605310 S    
C46   O12   1.396478 S    
C29   C31   1.398327 A    
N4    O15   1.301640 A    
C25   C27   1.404256 A    
C24   C34   1.397903 A    
C5    C7    1.407434 A    
C36   C46   1.490191 S    
C27   C29   1.404363 A    
C36   C38   1.416252 A    
C3    C20   1.458115 S    
C45   O9    1.222884 D    
C45   O10   1.396487 S    
N3    O13   1.301572 A    
O5    Cu1   1.990536 S    
O6    C4    1.218635 A    
N6    O20   1.301252 A    
C23   H11   1.082411 S    
O3    Cu2   1.997513 S    
O8    C4    1.222283 A    
C17   N5    1.437157 S    
O4    C2    1.221192 A    
N3    O14   1.301117 A    
C12   C14   1.394431 A    
O7    C3    1.222280 A    
Cu2   N1    1.820508 S    
C8    C10   1.421768 A    
O1    Cu1   1.992096 S    
C23   C33   1.397934 A    
C41   C43   1.605311 S    
C30   C32   1.398318 A    
C35   C40   1.398243 A    
O6    Cu2   1.990533 S    
C6    C8    1.407459 A    
C18   C21   1.394596 A    
C28   C39   1.486812 S    
C1    C38   1.462037 S    
O3    C1    1.221184 A    
O8    Cu1   1.990344 S    
C31   C33   1.397947 A    
C11   H5    1.083391 S    
C12   H6    1.083395 S    
C18   C20   1.413112 A    
C17   C22   1.394576 A    
C13   H7    1.082486 S    
C14   H8    1.082489 S    
C35   C45   1.490200 S    
C6    C16   1.395731 A    
N6    O19   1.300540 A    
C5    H3    1.082277 S    
C6    H4    1.082283 S    
C27   C40   1.486840 S    
C8    N4    1.442507 S    
O2    Cu2   1.992094 S    
C46   O11   1.222878 D    
C26   C28   1.404235 A    
C9    C11   1.405913 A    
C19   C21   1.413340 A    
N2    C42   1.236673 T    
N5    O17   1.300538 A    
C23   C25   1.397838 A    
H1    C15   1.081758 S    
C24   C26   1.397828 A    
