data_mof_unit_20613.cif
_audit_creation_date              2012-12-11T16:34:07-0500
_audit_creation_method            fapswitch 2.2
_symmetry_space_group_name_H-M    P1
_symmetry_Int_Tables_number       1
_space_group_crystal_system       triclinic
_cell_length_a                    8.243817
_cell_length_b                    17.380098
_cell_length_c                    27.02476
_cell_angle_alpha                 95.575423
_cell_angle_beta                  92.528341
_cell_angle_gamma                 83.89192
_cell_volume                      3829.63451332

loop_
_atom_site_label
_atom_site_type_symbol
_atom_type_description
_atom_site_fract_x
_atom_site_fract_y
_atom_site_fract_z
_atom_type_partial_charge
Ba1   Ba    Ba6+2 0.856110 0.463800 0.523550 1.658312
Ba2   Ba    Ba6+2 0.333710 0.536130 0.476450 1.642142
C1    C     C_3   0.661579 0.187680 0.655622 -0.366454
C2    C     C_3   0.665653 0.266565 0.636160 0.342846
C3    C     C_3   0.502204 0.657418 0.627292 0.301913
C4    C     C_3   0.481831 0.687624 0.681659 -0.373093
C5    C     C_3   0.052816 0.703349 0.339552 0.341610
C6    C     C_3   0.065775 0.726395 0.287138 -0.324488
C7    C     C_3   0.510188 0.744271 0.361312 0.370000
C8    C     C_3   0.466076 0.822778 0.341129 -0.372488
C9    C     C_R   0.022807 0.445673 0.179489 0.597672
C10   C     C_R   0.908867 0.578004 0.177188 0.572583
C11   C     C_2   0.759222 0.551943 0.272104 -0.084118
C12   C     C_3   0.171572 0.290749 0.658074 0.285885
C13   C     C_3   0.739785 0.578020 0.326559 -0.048643
C14   C     C_1   0.984144 0.489981 0.343250 0.033672
C15   C     C_2   0.025344 0.486250 0.295613 -0.108654
C16   C     C_2   0.905056 0.516681 0.256356 0.192578
C17   C     C_R   0.025145 0.508202 0.101938 -0.079653
C18   C     C_R   0.064703 0.442765 0.128772 -0.035965
C19   C     C_R   0.144222 0.375443 0.104182 -0.060677
C20   C     C_R   0.946113 0.575977 0.126495 -0.024042
C21   C     C_2   0.850003 0.530550 0.360410 -0.292161
C22   C     C_2   0.351827 0.480973 0.641523 -0.280237
C23   C     C_3   0.151629 0.270186 0.710657 -0.342952
C24   C     C_R   0.192487 0.436935 0.975606 0.019712
C25   C     C_R   0.053361 0.569222 0.972211 0.020355
C26   C     C_R   0.142520 0.502210 0.948539 0.050136
C27   C     C_R   0.285902 0.372898 0.950592 -0.099957
C28   C     C_R   0.325890 0.372445 0.900924 -0.060762
C29   C     C_R   0.274616 0.435642 0.873539 -0.030961
C30   C     C_R   0.182342 0.500581 0.897239 -0.077789
C31   C     C_R   0.130473 0.564092 0.869693 -0.033690
C32   C     C_R   0.171374 0.562042 0.819173 0.589916
C33   C     C_R   0.314255 0.435142 0.822950 0.580172
C34   C     C_3   0.210452 0.300370 0.415600 0.392688
C35   C     C_2   0.459427 0.482811 0.729360 -0.072016
C36   C     C_3   0.500873 0.487999 0.675557 -0.052574
C37   C     C_1   0.210101 0.514237 0.657071 0.036656
C38   C     C_2   0.171317 0.514334 0.704379 -0.105729
C39   C     C_2   0.302161 0.496903 0.743710 0.201693
C40   C     C_R   0.148690 0.437947 0.026476 0.019808
C41   C     C_R   0.064458 0.506028 0.050549 0.049819
C42   C     C_R   0.019166 0.572123 0.023839 0.020320
C43   C     C_R   0.185539 0.373005 0.054437 -0.099242
C44   C     C_R   0.906593 0.641270 0.100074 -0.060656
C45   C     C_3   0.235235 0.212843 0.401563 0.290656
C46   C     C_R   0.000593 0.631221 0.943037 -0.100469
C47   C     C_R   0.038573 0.628646 0.893176 -0.061849
C48   C     C_R   0.941987 0.639535 0.050125 -0.102689
C49   C     C_R   0.409426 0.279068 0.520201 -0.295256
C50   C     C_R   0.551822 0.254838 0.494875 0.060552
C51   C     C_R   0.608958 0.175704 0.489065 -0.122670
C52   C     C_R   0.520892 0.120545 0.507673 -0.007613
C53   C     C_R   0.373480 0.145400 0.531703 -0.115495
C54   C     C_R   0.317519 0.224956 0.537419 0.016634
C55   C     C_R   0.587645 0.835273 0.506242 -0.112124
C56   C     C_3   0.993744 0.698509 0.580075 0.308831
C57   C     C_R   0.639710 0.755649 0.501652 0.041774
C58   C     C_R   0.874475 0.779043 0.457002 0.014117
C59   C     C_R   0.823610 0.859312 0.461280 -0.130041
C60   C     C_R   0.677966 0.887554 0.485527 -0.000100
C61   C     C_1   0.625331 0.970076 0.492623 -0.005909
C62   C     C_1   0.577925 0.038605 0.499517 -0.009882
C63   C     C_R   0.778048 0.727782 0.475227 -0.288035
C64   C     C_3   0.970255 0.786116 0.592682 -0.383209
C65   C     C_3   0.679610 0.371139 0.375459 0.307579
C66   C     C_3   0.681952 0.351814 0.319381 -0.359077
H1    H     H_    0.779732 0.265468 0.615626 0.102802
H2    H     H_    0.330905 0.187138 0.426910 -0.075471
H3    H     H_    0.278964 0.202034 0.362804 0.026706
H4    H     H_    0.875341 0.677373 0.568259 0.005265
H5    H     H_    0.079683 0.685272 0.549276 0.072664
H6    H     H_    0.878238 0.801102 0.621806 0.135734
H7    H     H_    0.927832 0.815675 0.559313 0.063087
H8    H     H_    0.087816 0.807447 0.606515 0.123861
H9    H     H_    0.800725 0.387094 0.389118 0.015983
H10   H     H_    0.585998 0.420922 0.383777 0.075598
H11   H     H_    0.664643 0.141769 0.623977 0.078215
H12   H     H_    0.780010 0.304429 0.309841 0.141498
H13   H     H_    0.704661 0.403640 0.300939 0.068575
H14   H     H_    0.562398 0.333026 0.305310 0.126622
H15   H     H_    0.558340 0.276541 0.610597 -0.032725
H16   H     H_    0.548063 0.186756 0.676126 0.123014
H17   H     H_    0.381849 0.642003 0.611723 0.029920
H18   H     H_    0.592360 0.605079 0.624881 0.034522
H19   H     H_    0.399316 0.742609 0.684420 0.139100
H20   H     H_    0.427519 0.644739 0.701928 0.076086
H21   H     H_    0.602340 0.698570 0.699403 0.125214
H22   H     H_    0.769028 0.175438 0.680963 0.134647
H23   H     H_    0.202752 0.314154 0.737646 0.132693
H24   H     H_    0.129525 0.647347 0.342857 0.087884
H25   H     H_    0.923290 0.696043 0.345422 -0.053906
H26   H     H_    0.184344 0.749167 0.282629 0.147443
H27   H     H_    0.058197 0.674622 0.260223 0.123827
H28   H     H_    0.965491 0.771772 0.278953 0.114513
H29   H     H_    0.645557 0.733001 0.362024 -0.068780
H30   H     H_    0.466836 0.747757 0.399900 0.075976
H31   H     H_    0.528570 0.867878 0.364301 0.066551
H32   H     H_    0.332478 0.839264 0.342088 0.147071
H33   H     H_    0.111265 0.350455 0.655279 0.079165
H34   H     H_    0.505684 0.820436 0.302215 0.120573
H35   H     H_    0.147521 0.462793 0.285104 0.133405
H36   H     H_    0.175549 0.323792 0.123471 0.121061
H37   H     H_    0.557936 0.473603 0.756834 0.104871
H38   H     H_    0.397950 0.321748 0.883936 0.121769
H39   H     H_    0.332753 0.322086 0.968535 0.069074
H40   H     H_    0.244691 0.318409 0.038811 0.068981
H41   H     H_    0.664747 0.572074 0.245759 0.120553
H42   H     H_    0.847322 0.694730 0.118039 0.121894
H43   H     H_    0.926976 0.682782 0.957295 0.069192
H44   H     H_    0.303848 0.289360 0.651358 -0.016707
H45   H     H_    0.994969 0.678058 0.872931 0.122194
H46   H     H_    0.045357 0.527592 0.714941 0.128805
H47   H     H_    0.909172 0.693080 0.033515 0.068767
H48   H     H_    0.834813 0.543792 0.400110 0.082424
H49   H     H_    0.360589 0.448588 0.605112 0.070505
H50   H     H_    0.481035 0.856632 0.527516 0.080867
H51   H     H_    0.301521 0.103390 0.544878 0.076024
H52   H     H_    0.898982 0.899275 0.447402 0.073117
H53   H     H_    0.718161 0.157144 0.468566 0.095311
H54   H     H_    0.364854 0.340116 0.523899 0.067731
H55   H     H_    0.020130 0.269580 0.717833 0.137674
H56   H     H_    0.818717 0.666283 0.472807 0.060424
H57   H     H_    0.216866 0.212087 0.715802 0.121040
H58   H     H_    0.331363 0.322089 0.421802 -0.087813
H59   H     H_    0.140378 0.312415 0.450199 0.040900
N1    N     N_R   0.946092 0.513103 0.203619 -0.421265
N2    N     N_R   0.261689 0.497792 0.796023 -0.424447
O1    O     O_2   0.910880 0.540430 0.617910 -0.465308
O2    O     O_3   0.643535 0.305602 0.397369 -0.630854
O3    O     O_3   0.098577 0.236897 0.624419 -0.606059
O4    O     O_2   0.278810 0.459550 0.382060 -0.465314
O5    O     O_3   0.046820 0.459570 0.442260 -0.491572
O6    O     O_3   0.514050 0.597710 0.411540 -0.477284
O7    O     O_3   0.127395 0.335867 0.376330 -0.636235
O8    O     O_3   0.627090 0.591350 0.524530 -0.474437
O9    O     O_3   0.103080 0.636600 0.435820 -0.491369
O10   O     O_2   0.212075 0.773918 0.466162 -0.487269
O11   O     O_3   0.107957 0.761487 0.373849 -0.602511
O12   O     O_3   0.142880 0.540370 0.557740 -0.488570
O13   O     O_3   0.562610 0.408580 0.475460 -0.492468
O14   O     O_2   0.365880 0.685750 0.523280 -0.459124
O15   O     O_3   0.558557 0.715717 0.602269 -0.641703
O16   O     O_2   0.414412 0.535815 0.322245 -0.498586
O17   O     O_3   0.435542 0.686342 0.331088 -0.592362
O18   O     O_2   0.052740 0.387661 0.201781 -0.598297
O19   O     O_2   0.394915 0.378563 0.802865 -0.599974
O20   O     O_2   0.844012 0.638400 0.197846 -0.620851
O21   O     O_2   0.128576 0.618214 0.796045 -0.598625
O22   O     O_3   0.675650 0.402220 0.588450 -0.490581
O23   O     O_2   0.838928 0.437794 0.673017 -0.497944
O24   O     O_3   0.055197 0.664221 0.622626 -0.626760
O25   O     O_3   0.659698 0.324490 0.676219 -0.591522
O26   O     O_2   0.823810 0.314230 0.476690 -0.433366
O27   O     O_3   0.086630 0.363340 0.564170 -0.492150
O28   O     O_2   0.979072 0.226073 0.533552 -0.470836
P1    P     P_3+3 0.078810 0.562990 0.610370 0.998981
P2    P     P_3+3 0.645380 0.325580 0.462150 1.008436
P3    P     P_3+3 0.120104 0.261890 0.564105 0.949639
P4    P     P_3+3 0.110900 0.436950 0.389630 0.995936
P5    P     P_3+3 0.074850 0.738123 0.433769 0.941858
P6    P     P_3+3 0.669972 0.414895 0.653428 0.969236
P7    P     P_3+3 0.550588 0.688652 0.538240 0.951600
P8    P     P_3+3 0.525129 0.596045 0.347147 0.944921
O29   O     O_3   0.087553 0.180100 0.406073 -0.622166
C67   C     C_3   0.110611 0.099581 0.391221 0.289504
H60   H     H_    0.217729 0.070524 0.411249 0.025154
H61   H     H_    0.128164 0.089680 0.350402 0.036398
C68   C     C_3   0.960448 0.061947 0.403132 -0.318949
H62   H     H_    0.849388 0.091421 0.385607 0.124885
H63   H     H_    0.973517 0.999676 0.388625 0.060181
H64   H     H_    0.947341 0.065903 0.444043 0.116823

loop_
_geom_bond_atom_site_label_1
_geom_bond_atom_site_label_2
_ccdc_geom_bond_type
C25   C46   A    
C66   H12   S    
C2    O25   S    
C53   C54   A    
C38   C39   S    
C7    H30   S    
C47   H45   S    
C17   C18   A    
C6    H28   S    
O13   P2    S    
C1    H11   S    
C32   O21   D    
C55   C60   A    
C67   H61   S    
C12   O3    S    
C51   C52   A    
C12   H44   S    
C65   H10   S    
C22   H49   S    
Ba2   O5    S    
C52   C62   S    
C11   C16   D    
C1    H22   S    
C66   H13   S    
Ba1   P1    S    
C35   C36   S    
Ba1   Ba2   S    
C3    C4    S    
C55   C57   A    
C68   H62   S    
C5    H24   S    
O11   P5    S    
C64   H6    S    
C10   C20   A    
C7    O17   S    
C22   C37   D    
C4    H20   S    
C34   C45   S    
C49   C54   A    
C63   H56   S    
O24   P1    S    
Ba1   O26   S    
C23   H57   S    
C11   H41   S    
Ba1   O13   S    
C16   N1    S    
C21   H48   S    
C19   H36   S    
C25   C42   A    
C56   C64   S    
Ba1   O12   S    
C38   H46   S    
C32   N2    Am   
C14   C15   D    
C65   H9    S    
C22   C36   S    
C57   P7    S    
C7    C8    S    
C33   N2    Am   
C43   H40   S    
C3    H17   S    
C50   P2    S    
C13   C21   S    
O15   P7    S    
C59   H52   S    
Ba2   O14   S    
C59   C60   A    
C6    H27   S    
C34   O7    S    
Ba2   P4    S    
C2    H1    S    
C17   C41   A    
C31   C32   A    
C67   C68   S    
C19   C43   A    
O7    P4    S    
C5    H25   S    
C65   O2    S    
C9    C18   A    
C23   H23   S    
Ba2   O4    S    
O26   P2    D    
C49   C50   A    
Ba2   O9    S    
O25   P6    S    
Ba1   P2    S    
C17   C20   A    
C6    H26   S    
Ba1   O1    S    
C37   C38   D    
C45   O29   S    
C3    O15   S    
C53   H51   S    
C4    H19   S    
C65   C66   S    
C58   C59   A    
C40   C43   A    
Ba1   O27   S    
O2    P2    S    
C41   C42   A    
C45   H2    S    
C35   H37   S    
C27   C28   A    
C28   H38   S    
C56   O24   S    
C56   H4    S    
C58   P5    S    
C29   C30   A    
C26   C30   A    
C28   C29   A    
C64   H8    S    
C60   C61   S    
C15   C16   S    
O6    P8    S    
O9    P5    S    
O3    P3    S    
C8    H32   S    
C23   H55   S    
C45   H3    S    
C3    H18   S    
O16   P8    D    
C36   P6    S    
C20   C44   A    
O17   P8    S    
C58   C63   A    
O28   P3    D    
O22   P6    S    
C11   C13   S    
C37   P1    S    
O29   C67   S    
Ba2   O13   S    
C29   C33   A    
C34   H59   S    
C40   C41   A    
C1    C2    S    
O14   P7    D    
C67   H60   S    
Ba1   O8    S    
C50   C51   A    
C24   C40   A    
C42   C48   A    
C49   H54   S    
C52   C53   A    
C46   C47   A    
C7    H29   S    
Ba2   O8    S    
C10   O20   D    
O10   P5    D    
C34   H58   S    
C12   H33   S    
O4    P4    D    
O8    P7    S    
C10   N1    Am   
O27   P3    S    
C14   P4    S    
C14   C21   D    
C4    H21   S    
C44   C48   A    
C24   C26   A    
Ba2   O6    S    
O5    P4    S    
O1    P1    D    
C66   H14   S    
C30   C31   A    
C44   H42   S    
C9    N1    Am   
C15   H35   S    
C54   P3    S    
C51   H53   S    
C48   H47   S    
C39   N2    S    
C9    O18   D    
C5    O11   S    
C2    H15   S    
C68   H63   S    
C64   H7    S    
C8    H34   S    
Ba1   O22   S    
C33   O19   D    
C12   C23   S    
C35   C39   D    
C8    H31   S    
O23   P6    D    
C5    C6    S    
C61   C62   T    
O12   P1    S    
C46   H43   S    
C18   C19   A    
C24   C27   A    
C1    H16   S    
Ba2   O12   S    
C27   H39   S    
C13   P8    S    
C31   C47   A    
C57   C63   A    
Ba1   O5    S    
C56   H5    S    
C55   H50   S    
C25   C26   A    
C68   H64   S    
