data_mof_unit_43525.cif
_audit_creation_date              2013-03-05T15:48:11-0500
_audit_creation_method            fapswitch 2.2
_symmetry_space_group_name_H-M    P1
_symmetry_Int_Tables_number       1
_space_group_crystal_system       triclinic
_cell_length_a                    20.850286
_cell_length_b                    7.126376
_cell_length_c                    14.010715
_cell_angle_alpha                 89.857145
_cell_angle_beta                  97.842392
_cell_angle_gamma                 90.132847
_cell_volume                      2062.32843279

loop_
_atom_site_label
_atom_site_type_symbol
_atom_site_description
_atom_site_fract_x
_atom_site_fract_y
_atom_site_fract_z
_atom_type_partial_charge
O1    O     O_R   0.447130 0.507140 0.597350 -0.575034
O2    O     O_R   0.552870 0.007140 0.402650 -0.601307
O3    O     O_R   0.578910 0.181280 0.586990 -0.593515
O4    O     O_R   0.421090 0.681280 0.413010 -0.584860
C1    C     C_R   0.604746 0.344463 0.606740 1.052317
C2    C     C_R   0.395264 0.844375 0.393248 1.070803
O5    O     O_R   0.449230 0.177860 0.608640 -0.595581
O6    O     O_R   0.550770 0.677860 0.391360 -0.586897
O7    O     O_R   0.422260 0.000770 0.424450 -0.596684
O8    O     O_R   0.577740 0.500770 0.575550 -0.586546
C3    C     C_R   0.433096 0.346209 0.635368 1.039509
C4    C     C_R   0.566964 0.846621 0.364723 1.029604
O9    O     O_3   0.491310 0.336980 0.439550 -0.286760
O10   O     O_3   0.508690 0.836980 0.560450 -0.276898
V1    V     V_3+5 0.501610 0.064760 0.511210 1.232606
V2    V     V_3+5 0.498390 0.564760 0.488790 1.246228
C5    C     C_R   0.617664 0.878266 0.114665 0.273241
C6    C     C_R   0.382000 0.389307 0.884602 0.282561
H1    H     H_    0.706747 0.896948 0.992067 0.184989
H2    H     H_    0.293030 0.399965 0.007202 0.184665
C7    C     C_R   0.605486 0.855243 0.284656 -0.133724
C8    C     C_R   0.394542 0.356685 0.715312 -0.154866
C9    C     C_R   0.918066 0.833743 0.305040 -0.314487
C10   C     C_R   0.081110 0.357794 0.694017 -0.262803
C11   C     C_R   0.880568 0.786800 0.376981 0.004856
C12   C     C_R   0.117745 0.385127 0.618774 -0.027503
C13   C     C_R   0.813294 0.751468 0.351436 -0.076514
C14   C     C_R   0.185050 0.422857 0.640418 -0.061390
C15   C     C_R   0.782365 0.814324 0.259408 -0.010505
C16   C     C_R   0.216791 0.392582 0.736628 0.089587
C17   C     C_R   0.821882 0.850643 0.186282 0.117840
C18   C     C_R   0.177686 0.377741 0.811994 0.083579
C19   C     C_R   0.713698 0.837416 0.236238 0.081257
C20   C     C_R   0.285775 0.380889 0.761394 0.107121
C21   C     C_R   0.685684 0.864074 0.138897 0.049299
C22   C     C_R   0.313887 0.388690 0.859562 0.019688
C23   C     C_R   0.726170 0.878644 0.067146 -0.130682
C24   C     C_R   0.273493 0.393337 0.931643 -0.118874
C25   C     C_R   0.792874 0.878295 0.090725 -0.239126
C26   C     C_R   0.206914 0.381496 0.908509 -0.232578
C27   C     C_R   0.672682 0.847527 0.307873 -0.303521
C28   C     C_R   0.327315 0.350100 0.691851 -0.169247
C29   C     C_R   0.576934 0.869279 0.187306 -0.244286
C30   C     C_R   0.422931 0.378798 0.812346 -0.249873
C31   C     C_R   0.889853 0.854394 0.209614 -0.129963
C32   C     C_R   0.109813 0.363839 0.789706 -0.139509
H3    H     H_    0.692450 0.852562 0.383328 0.122318
H4    H     H_    0.308142 0.317974 0.618108 0.105065
H5    H     H_    0.970151 0.847961 0.322841 0.126044
H6    H     H_    0.029036 0.340151 0.678164 0.123980
H7    H     H_    0.821594 0.899529 0.032774 0.133313
H8    H     H_    0.178440 0.376762 0.967575 0.133903
C33   C     C_1   0.166512 0.857128 0.168527 -0.277262
C34   C     C_1   0.833489 0.356990 0.831466 -0.271565
C35   C     C_1   0.218856 0.854779 0.219803 0.084425
C36   C     C_1   0.781147 0.354801 0.780186 0.106246
C37   C     C_1   0.280539 0.853253 0.279994 0.088353
C38   C     C_1   0.719467 0.353474 0.719993 0.116209
C39   C     C_1   0.332870 0.850923 0.331297 -0.234766
C40   C     C_1   0.667139 0.351179 0.668689 -0.230217
O11   O     O_R   0.922300 0.202240 0.924350 -0.585621
O12   O     O_R   0.077700 0.702240 0.075650 -0.585054
O13   O     O_R   0.050780 0.535130 0.891350 -0.589739
O14   O     O_R   0.949220 0.035130 0.108650 -0.591977
C41   C     C_R   0.067577 0.368476 0.865224 0.933382
C42   C     C_R   0.932378 0.867493 0.134689 0.930703
O15   O     O_R   0.921100 0.531560 0.912990 -0.584306
O16   O     O_R   0.078900 0.031560 0.087010 -0.585960
O17   O     O_R   0.947120 0.708470 0.097370 -0.591289
O18   O     O_R   0.052880 0.208470 0.902630 -0.590303
C43   C     C_R   0.895887 0.363498 0.893402 0.965903
C44   C     C_R   0.104111 0.863575 0.106592 0.967800
O19   O     O_3   0.008710 0.375800 0.060400 -0.278755
O20   O     O_3   0.991290 0.875800 0.939600 -0.276577
V3    V     V_3+5 0.998380 0.648080 0.988790 1.193530
V4    V     V_3+5 0.001620 0.148080 0.011210 1.191182
C45   C     C_2   0.505437 0.883189 0.159339 0.675293
H9    H     H_    0.485690 0.931878 0.088010 0.117219
O21   O     O_2   0.467421 0.837901 0.214197 -0.606342
C46   C     C_2   0.494559 0.384533 0.841273 0.682330
H10   H     H_    0.514801 0.375445 0.916627 0.116068
O22   O     O_2   0.532180 0.401566 0.782380 -0.611459
N1    N     N_R   0.589835 0.900944 0.015869 0.210405
O23   O     O_R   0.594588 0.060920 0.972459 -0.418357
O24   O     O_R   0.558839 0.762648 0.969834 -0.385723
N2    N     N_R   0.409700 0.402622 0.983824 0.211201
O25   O     O_R   0.410732 0.256532 0.039838 -0.414127
O26   O     O_R   0.433190 0.561456 0.018347 -0.380955
C47   C     C_2   0.780015 0.608720 0.406286 0.511629
H11   H     H_    0.734511 0.547408 0.374163 0.015679
O27   O     O_2   0.803846 0.548964 0.484808 -0.549881
C48   C     C_2   0.216776 0.534474 0.569777 0.452237
H12   H     H_    0.206432 0.509343 0.493135 0.092337
O28   O     O_2   0.253897 0.662198 0.597170 -0.579956
C49   C     C_2   0.914297 0.774869 0.477001 0.655002
H13   H     H_    0.965451 0.740443 0.489861 -0.058941
O29   O     O_2   0.886626 0.815153 0.545538 -0.541567
C50   C     C_2   0.082264 0.383696 0.519416 0.467949
H14   H     H_    0.030796 0.414349 0.507726 0.025935
O30   O     O_2   0.108666 0.337907 0.450513 -0.601158

loop_
_geom_bond_atom_site_label_1
_geom_bond_atom_site_label_2
_geom_bond_distance
_ccdc_geom_bond_type
C25   H7    1.082757 S    
O13   C41   1.306216 A    
C9    C31   1.392850 A    
C13   C15   1.431970 A    
C33   C35   1.222110 T    
C49   H13   1.085735 S    
O1    C3    1.312462 A    
O14   V4    2.025547 S    
O2    C4    1.313195 A    
C2    O7    1.297107 A    
C45   H9    1.084107 S    
O5    C3    1.315759 A    
C6    N2    1.434016 S    
O20   V4    2.183311 S    
C21   C23   1.401634 A    
C10   C12   1.396713 A    
N2    O26   1.300220 A    
C37   C39   1.222059 T    
C42   O17   1.304058 A    
C38   C40   1.222019 T    
C41   O18   1.306901 A    
C15   C19   1.433984 A    
H1    C23   1.082061 S    
C7    C29   1.415194 A    
C8    C30   1.415798 A    
C34   C43   1.462766 S    
C36   C38   1.438484 S    
C20   C28   1.407099 A    
O17   V3    2.022606 S    
C47   O27   1.219847 D    
O15   C43   1.321151 A    
O6    C4    1.315268 A    
O11   C43   1.321820 A    
O5    V1    2.030322 S    
O6    V2    2.025604 S    
O19   V3    2.179749 S    
C45   O21   1.219435 D    
O11   V4    1.953598 S    
C10   H6    1.085221 S    
C34   C36   1.222063 T    
O20   V3    1.760144 S    
C16   C20   1.435391 A    
C16   C18   1.423028 A    
C30   C46   1.493647 S    
C32   C41   1.466538 S    
C46   O22   1.219233 D    
N2    O25   1.300648 A    
C26   H8    1.082724 S    
C4    C7    1.467183 S    
C5    N1    1.434894 S    
O14   C42   1.309359 A    
O4    V2    1.987276 S    
C5    C29   1.412955 A    
C6    C30   1.412549 A    
H2    C24   1.082291 S    
N1    O23   1.300739 A    
O16   C44   1.321594 A    
C48   O28   1.221576 D    
C27   H3    1.081666 S    
O12   C44   1.321922 A    
C14   C48   1.490697 S    
O1    V2    2.015650 S    
C28   H4    1.080625 S    
O2    V1    2.018202 S    
C12   C50   1.484677 S    
C7    C27   1.395600 A    
O4    C2    1.295428 A    
N1    O24   1.300558 A    
C11   C49   1.481995 S    
C50   O30   1.220195 D    
C35   C37   1.438556 S    
O18   V4    2.019933 S    
C11   C13   1.421564 A    
O19   V4    1.762678 S    
O12   V3    1.953283 S    
C29   C45   1.492226 S    
O3    V1    1.986365 S    
C1    C40   1.462790 S    
C18   C32   1.410284 A    
C2    C39   1.462847 S    
C46   H10   1.084037 S    
O3    C1    1.295037 A    
C49   O29   1.220939 D    
O16   V4    1.987086 S    
C3    C8    1.467215 S    
C12   C14   1.419886 A    
C19   C27   1.406676 A    
C22   C24   1.400988 A    
O7    V1    1.968061 S    
C10   C32   1.392354 A    
C1    O8    1.296976 A    
C23   C25   1.384961 A    
O8    V2    1.968434 S    
C24   C26   1.384224 A    
C8    C28   1.396092 A    
O13   V3    2.030260 S    
C14   C16   1.434343 A    
C48   H12   1.081309 S    
C19   C21   1.420951 A    
C17   C25   1.405483 A    
C13   C47   1.498405 S    
C20   C22   1.420778 A    
C18   C26   1.405659 A    
C9    H5    1.085129 S    
C9    C11   1.396890 A    
O15   V3    1.986178 S    
C15   C17   1.422553 A    
C50   H14   1.085865 S    
C17   C31   1.410491 A    
O9    V2    1.763334 S    
C31   C42   1.466291 S    
O10   V1    1.760795 S    
C5    C21   1.416323 A    
C47   H11   1.084510 S    
C33   C44   1.462847 S    
C6    C22   1.415629 A    
