data_mof_unit_60631.cif
_audit_creation_date              2012-12-10T19:13:29-0500
_audit_creation_method            fapswitch 2.2
_symmetry_space_group_name_H-M    P1
_symmetry_Int_Tables_number       1
_space_group_crystal_system       triclinic
_cell_length_a                    10.013544
_cell_length_b                    10.968002
_cell_length_c                    15.968079
_cell_angle_alpha                 88.805423
_cell_angle_beta                  89.10451
_cell_angle_gamma                 94.879991
_cell_volume                      1746.74768935

loop_
_atom_site_label
_atom_site_type_symbol
_atom_type_description
_atom_site_fract_x
_atom_site_fract_y
_atom_site_fract_z
_atom_type_partial_charge
C1    C     C_R   0.503726 0.742182 0.499094 0.998851
C2    C     C_R   0.423937 0.492160 0.810496 0.242903
C3    C     C_R   0.445413 0.324490 0.145723 -0.115291
C4    C     C_R   0.418370 0.381266 0.220077 0.314036
C5    C     C_R   0.611942 0.524494 0.195452 0.231629
C6    C     C_R   0.642143 0.463749 0.121232 0.287405
C7    C     C_R   0.560812 0.359600 0.098470 -0.105988
C8    C     C_2   0.494433 0.246647 0.975081 0.176342
C9    C     C_2   0.593795 0.284074 0.026929 0.266287
C10   C     C_R   0.511411 0.472501 0.251949 -0.238474
C11   C     C_3   0.403041 0.917220 0.426113 0.065940
C12   C     C_R   0.484641 0.494737 0.654743 0.937894
C13   C     C_3   0.407517 0.059388 0.414430 0.441008
C14   C     C_3   0.457750 0.929341 0.580998 0.393710
C15   C     C_3   0.645065 0.944623 0.470756 0.132187
C16   C     C_3   0.504687 0.879625 0.493847 -0.325074
C17   C     C_3   0.495399 0.121595 0.486251 -0.229960
C18   C     C_3   0.444302 0.068434 0.572661 -0.527872
C19   C     C_3   0.643989 0.084607 0.475514 0.075670
C20   C     C_3   0.934929 0.606047 0.548202 0.189002
C21   C     C_3   0.092138 0.617798 0.532660 -0.341850
C22   C     C_3   0.910775 0.390282 0.544981 0.010431
C23   C     C_R   0.496593 0.258885 0.491746 0.931300
C24   C     C_3   0.921367 0.500362 0.415838 0.118622
C25   C     C_3   0.066990 0.407622 0.559906 0.089464
C26   C     C_3   0.078448 0.487243 0.416208 0.145010
C27   C     C_R   0.513855 0.498469 0.344062 0.956516
C28   C     C_R   0.479500 0.439908 0.739618 -0.150522
C29   C     C_R   0.527447 0.324587 0.746963 -0.161204
C30   C     C_R   0.531825 0.264778 0.823571 -0.068269
C31   C     C_R   0.482291 0.316201 0.895649 -0.050457
C32   C     C_R   0.424561 0.429731 0.889186 0.260607
H1    H     H_    0.302144 0.883545 0.450823 0.193974
H2    H     H_    0.915924 0.591607 0.616699 0.173631
N1    N     N_3   0.861190 0.500250 0.501720 -0.156011
N2    N     N_3   0.138550 0.503270 0.501080 -0.159388
O1    O     O_R   0.383960 0.685090 0.500020 -0.603415
O2    O     O_R   0.616040 0.685320 0.499960 -0.545087
O3    O     O_R   0.370240 0.499890 0.615830 -0.591610
O4    O     O_R   0.602330 0.500120 0.615770 -0.566065
O5    O     O_R   0.383960 0.314680 0.500040 -0.555268
O6    O     O_R   0.616040 0.314910 0.499980 -0.608973
O7    O     O_R   0.397670 0.499880 0.384230 -0.550317
O8    O     O_R   0.629760 0.500110 0.384170 -0.580724
Zn1   Zn    Zn3+2 0.345040 0.499850 0.500040 1.056240
Zn2   Zn    Zn3+2 0.654960 0.500150 0.499960 1.065409
H3    H     H_    0.562422 0.280317 0.692302 0.182557
Br1   Br    Br    0.788397 0.526511 0.048501 -0.227347
Br2   Br    Br    0.405414 0.827844 0.320805 -0.214312
Br3   Br    Br    0.475252 0.114713 0.303384 -0.288254
Br4   Br    Br    0.221337 0.096732 0.413515 -0.280629
Br5   Br    Br    0.285062 0.856030 0.624214 -0.366031
H4    H     H_    0.339013 0.089360 0.582176 0.282660
H5    H     H_    0.713976 0.921007 0.519268 0.195473
Br6   Br    Br    0.720412 0.891632 0.365493 -0.142109
Br7   Br    Br    0.760898 0.174458 0.388852 -0.338995
Br8   Br    Br    0.249890 0.325480 0.269726 -0.305824
H6    H     H_    0.697477 0.112075 0.533892 0.175313
Br9   Br    Br    0.582997 0.896228 0.670259 -0.364750
H7    H     H_    0.500791 0.115405 0.623350 0.203129
Br10  Br    Br    0.884678 0.768163 0.535602 -0.334754
H8    H     H_    0.124382 0.695191 0.488828 0.263255
H9    H     H_    0.141674 0.639001 0.592850 0.225637
Br11  Br    Br    0.824422 0.349003 0.652699 -0.434607
H10   H     H_    0.083572 0.437854 0.625529 0.187178
H11   H     H_    0.873363 0.421954 0.381466 0.160155
Br12  Br    Br    0.667015 0.695204 0.200285 -0.152667
Br13  Br    Br    0.874178 0.640878 0.350252 -0.212632
Br14  Br    Br    0.170098 0.597222 0.330802 -0.241896
H12   H     H_    0.092913 0.392906 0.396862 0.177457
H13   H     H_    0.888477 0.308175 0.507233 0.202779
Br15  Br    Br    0.131944 0.249290 0.571707 -0.354387
Br16  Br    Br    0.730490 0.176504 0.051861 -0.196181
Br17  Br    Br    0.339449 0.496215 0.984702 -0.297816
H14   H     H_    0.377106 0.248989 0.125946 0.229423
Br18  Br    Br    0.349198 0.647193 0.799709 -0.243445
Br19  Br    Br    0.432670 0.075044 0.974147 -0.232005
H15   H     H_    0.575116 0.177574 0.826350 0.221375

loop_
_geom_bond_atom_site_label_1
_geom_bond_atom_site_label_2
_ccdc_geom_bond_type
C19   Br7   S    
C10   C27   S    
C14   C18   S    
C5    Br12  S    
C21   N2    S    
C15   C19   S    
C22   N1    S    
C17   C23   S    
C23   O6    A    
C6    Br1   S    
C29   H3    S    
C28   C29   A    
C24   C26   S    
C3    C7    A    
C32   Br17  S    
C5    C6    A    
C15   C16   S    
C2    C32   A    
O6    Zn2   S    
C20   Br10  S    
C18   H4    S    
C13   Br4   S    
C20   N1    S    
C27   O8    A    
C14   Br5   S    
C8    C9    D    
C22   C25   S    
C4    Br8   S    
C3    H14   S    
C24   H11   S    
O3    Zn1   S    
C20   H2    S    
C9    Br16  S    
O8    Zn2   S    
C19   H6    S    
C24   N1    S    
O2    Zn2   S    
C15   H5    S    
C11   H1    S    
C25   H10   S    
C25   Br15  S    
C15   Br6   S    
C12   O4    A    
O4    Zn2   S    
C29   C30   A    
C11   Br2   S    
C11   C16   S    
C31   C32   A    
C17   C18   S    
N2    Zn1   S    
C1    C16   S    
O7    Zn1   S    
C21   H8    S    
C1    O2    A    
C26   N2    S    
C12   C28   S    
C8    Br19  S    
C26   H12   S    
C14   C16   S    
O1    Zn1   S    
C3    C4    A    
C22   H13   S    
C2    Br18  S    
C18   H7    S    
C7    C9    S    
C8    C31   S    
C6    C7    A    
C1    O1    A    
C23   O5    A    
C13   C17   S    
C12   O3    A    
C5    C10   A    
C11   C13   S    
C30   C31   A    
C17   C19   S    
C21   H9    S    
C24   Br13  S    
C25   N2    S    
C22   Br11  S    
C13   Br3   S    
C30   H15   S    
C27   O7    A    
C20   C21   S    
C26   Br14  S    
O5    Zn1   S    
C2    C28   A    
C14   Br9   S    
N1    Zn2   S    
C4    C10   A    
