data_mof_unit_25724.cif
_audit_creation_date              2012-12-10T17:59:40-0500
_audit_creation_method            fapswitch 2.2
_symmetry_space_group_name_H-M    P1
_symmetry_Int_Tables_number       1
_space_group_crystal_system       triclinic
_cell_length_a                    18.354746
_cell_length_b                    18.389563
_cell_length_c                    34.382549
_cell_angle_alpha                 89.999531
_cell_angle_beta                  89.998683
_cell_angle_gamma                 90.000543
_cell_volume                      11605.3397318

loop_
_atom_site_label
_atom_site_type_symbol
_atom_type_description
_atom_site_fract_x
_atom_site_fract_y
_atom_site_fract_z
_atom_type_partial_charge
C1    C     C_R   0.065842 0.498214 0.418857 -0.261184
C2    C     C_R   0.933501 0.496964 0.581234 -0.256373
C3    C     C_R   0.503037 0.066085 0.418776 -0.258289
C4    C     C_R   0.503080 0.933919 0.581223 -0.258176
C5    C     C_R   0.933503 0.503049 0.418766 -0.256416
C6    C     C_R   0.065841 0.501716 0.581139 -0.261058
C7    C     C_R   0.497736 0.933952 0.418788 -0.257545
C8    C     C_R   0.497726 0.066049 0.581212 -0.257609
C9    C     C_R   0.566498 0.996990 0.918768 -0.256368
C10   C     C_R   0.434153 0.998059 0.081147 -0.261093
C11   C     C_R   0.002298 0.566049 0.918787 -0.257602
C12   C     C_R   0.002257 0.433953 0.081212 -0.257516
C13   C     C_R   0.434154 0.001622 0.918863 -0.261072
C14   C     C_R   0.566489 0.003069 0.081235 -0.256494
C15   C     C_R   0.996908 0.433919 0.918777 -0.258162
C16   C     C_R   0.997002 0.566088 0.081223 -0.258408
C17   C     C_R   0.999762 0.500494 0.398456 -0.030787
C18   C     C_R   0.999761 0.499487 0.601542 -0.030889
C19   C     C_R   0.500265 0.000018 0.398434 -0.030848
C20   C     C_R   0.500277 0.999984 0.601566 -0.030870
C21   C     C_R   0.500236 0.999466 0.898459 -0.030890
C22   C     C_R   0.500233 0.000447 0.101545 -0.030768
C23   C     C_R   0.999726 0.499984 0.898433 -0.030880
C24   C     C_R   0.999747 0.500020 0.101566 -0.030816
C25   C     C_R   0.866850 0.501039 0.479726 -0.223213
C26   C     C_R   0.132409 0.500569 0.520260 -0.225296
C27   C     C_R   0.499687 0.867494 0.479736 -0.219911
C28   C     C_R   0.499639 0.132508 0.520264 -0.219897
C29   C     C_R   0.132409 0.499313 0.479735 -0.225216
C30   C     C_R   0.866849 0.499006 0.520275 -0.223225
C31   C     C_R   0.501432 0.132519 0.479724 -0.222146
C32   C     C_R   0.501491 0.867484 0.520276 -0.222210
C33   C     C_R   0.367586 0.000358 0.979742 -0.225253
C34   C     C_R   0.633143 0.001120 0.020275 -0.223205
C35   C     C_R   0.998483 0.367485 0.979726 -0.222223
C36   C     C_R   0.998629 0.632521 0.020274 -0.222069
C37   C     C_R   0.633146 0.999087 0.979727 -0.223236
C38   C     C_R   0.367586 0.999082 0.020267 -0.225313
C39   C     C_R   0.000416 0.632509 0.979734 -0.219912
C40   C     C_R   0.000288 0.367495 0.020265 -0.219900
C41   C     C_R   0.500050 0.000005 0.355946 0.816965
C42   C     C_R   0.500054 0.999995 0.644054 0.816917
C43   C     C_R   0.999958 0.500155 0.355969 0.817296
C44   C     C_R   0.999959 0.499840 0.644030 0.817200
C45   C     C_R   0.999947 0.499994 0.855946 0.816918
C46   C     C_R   0.999953 0.500006 0.144054 0.816972
C47   C     C_R   0.500041 0.999838 0.855970 0.817176
C48   C     C_R   0.500041 0.000144 0.144031 0.817408
C49   C     C_R   0.359858 0.139930 0.250027 0.884187
C50   C     C_R   0.640149 0.859960 0.749984 0.920491
C51   C     C_R   0.859899 0.360036 0.250005 0.884106
C52   C     C_R   0.139308 0.640907 0.749578 0.911555
C53   C     C_R   0.640102 0.860037 0.249995 0.884085
C54   C     C_R   0.360690 0.140906 0.750421 0.911516
C55   C     C_R   0.140146 0.639927 0.249970 0.884306
C56   C     C_R   0.859852 0.359960 0.750016 0.920503
C57   C     C_R   0.359860 0.860068 0.749973 0.884115
C58   C     C_R   0.640149 0.140039 0.250016 0.920483
C59   C     C_R   0.859900 0.639965 0.749995 0.884031
C60   C     C_R   0.139314 0.359099 0.250416 0.911893
C61   C     C_R   0.640099 0.139965 0.750005 0.884065
C62   C     C_R   0.360694 0.859092 0.249580 0.912116
C63   C     C_R   0.140139 0.360067 0.750026 0.884080
C64   C     C_R   0.859851 0.640040 0.249984 0.920481
C65   C     C_R   0.262126 0.791428 0.215813 0.302420
C66   C     C_R   0.739407 0.206959 0.783442 0.300760
C67   C     C_R   0.200317 0.253297 0.218923 0.323334
C68   C     C_R   0.792658 0.738794 0.783411 0.301992
C69   C     C_R   0.742200 0.204542 0.217414 0.300422
C70   C     C_R   0.258226 0.795368 0.782420 0.312967
C71   C     C_R   0.795653 0.742025 0.217306 0.300628
C72   C     C_R   0.209615 0.263667 0.784396 0.303730
C73   C     C_R   0.261959 0.208429 0.784140 0.302117
C74   C     C_R   0.739440 0.793071 0.216563 0.300806
C75   C     C_R   0.200242 0.746783 0.781041 0.323566
C76   C     C_R   0.792657 0.261210 0.216590 0.301979
C77   C     C_R   0.742195 0.795457 0.782588 0.300454
C78   C     C_R   0.258271 0.204667 0.217559 0.312908
C79   C     C_R   0.795624 0.257999 0.782700 0.300615
C80   C     C_R   0.209760 0.736190 0.215564 0.303318
C81   C     C_R   0.757810 0.295453 0.717410 0.300445
C82   C     C_R   0.241719 0.704681 0.282437 0.312892
C83   C     C_R   0.704370 0.757994 0.717302 0.300636
C84   C     C_R   0.290315 0.236266 0.284408 0.303571
C85   C     C_R   0.238025 0.708444 0.715855 0.302138
C86   C     C_R   0.760572 0.293058 0.283439 0.300780
C87   C     C_R   0.299760 0.246785 0.718959 0.323593
C88   C     C_R   0.707340 0.761206 0.283409 0.301983
C89   C     C_R   0.757799 0.704540 0.282585 0.300434
C90   C     C_R   0.241780 0.295377 0.717580 0.312966
C91   C     C_R   0.704358 0.242014 0.282697 0.300613
C92   C     C_R   0.290370 0.763685 0.715599 0.303679
C93   C     C_R   0.237960 0.291501 0.284156 0.302261
C94   C     C_R   0.760586 0.706952 0.716560 0.300764
C95   C     C_R   0.299693 0.753282 0.281069 0.323305
C96   C     C_R   0.707348 0.238788 0.716587 0.301984
C97   C     C_R   0.932911 0.501471 0.459267 0.109649
C98   C     C_R   0.066331 0.500686 0.540689 0.113067
C99   C     C_R   0.499318 0.933423 0.459277 0.108239
C100  C     C_R   0.499301 0.066579 0.540724 0.108235
C101  C     C_R   0.066332 0.499240 0.459307 0.113054
C102  C     C_R   0.932910 0.498536 0.540732 0.109651
C103  C     C_R   0.501695 0.066598 0.459268 0.110396
C104  C     C_R   0.501733 0.933406 0.540731 0.110376
C105  C     C_R   0.433663 0.000563 0.959313 0.113069
C106  C     C_R   0.567081 0.001480 0.040734 0.109648
C107  C     C_R   0.998259 0.433407 0.959269 0.110374
C108  C     C_R   0.998345 0.566600 0.040731 0.110423
C109  C     C_R   0.567086 0.998552 0.959270 0.109656
C110  C     C_R   0.433662 0.999085 0.040696 0.113033
C111  C     C_R   0.000730 0.566579 0.959275 0.108228
C112  C     C_R   0.000677 0.433425 0.040724 0.108232
C113  C     C_R   0.197315 0.694979 0.249471 -0.357355
C114  C     C_R   0.803632 0.303779 0.750045 -0.349091
C115  C     C_R   0.302704 0.194995 0.250517 -0.357539
C116  C     C_R   0.696368 0.803779 0.749954 -0.349100
C117  C     C_R   0.803629 0.304083 0.250020 -0.351204
C118  C     C_R   0.193343 0.699305 0.748850 -0.360983
C119  C     C_R   0.696373 0.804086 0.249980 -0.351227
C120  C     C_R   0.306651 0.199300 0.751147 -0.361008
C121  C     C_R   0.197289 0.304999 0.750520 -0.357783
C122  C     C_R   0.803636 0.696225 0.249954 -0.349097
C123  C     C_R   0.302708 0.805002 0.749478 -0.357743
C124  C     C_R   0.696367 0.196222 0.250046 -0.349089
C125  C     C_R   0.803635 0.695922 0.749980 -0.351211
C126  C     C_R   0.193355 0.300707 0.251137 -0.360716
C127  C     C_R   0.696365 0.195922 0.750019 -0.351202
C128  C     C_R   0.306679 0.800674 0.248848 -0.360592
C129  C     C_R   0.999606 0.500162 0.479634 0.062898
C130  C     C_R   0.999606 0.499805 0.520364 0.062910
C131  C     C_R   0.500531 0.000006 0.479626 0.062054
C132  C     C_R   0.500536 0.999996 0.520374 0.062073
C133  C     C_R   0.500389 0.999744 0.979638 0.062913
C134  C     C_R   0.500387 0.000092 0.020368 0.062921
C135  C     C_R   0.999478 0.499997 0.979626 0.062078
C136  C     C_R   0.999486 0.500008 0.020374 0.062024
H1    H     H_    0.815297 0.501761 0.464363 0.146579
H2    H     H_    0.183966 0.501007 0.535631 0.148181
H3    H     H_    0.499060 0.816033 0.464381 0.147993
H4    H     H_    0.498994 0.183969 0.535619 0.147998
H5    H     H_    0.183966 0.498841 0.464363 0.148190
H6    H     H_    0.815296 0.498315 0.535640 0.146579
H7    H     H_    0.502070 0.183982 0.464365 0.146258
H8    H     H_    0.502154 0.816021 0.535635 0.146274
H9    H     H_    0.316028 0.000745 0.964371 0.148182
H10   H     H_    0.684695 0.001900 0.035639 0.146579
H11   H     H_    0.997803 0.316022 0.964367 0.146277
H12   H     H_    0.998007 0.683984 0.035632 0.146241
H13   H     H_    0.684700 0.998454 0.964362 0.146581
H14   H     H_    0.316029 0.998543 0.035639 0.148241
H15   H     H_    0.001074 0.683969 0.964378 0.147997
H16   H     H_    0.000899 0.316034 0.035621 0.147995
H17   H     H_    0.117052 0.495947 0.403395 0.152346
H18   H     H_    0.882308 0.494104 0.596843 0.153489
H19   H     H_    0.505880 0.117220 0.403192 0.153041
H20   H     H_    0.505950 0.882786 0.596807 0.153038
H21   H     H_    0.882312 0.505938 0.403158 0.153492
H22   H     H_    0.117050 0.503946 0.596598 0.152319
H23   H     H_    0.494811 0.882821 0.403211 0.161368
H24   H     H_    0.494785 0.117179 0.596790 0.161425
H25   H     H_    0.617694 0.994179 0.903160 0.153478
H26   H     H_    0.382946 0.995707 0.096612 0.152352
H27   H     H_    0.005251 0.617177 0.903208 0.161430
H28   H     H_    0.005165 0.382821 0.096790 0.161359
H29   H     H_    0.382943 0.003813 0.903404 0.152318
H30   H     H_    0.617677 0.006024 0.096842 0.153508
H31   H     H_    0.994023 0.382787 0.903194 0.153040
H32   H     H_    0.994181 0.617224 0.096806 0.153039
O1    O     O_3   0.500000 1.000000 0.250000 -0.499857
O2    O     O_3   0.500000 0.000000 0.750000 -0.499881
O3    O     O_3   1.000000 0.500000 0.250000 -0.499854
O4    O     O_3   0.000000 0.500000 0.750000 -0.499880
O5    O     O_R   0.500000 0.939270 0.337550 -0.653453
O6    O     O_R   0.500000 0.060730 0.662450 -0.653432
O7    O     O_R   0.060730 0.500000 0.337550 -0.662834
O8    O     O_R   0.939270 0.500000 0.662450 -0.662355
O9    O     O_R   0.500000 0.060730 0.337550 -0.664963
O10   O     O_R   0.500000 0.939270 0.662450 -0.664924
O11   O     O_R   0.939270 0.500000 0.337550 -0.662342
O12   O     O_R   0.060730 0.500000 0.662450 -0.662437
O13   O     O_R   1.000000 0.439270 0.837550 -0.664920
O14   O     O_R   1.000000 0.560730 0.162450 -0.665013
O15   O     O_R   0.560730 0.000000 0.837550 -0.662364
O16   O     O_R   0.439270 1.000000 0.162450 -0.663191
O17   O     O_R   1.000000 0.560730 0.837550 -0.653430
O18   O     O_R   1.000000 0.439270 0.162450 -0.653453
O19   O     O_R   0.439270 0.000000 0.837550 -0.662362
O20   O     O_R   0.560730 1.000000 0.162450 -0.662331
O21   O     O_R   0.414490 0.146150 0.273020 -0.616348
O22   O     O_R   0.585510 0.853850 0.726980 -0.628974
O23   O     O_R   0.853850 0.414490 0.273020 -0.616313
O24   O     O_R   0.146150 0.585510 0.726980 -0.627513
O25   O     O_R   0.585510 0.853850 0.273020 -0.619924
O26   O     O_R   0.414490 0.146150 0.726980 -0.639263
O27   O     O_R   0.146150 0.585510 0.273020 -0.614470
O28   O     O_R   0.853850 0.414490 0.726980 -0.627241
O29   O     O_R   0.414490 0.853850 0.726980 -0.616345
O30   O     O_R   0.585510 0.146150 0.273020 -0.628995
O31   O     O_R   0.853850 0.585510 0.726980 -0.616308
O32   O     O_R   0.146150 0.414490 0.273020 -0.627503
O33   O     O_R   0.585510 0.146150 0.726980 -0.619963
O34   O     O_R   0.414490 0.853850 0.273020 -0.639497
O35   O     O_R   0.146150 0.414490 0.726980 -0.614422
O36   O     O_R   0.853850 0.585510 0.273020 -0.627209
O37   O     O_R   0.914490 0.646150 0.773020 -0.619955
O38   O     O_R   0.085510 0.353850 0.226980 -0.639453
O39   O     O_R   0.353850 0.914490 0.773020 -0.614433
O40   O     O_R   0.646150 0.085510 0.226980 -0.627207
O41   O     O_R   0.085510 0.353850 0.773020 -0.616347
O42   O     O_R   0.914490 0.646150 0.226980 -0.629024
O43   O     O_R   0.646150 0.085510 0.773020 -0.616310
O44   O     O_R   0.353850 0.914490 0.226980 -0.627411
O45   O     O_R   0.914490 0.353850 0.226980 -0.619934
O46   O     O_R   0.085510 0.646150 0.773020 -0.639269
O47   O     O_R   0.353850 0.085510 0.226980 -0.614413
O48   O     O_R   0.646150 0.914490 0.773020 -0.627243
O49   O     O_R   0.085510 0.646150 0.226980 -0.616336
O50   O     O_R   0.914490 0.353850 0.773020 -0.628972
O51   O     O_R   0.646150 0.914490 0.226980 -0.616310
O52   O     O_R   0.353850 0.085510 0.773020 -0.627531
Zn1   Zn    Zn3+2 0.413190 1.000000 0.217350 0.955167
Zn2   Zn    Zn3+2 0.586810 0.000000 0.782650 0.953287
Zn3   Zn    Zn3+2 1.000000 0.413190 0.217350 0.953659
Zn4   Zn    Zn3+2 1.000000 0.586810 0.782650 0.953674
Zn5   Zn    Zn3+2 0.586810 1.000000 0.217350 0.953301
Zn6   Zn    Zn3+2 0.413190 0.000000 0.782650 0.955420
Zn7   Zn    Zn3+2 1.000000 0.586810 0.217350 0.951804
Zn8   Zn    Zn3+2 0.000000 0.413190 0.782650 0.951806
Zn9   Zn    Zn3+2 0.913190 0.500000 0.717350 0.953285
Zn10  Zn    Zn3+2 0.086810 0.500000 0.282650 0.955275
Zn11  Zn    Zn3+2 0.500000 0.913190 0.717350 0.951809
Zn12  Zn    Zn3+2 0.500000 0.086810 0.282650 0.951805
Zn13  Zn    Zn3+2 0.086810 0.500000 0.717350 0.955390
Zn14  Zn    Zn3+2 0.913190 0.500000 0.282650 0.953310
Zn15  Zn    Zn3+2 0.500000 0.086810 0.717350 0.953679
Zn16  Zn    Zn3+2 0.500000 0.913190 0.282650 0.953666
O53   O     O_3   0.278624 0.827464 0.181561 -0.620176
C137  C     C_3   0.225393 0.880990 0.173854 0.161074
H33   H     H_    0.219435 0.918921 0.198958 0.138748
H34   H     H_    0.171713 0.855829 0.167433 0.168713
C138  C     C_3   0.249694 0.924090 0.138191 -0.327710
H35   H     H_    0.303912 0.948381 0.144116 0.252617
H36   H     H_    0.254668 0.886855 0.112848 0.218044
C139  C     C_3   0.196300 0.984710 0.128310 -1.006824
H37   H     H_    0.194695 0.024536 0.152456 0.291870
H38   H     H_    0.140868 0.962283 0.123331 0.269925
H39   H     H_    0.214580 0.013123 0.101535 0.259875
O54   O     O_3   0.729392 0.165532 0.816581 -0.610318
C140  C     C_3   0.679436 0.201409 0.841186 0.145651
H40   H     H_    0.625249 0.206065 0.826754 0.111316
H41   H     H_    0.699399 0.256750 0.849073 0.148137
C141  C     C_3   0.670986 0.156968 0.878410 -0.331078
H42   H     H_    0.656343 0.100284 0.870635 0.241292
H43   H     H_    0.723728 0.155984 0.894295 0.215193
C142  C     C_3   0.612125 0.188396 0.904853 -0.968135
H44   H     H_    0.625243 0.245558 0.912596 0.263504
H45   H     H_    0.608917 0.155883 0.932010 0.278052
H46   H     H_    0.558273 0.186451 0.890135 0.264084
O55   O     O_3   0.154830 0.257977 0.186797 -0.613657
C143  C     C_3   0.091082 0.215696 0.192936 0.195682
H47   H     H_    0.045749 0.243148 0.177312 0.183480
H48   H     H_    0.074299 0.212367 0.224119 0.105975
C144  C     C_3   0.099856 0.139009 0.176368 -0.360212
H49   H     H_    0.122711 0.142190 0.146475 0.249438
H50   H     H_    0.137844 0.107821 0.195149 0.236178
C145  C     C_3   0.027090 0.098816 0.175027 -1.017916
H51   H     H_    0.003183 0.095003 0.204641 0.264002
H52   H     H_    0.035628 0.042932 0.163665 0.272834
H53   H     H_    0.988307 0.127552 0.155555 0.271977
O56   O     O_3   0.833437 0.727904 0.816732 -0.613232
C146  C     C_3   0.796226 0.678378 0.841010 0.138382
H54   H     H_    0.789588 0.624910 0.826134 0.111065
H55   H     H_    0.741585 0.699903 0.849265 0.150956
C147  C     C_3   0.840911 0.667225 0.877975 -0.329712
H56   H     H_    0.896805 0.650120 0.869831 0.242968
H57   H     H_    0.844625 0.719461 0.894128 0.218085
C148  C     C_3   0.807226 0.609461 0.904268 -0.971132
H58   H     H_    0.750923 0.625233 0.912579 0.264216
H59   H     H_    0.840373 0.603909 0.931120 0.278395
H60   H     H_    0.806011 0.556067 0.889167 0.263550
O57   O     O_3   0.733045 0.161705 0.184630 -0.610283
C149  C     C_3   0.788522 0.108361 0.183733 0.163341
H61   H     H_    0.793513 0.079987 0.212324 0.122518
H62   H     H_    0.841806 0.133618 0.176259 0.164881
C150  C     C_3   0.769809 0.051791 0.152735 -0.316513
H63   H     H_    0.716271 0.026650 0.159626 0.261625
H64   H     H_    0.765693 0.078702 0.123868 0.209336
C151  C     C_3   0.827544 0.992230 0.150874 -0.976715
H65   H     H_    0.832264 0.964835 0.179543 0.276094
H66   H     H_    0.881222 0.015648 0.142764 0.259937
H67   H     H_    0.811851 0.951223 0.128706 0.270213
O58   O     O_3   0.267657 0.837176 0.815462 -0.610317
C152  C     C_3   0.314646 0.800160 0.841196 0.144019
H68   H     H_    0.369477 0.793088 0.827771 0.110532
H69   H     H_    0.292077 0.745858 0.849141 0.148744
C153  C     C_3   0.322418 0.845401 0.878179 -0.331008
H70   H     H_    0.340135 0.901103 0.870201 0.246237
H71   H     H_    0.268663 0.849269 0.892932 0.218364
C154  C     C_3   0.377854 0.812312 0.906100 -0.970829
H72   H     H_    0.361563 0.756105 0.914115 0.264465
H73   H     H_    0.380643 0.845638 0.932985 0.278037
H74   H     H_    0.432730 0.811265 0.892480 0.264626
O59   O     O_3   0.837901 0.731849 0.184337 -0.610809
C155  C     C_3   0.892678 0.785887 0.183111 0.160307
H75   H     H_    0.921103 0.791136 0.211686 0.123049
H76   H     H_    0.868544 0.839211 0.175142 0.164690
C156  C     C_3   0.949026 0.765194 0.152285 -0.312367
H77   H     H_    0.972897 0.711334 0.159507 0.264102
H78   H     H_    0.922014 0.761099 0.123429 0.208481
C157  C     C_3   0.010179 0.821269 0.150047 -0.980934
H79   H     H_    0.987952 0.875453 0.142077 0.257365
H80   H     H_    0.050300 0.804509 0.127598 0.269666
H81   H     H_    0.038579 0.825276 0.178496 0.278517
O60   O     O_3   0.168963 0.275231 0.817695 -0.616155
C158  C     C_3   0.204412 0.327609 0.840967 0.142260
H82   H     H_    0.206977 0.380834 0.825523 0.112961
H83   H     H_    0.260688 0.309784 0.848592 0.150998
C159  C     C_3   0.161020 0.337117 0.878502 -0.332650
H84   H     H_    0.103565 0.349654 0.871095 0.242847
H85   H     H_    0.162080 0.285469 0.895296 0.214588
C160  C     C_3   0.191725 0.398332 0.903565 -0.967057
H86   H     H_    0.249515 0.387178 0.911063 0.263146
H87   H     H_    0.159813 0.402516 0.930910 0.278442
H88   H     H_    0.188002 0.451013 0.887874 0.262949
O61   O     O_3   0.278298 0.172337 0.818390 -0.619972
C161  C     C_3   0.225280 0.118486 0.825861 0.161070
H89   H     H_    0.220506 0.080140 0.800873 0.140613
H90   H     H_    0.171140 0.143210 0.831652 0.166789
C162  C     C_3   0.248797 0.076220 0.861954 -0.326988
H91   H     H_    0.304015 0.053531 0.856945 0.251850
H92   H     H_    0.251239 0.113679 0.887300 0.217161
C163  C     C_3   0.196718 0.014061 0.871052 -1.007108
H93   H     H_    0.198130 0.973840 0.847088 0.293461
H94   H     H_    0.140297 0.034755 0.874817 0.270035
H95   H     H_    0.213997 0.986631 0.898303 0.259729
O62   O     O_3   0.729459 0.834528 0.183431 -0.610291
C164  C     C_3   0.679527 0.798674 0.158803 0.145658
H96   H     H_    0.625328 0.794005 0.173218 0.111334
H97   H     H_    0.699495 0.743343 0.150908 0.148200
C165  C     C_3   0.671112 0.843143 0.121587 -0.331118
H98   H     H_    0.656416 0.899807 0.129369 0.241316
H99   H     H_    0.723878 0.844178 0.105730 0.215239
C166  C     C_3   0.612325 0.811696 0.095106 -0.968153
H100  H     H_    0.625523 0.754569 0.087336 0.263521
H101  H     H_    0.609114 0.844254 0.067966 0.278071
H102  H     H_    0.558452 0.813545 0.109804 0.264127
O63   O     O_3   0.154655 0.742225 0.813132 -0.613468
C167  C     C_3   0.090938 0.784501 0.806892 0.195161
H103  H     H_    0.045549 0.757115 0.822504 0.183567
H104  H     H_    0.074252 0.787711 0.775691 0.105892
C168  C     C_3   0.099666 0.861256 0.823386 -0.359722
H105  H     H_    0.122376 0.858189 0.853314 0.249632
H106  H     H_    0.137750 0.892373 0.804626 0.236070
C169  C     C_3   0.026898 0.901460 0.824584 -1.017478
H107  H     H_    0.003114 0.905125 0.794938 0.263904
H108  H     H_    0.035382 0.957401 0.835874 0.272366
H109  H     H_    0.988033 0.872821 0.844052 0.271806
O64   O     O_3   0.833430 0.272109 0.183266 -0.613210
C170  C     C_3   0.796200 0.321616 0.158989 0.138363
H110  H     H_    0.789535 0.375081 0.173864 0.111049
H111  H     H_    0.741569 0.300064 0.150733 0.150988
C171  C     C_3   0.840884 0.332790 0.122024 -0.329767
H112  H     H_    0.896764 0.349934 0.130171 0.242939
H113  H     H_    0.844634 0.280554 0.105874 0.218088
C172  C     C_3   0.807169 0.390528 0.095727 -0.971143
H114  H     H_    0.750878 0.374718 0.087413 0.264222
H115  H     H_    0.840321 0.396099 0.068877 0.278395
H116  H     H_    0.805915 0.443924 0.110826 0.263553
O65   O     O_3   0.733028 0.838285 0.815374 -0.610283
C173  C     C_3   0.788493 0.891642 0.816275 0.163385
H117  H     H_    0.793501 0.920007 0.787683 0.122529
H118  H     H_    0.841776 0.866398 0.823762 0.164823
C174  C     C_3   0.769747 0.948218 0.847264 -0.316488
H119  H     H_    0.716204 0.973338 0.840365 0.261687
H120  H     H_    0.765626 0.921319 0.876135 0.209341
C175  C     C_3   0.827459 0.007802 0.849125 -0.976782
H121  H     H_    0.832190 0.035180 0.820452 0.276092
H122  H     H_    0.881140 0.984410 0.857249 0.259859
H123  H     H_    0.811735 0.048818 0.871282 0.270246
O66   O     O_3   0.267673 0.162807 0.184532 -0.609592
C176  C     C_3   0.314737 0.199712 0.158791 0.144304
H124  H     H_    0.369577 0.206695 0.172216 0.110392
H125  H     H_    0.292274 0.254049 0.150831 0.148568
C177  C     C_3   0.322428 0.154417 0.121819 -0.330222
H126  H     H_    0.340032 0.098680 0.129805 0.245945
H127  H     H_    0.268669 0.150643 0.107066 0.218143
C178  C     C_3   0.377935 0.187372 0.093892 -0.971122
H128  H     H_    0.361760 0.243605 0.085863 0.264469
H129  H     H_    0.380660 0.154019 0.067014 0.278039
H130  H     H_    0.432812 0.188318 0.107512 0.264646
O67   O     O_3   0.837867 0.268179 0.815669 -0.610768
C179  C     C_3   0.892605 0.214105 0.816909 0.160369
H131  H     H_    0.921039 0.208822 0.788338 0.123005
H132  H     H_    0.868432 0.160802 0.824885 0.164759
C180  C     C_3   0.948957 0.234771 0.847737 -0.312783
H133  H     H_    0.972891 0.288598 0.840501 0.264023
H134  H     H_    0.921936 0.238923 0.876588 0.208524
C181  C     C_3   0.010042 0.178627 0.849993 -0.980309
H135  H     H_    0.987750 0.124484 0.857993 0.257238
H136  H     H_    0.050198 0.195374 0.872427 0.269905
H137  H     H_    0.038412 0.174537 0.821540 0.278379
O68   O     O_3   0.169213 0.724478 0.182246 -0.616697
C182  C     C_3   0.204750 0.672030 0.159058 0.141395
H138  H     H_    0.207412 0.618894 0.174587 0.113064
H139  H     H_    0.260990 0.689921 0.151403 0.151199
C183  C     C_3   0.161364 0.662234 0.121544 -0.332602
H140  H     H_    0.103939 0.649617 0.128979 0.243005
H141  H     H_    0.162307 0.713795 0.104671 0.214700
C184  C     C_3   0.192177 0.600947 0.096569 -0.966992
H142  H     H_    0.249933 0.612192 0.089031 0.263180
H143  H     H_    0.160239 0.596532 0.069244 0.278439
H144  H     H_    0.188596 0.548348 0.112348 0.262889
O69   O     O_3   0.766980 0.338281 0.684623 -0.610287
C185  C     C_3   0.711510 0.391632 0.683719 0.163399
H145  H     H_    0.706498 0.420000 0.712310 0.122533
H146  H     H_    0.658230 0.366382 0.676232 0.164824
C186  C     C_3   0.730254 0.448208 0.652728 -0.316523
H147  H     H_    0.783793 0.473335 0.659629 0.261672
H148  H     H_    0.734383 0.421306 0.623859 0.209338
C187  C     C_3   0.672535 0.507783 0.650863 -0.976767
H149  H     H_    0.667798 0.535165 0.679535 0.276103
H150  H     H_    0.618858 0.484382 0.642739 0.259867
H151  H     H_    0.688256 0.548798 0.628704 0.270233
O70   O     O_3   0.232252 0.662890 0.315483 -0.609978
C188  C     C_3   0.185177 0.699875 0.341185 0.144093
H152  H     H_    0.130375 0.706919 0.327724 0.110398
H153  H     H_    0.207696 0.754188 0.349145 0.148721
C189  C     C_3   0.177340 0.654620 0.378161 -0.330582
H154  H     H_    0.159673 0.598905 0.370173 0.246153
H155  H     H_    0.231060 0.650779 0.392950 0.218247
C190  C     C_3   0.121817 0.687670 0.406047 -0.970989
H156  H     H_    0.138060 0.743882 0.414079 0.264471
H157  H     H_    0.118975 0.654332 0.432927 0.278050
H158  H     H_    0.066974 0.688695 0.392389 0.264605
O71   O     O_3   0.662125 0.768170 0.684333 -0.610761
C191  C     C_3   0.607381 0.714100 0.683098 0.160366
H159  H     H_    0.578948 0.708827 0.711670 0.123008
H160  H     H_    0.631548 0.660793 0.675126 0.164750
C192  C     C_3   0.551030 0.734765 0.652270 -0.312729
H161  H     H_    0.527103 0.788596 0.659501 0.264028
H162  H     H_    0.578049 0.738906 0.623417 0.208523
C193  C     C_3   0.489937 0.678628 0.650019 -0.980386
H163  H     H_    0.512220 0.624480 0.642023 0.257247
H164  H     H_    0.449782 0.695374 0.627584 0.269894
H165  H     H_    0.461566 0.674549 0.678472 0.278380
O72   O     O_3   0.330907 0.224625 0.317719 -0.616431
C194  C     C_3   0.295410 0.172206 0.340946 0.141855
H166  H     H_    0.292796 0.119029 0.325457 0.113039
H167  H     H_    0.239152 0.190064 0.348586 0.151123
C195  C     C_3   0.338796 0.162545 0.378470 -0.332655
H168  H     H_    0.396236 0.149969 0.371049 0.242933
H169  H     H_    0.337795 0.214146 0.395307 0.214647
C196  C     C_3   0.308033 0.101290 0.403485 -0.967015
H170  H     H_    0.250260 0.112489 0.411004 0.263167
H171  H     H_    0.339957 0.096983 0.430821 0.278437
H172  H     H_    0.311685 0.048653 0.387748 0.262928
O73   O     O_3   0.221678 0.672352 0.681605 -0.619983
C197  C     C_3   0.274721 0.618534 0.674118 0.161090
H173  H     H_    0.279596 0.580224 0.699119 0.140445
H174  H     H_    0.328821 0.643302 0.668275 0.166963
C198  C     C_3   0.251146 0.576191 0.638062 -0.327065
H175  H     H_    0.196017 0.553347 0.643151 0.251886
H176  H     H_    0.248476 0.613634 0.612714 0.217238
C199  C     C_3   0.303360 0.514178 0.628898 -1.007120
H177  H     H_    0.302207 0.473981 0.652877 0.293323
H178  H     H_    0.359699 0.535038 0.625034 0.270035
H179  H     H_    0.286006 0.486670 0.601683 0.259747
O74   O     O_3   0.770565 0.334505 0.316573 -0.610301
C200  C     C_3   0.820495 0.298638 0.341196 0.145617
H180  H     H_    0.874688 0.293957 0.326777 0.111330
H181  H     H_    0.800515 0.243312 0.349093 0.148221
C201  C     C_3   0.828932 0.343102 0.378411 -0.331146
H182  H     H_    0.843633 0.399764 0.370627 0.241317
H183  H     H_    0.776172 0.344146 0.394274 0.215241
C202  C     C_3   0.887724 0.311647 0.404886 -0.968189
H184  H     H_    0.874523 0.254520 0.412656 0.263530
H185  H     H_    0.890948 0.344202 0.432027 0.278071
H186  H     H_    0.941591 0.313493 0.390183 0.264118
O75   O     O_3   0.345350 0.242231 0.686869 -0.613472
C203  C     C_3   0.409069 0.284503 0.693112 0.195204
H187  H     H_    0.454459 0.257114 0.677503 0.183575
H188  H     H_    0.425749 0.287714 0.724314 0.105873
C204  C     C_3   0.400348 0.361256 0.676616 -0.359760
H189  H     H_    0.377637 0.358189 0.646689 0.249614
H190  H     H_    0.362268 0.392376 0.695376 0.236077
C205  C     C_3   0.473119 0.401456 0.675415 -1.017522
H191  H     H_    0.496904 0.405126 0.705061 0.263910
H192  H     H_    0.464637 0.457396 0.664121 0.272413
H193  H     H_    0.511982 0.372813 0.655948 0.271816
O76   O     O_3   0.666559 0.772096 0.316731 -0.613213
C206  C     C_3   0.703781 0.821601 0.341012 0.138381
H194  H     H_    0.710439 0.875072 0.326141 0.111061
H195  H     H_    0.758415 0.800058 0.349267 0.150978
C207  C     C_3   0.659095 0.832758 0.377977 -0.329766
H196  H     H_    0.603211 0.849891 0.369832 0.242938
H197  H     H_    0.655354 0.780516 0.394124 0.218085
C208  C     C_3   0.692799 0.890495 0.404279 -0.971132
H198  H     H_    0.749093 0.874696 0.412590 0.264222
H199  H     H_    0.659648 0.896050 0.431130 0.278395
H200  H     H_    0.694040 0.943895 0.389184 0.263556
O77   O     O_3   0.766951 0.661700 0.315368 -0.610279
C209  C     C_3   0.711476 0.608353 0.316262 0.163331
H201  H     H_    0.706486 0.579985 0.287670 0.122512
H202  H     H_    0.658191 0.633604 0.323738 0.164874
C210  C     C_3   0.730191 0.551777 0.347257 -0.316467
H203  H     H_    0.783731 0.526641 0.340365 0.261642
H204  H     H_    0.734305 0.578681 0.376126 0.209338
C211  C     C_3   0.672460 0.492211 0.349114 -0.976771
H205  H     H_    0.667739 0.464826 0.320443 0.276076
H206  H     H_    0.618781 0.515622 0.357228 0.259908
H207  H     H_    0.688157 0.451197 0.371278 0.270233
O78   O     O_3   0.232371 0.337208 0.684544 -0.610255
C212  C     C_3   0.185374 0.300225 0.658801 0.144085
H208  H     H_    0.130535 0.293170 0.672219 0.110537
H209  H     H_    0.207920 0.245917 0.650851 0.148692
C213  C     C_3   0.177637 0.345488 0.621822 -0.330928
H210  H     H_    0.159945 0.401198 0.629803 0.246229
H211  H     H_    0.231397 0.349334 0.607074 0.218340
C214  C     C_3   0.122192 0.312439 0.593892 -0.970862
H212  H     H_    0.138455 0.256227 0.585873 0.264462
H213  H     H_    0.119430 0.345776 0.567010 0.278031
H214  H     H_    0.067310 0.311415 0.607507 0.264633
O79   O     O_3   0.662109 0.231837 0.315665 -0.610793
C215  C     C_3   0.607349 0.285890 0.316895 0.160328
H215  H     H_    0.578920 0.291149 0.288322 0.123038
H216  H     H_    0.631499 0.339205 0.324864 0.164719
C216  C     C_3   0.550999 0.265213 0.347724 -0.312590
H217  H     H_    0.527103 0.211364 0.340500 0.264067
H218  H     H_    0.578013 0.261101 0.376577 0.208505
C217  C     C_3   0.489873 0.321314 0.349965 -0.980628
H219  H     H_    0.512125 0.375483 0.357943 0.257302
H220  H     H_    0.449737 0.304565 0.372409 0.269787
H221  H     H_    0.461486 0.325347 0.321515 0.278472
O80   O     O_3   0.331011 0.775265 0.682298 -0.616196
C218  C     C_3   0.295550 0.827649 0.659034 0.142173
H222  H     H_    0.292973 0.880864 0.674486 0.112958
H223  H     H_    0.239279 0.809813 0.651405 0.151014
C219  C     C_3   0.338941 0.837188 0.621501 -0.332636
H224  H     H_    0.396393 0.849737 0.628910 0.242857
H225  H     H_    0.337896 0.785548 0.604699 0.214598
C220  C     C_3   0.308222 0.898407 0.596446 -0.967052
H226  H     H_    0.250436 0.887240 0.588943 0.263148
H227  H     H_    0.340138 0.902617 0.569102 0.278442
H228  H     H_    0.311928 0.951081 0.612145 0.262939
O81   O     O_3   0.221524 0.327543 0.318410 -0.620098
C221  C     C_3   0.274628 0.381250 0.326005 0.161037
H229  H     H_    0.280007 0.419382 0.300955 0.139708
H230  H     H_    0.328541 0.356322 0.332129 0.167730
C222  C     C_3   0.250669 0.423939 0.361874 -0.327469
H231  H     H_    0.195917 0.447362 0.356399 0.252387
H232  H     H_    0.247003 0.386606 0.387232 0.217581
C223  C     C_3   0.303338 0.485403 0.371342 -1.007039
H233  H     H_    0.303360 0.525422 0.347278 0.292763
H234  H     H_    0.359306 0.463915 0.375705 0.269988
H235  H     H_    0.285537 0.513309 0.398358 0.259801
O82   O     O_3   0.770588 0.665514 0.683423 -0.610316
C224  C     C_3   0.820550 0.701374 0.658813 0.145658
H236  H     H_    0.874742 0.706005 0.673237 0.111347
H237  H     H_    0.800609 0.756722 0.650929 0.148114
C225  C     C_3   0.828964 0.656938 0.621586 -0.331087
H238  H     H_    0.843587 0.600247 0.629356 0.241292
H239  H     H_    0.776216 0.655977 0.605711 0.215208
C226  C     C_3   0.887823 0.688349 0.595136 -0.968143
H240  H     H_    0.874722 0.745514 0.587395 0.263504
H241  H     H_    0.891007 0.655839 0.567979 0.278057
H242  H     H_    0.941681 0.686386 0.609846 0.264097
O83   O     O_3   0.345176 0.757951 0.313196 -0.613588
C227  C     C_3   0.408924 0.715672 0.307053 0.195403
H243  H     H_    0.454249 0.743099 0.322696 0.183463
H244  H     H_    0.425728 0.712391 0.275872 0.106049
C228  C     C_3   0.400141 0.638955 0.323586 -0.359957
H245  H     H_    0.377293 0.642083 0.353482 0.249579
H246  H     H_    0.362149 0.607796 0.304794 0.236077
C229  C     C_3   0.472909 0.598762 0.324902 -1.017626
H247  H     H_    0.496816 0.595015 0.295286 0.263946
H248  H     H_    0.464377 0.542852 0.336228 0.272598
H249  H     H_    0.511691 0.627458 0.344392 0.271889
O84   O     O_3   0.666579 0.227889 0.683263 -0.613231
C230  C     C_3   0.703799 0.178364 0.658991 0.138359
H250  H     H_    0.710447 0.124901 0.673872 0.111053
H251  H     H_    0.758438 0.199897 0.650735 0.150970
C231  C     C_3   0.659119 0.167191 0.622026 -0.329718
H252  H     H_    0.603230 0.150072 0.630171 0.242970
H253  H     H_    0.655393 0.219422 0.605869 0.218091
C232  C     C_3   0.692819 0.109430 0.595737 -0.971146
H254  H     H_    0.749118 0.125215 0.587425 0.264219
H255  H     H_    0.659672 0.103861 0.568886 0.278398
H256  H     H_    0.694048 0.056040 0.610843 0.263549

loop_
_geom_bond_atom_site_label_1
_geom_bond_atom_site_label_2
_ccdc_geom_bond_type
C214  H214  S    
O83   C227  S    
C142  H45   S    
O1    Zn16  S    
C26   C29   A    
C221  C222  S    
O73   C197  S    
C71   C122  A    
C78   C115  A    
O18   Zn3   S    
C178  H130  S    
C203  H187  S    
C56   O50   A    
C164  H96   S    
O24   Zn13  S    
C66   O54   S    
C224  H236  S    
O54   C140  S    
C66   C79   A    
C27   C99   A    
C149  H61   S    
C7    C99   A    
C187  H149  S    
C182  H139  S    
C48   O20   A    
O14   Zn7   S    
C224  C225  S    
C7    H23   S    
C146  H54   S    
C147  C148  S    
C227  H243  S    
C147  H56   S    
C188  H152  S    
C218  C219  S    
O36   Zn14  S    
C185  C186  S    
C6    H22   S    
C157  H79   S    
C43   O7    A    
C36   H12   S    
C155  C156  S    
O51   Zn5   S    
C89   O77   S    
C199  H177  S    
C163  H95   S    
C3    C19   A    
C161  H89   S    
C37   C109  A    
C175  H123  S    
C83   O71   S    
C197  C198  S    
C39   C111  A    
C64   O36   A    
O3    Zn10  S    
C10   H26   S    
C185  H146  S    
C206  H195  S    
C191  C192  S    
C64   O42   A    
O32   Zn10  S    
O47   Zn1   S    
O50   Zn8   S    
C92   O80   S    
C157  H80   S    
C228  H246  S    
C109  C133  A    
C226  H240  S    
C34   C106  A    
C151  H67   S    
C144  H49   S    
C165  H98   S    
C47   O15   A    
C92   C123  A    
C48   O16   A    
O19   Zn6   S    
C72   C73   A    
C94   O82   S    
O60   C158  S    
C200  H180  S    
C96   C127  A    
C70   O58   S    
C196  H172  S    
C194  H167  S    
C229  H247  S    
C18   C44   S    
C57   C123  S    
C20   C42   S    
O59   C155  S    
C215  C216  S    
O78   C212  S    
C30   C102  A    
C231  C232  S    
C13   C21   A    
C61   C127  S    
C232  H254  S    
C82   O70   S    
C46   O18   A    
C88   C119  A    
C225  H238  S    
C49   C115  S    
C200  H181  S    
C7    C19   A    
O2    Zn6   S    
C176  H124  S    
C232  H256  S    
C183  H141  S    
O76   C206  S    
C178  H128  S    
C203  C204  S    
C1    C101  A    
C164  C165  S    
C191  H159  S    
C105  C133  A    
C138  C139  S    
C200  C201  S    
C3    C103  A    
C68   C77   A    
C144  H50   S    
C159  C160  S    
C57   O29   A    
C187  H151  S    
C102  C130  A    
C71   O59   S    
C213  H210  S    
C177  H127  S    
O3    Zn3   S    
C100  C132  A    
C84   O72   S    
C220  H228  S    
C78   O66   S    
O2    Zn15  S    
C49   O47   A    
C33   C38   A    
C227  C228  S    
C24   C46   S    
C35   C40   A    
O31   Zn9   S    
C222  H232  S    
C74   O62   S    
C172  H114  S    
C34   H10   S    
C9    C21   A    
C42   O10   A    
O15   Zn2   S    
C91   O79   S    
C4    C104  A    
C11   C23   A    
C167  H103  S    
C86   C117  A    
C84   C93   A    
C31   H7    S    
C205  H191  S    
C32   H8    S    
C35   C107  A    
C60   O32   A    
C4    C20   A    
C204  C205  S    
C88   C89   A    
C150  H64   S    
C160  H86   S    
C170  H110  S    
C62   O44   A    
O80   C218  S    
C226  H241  S    
C184  H142  S    
O66   C176  S    
C73   O61   S    
C216  C217  S    
C195  H169  S    
C54   O26   A    
C148  H58   S    
C36   C108  A    
O45   Zn3   S    
C168  H105  S    
C165  C166  S    
C45   O17   A    
C173  H117  S    
C168  C169  S    
C190  H157  S    
C198  H175  S    
C139  H37   S    
O23   Zn14  S    
C140  H40   S    
C220  H226  S    
C63   O35   A    
C80   O68   S    
C41   O9    A    
O22   Zn11  S    
C199  H179  S    
C195  C196  S    
C171  H112  S    
C2    C102  A    
C39   H15   S    
C40   H16   S    
C205  H193  S    
C138  H35   S    
C93   C126  A    
C159  H85   S    
C188  H153  S    
O2    Zn2   S    
C95   C128  A    
C153  C154  S    
C204  H189  S    
C81   C114  A    
C176  C177  S    
C208  H199  S    
O41   Zn8   S    
C14   H30   S    
C79   O67   S    
O25   Zn16  S    
O5    Zn16  S    
C223  H234  S    
C2    H18   S    
O53   C137  S    
C162  H92   S    
C15   H31   S    
C85   C118  A    
C112  C136  A    
C213  C214  S    
C11   H27   S    
C186  H148  S    
C85   C92   A    
C175  H122  S    
C223  H235  S    
O16   Zn1   S    
C207  H197  S    
C210  H204  S    
C197  H173  S    
O21   Zn12  S    
C81   O69   S    
C163  H93   S    
C42   O6    A    
C172  H116  S    
C167  C168  S    
C27   H3    S    
C212  H209  S    
C151  H66   S    
C25   H1    S    
C152  H68   S    
O39   Zn6   S    
C190  H156  S    
C58   O40   A    
C160  H88   S    
C29   H5    S    
C32   C104  A    
O52   Zn6   S    
C184  H144  S    
C9    H25   S    
C225  C226  S    
C231  H252  S    
C145  H52   S    
C141  C142  S    
C25   C97   A    
O70   C188  S    
C215  H216  S    
C52   O46   A    
C156  H77   S    
C166  H101  S    
C14   C22   A    
C90   C121  A    
C181  H136  S    
C110  C134  A    
C47   O19   A    
C12   C112  A    
C51   O23   A    
C189  H154  S    
C129  C130  A    
C198  C199  S    
C214  H213  S    
C41   O5    A    
C155  H75   S    
C140  C141  S    
C82   C95   A    
C229  H249  S    
C183  H140  S    
C36   C39   A    
C44   O8    A    
C82   C113  A    
C5    C97   A    
C143  H47   S    
C178  H129  S    
C145  H53   S    
C203  H188  S    
O4    Zn9   S    
C93   O81   S    
C59   C125  S    
C12   C24   A    
C1    C17   A    
C230  C231  S    
C46   O14   A    
C187  H150  S    
C8    C100  A    
C40   C112  A    
C72   O60   S    
O11   Zn14  S    
C77   O65   S    
O8    Zn9   S    
C225  H239  S    
C51   C117  S    
C227  H244  S    
C170  C171  S    
C217  H220  S    
C218  H223  S    
C154  H74   S    
C106  C134  A    
C80   C113  A    
C149  C150  S    
C199  H178  S    
C169  H107  S    
C148  H60   S    
C70   C75   A    
C73   C120  A    
C141  H42   S    
C231  H253  S    
C193  H163  S    
C103  C131  A    
C68   C125  A    
C209  C210  S    
C67   O55   S    
O55   C143  S    
C87   O75   S    
C211  H205  S    
C21   C47   S    
C101  C129  A    
C53   O51   A    
C146  C147  S    
C22   C48   S    
O69   C185  S    
C23   C45   S    
C72   C121  A    
C34   C37   A    
C53   O25   A    
O75   C203  S    
C201  C202  S    
O26   Zn15  S    
O62   C164  S    
O6    Zn15  S    
C44   O12   A    
O9    Zn12  S    
C96   O84   S    
C45   O13   A    
C135  C136  A    
C55   O49   A    
C201  H182  S    
O4    Zn13  S    
C10   C22   A    
C137  C138  S    
C43   O11   A    
C219  H224  S    
O29   Zn11  S    
C6    C98   A    
C165  H99   S    
O68   C182  S    
C152  C153  S    
C86   C91   A    
C174  H120  S    
C180  C181  S    
C94   C125  A    
C5    C17   A    
C221  H229  S    
C162  H91   S    
C15   C107  A    
C196  H171  S    
C62   O34   A    
C229  H248  S    
C56   O28   A    
C58   O30   A    
C158  C159  S    
C217  H221  S    
C38   C110  A    
C189  C190  S    
C59   O37   A    
C153  H71   S    
C142  H46   S    
C228  H245  S    
O7    Zn10  S    
C232  H255  S    
C75   C118  A    
C63   O41   A    
C143  C144  S    
C164  H97   S    
C191  H160  S    
C209  H202  S    
C224  H237  S    
C9    C109  A    
C11   C111  A    
C194  H166  S    
C65   C128  A    
C214  H212  S    
C182  C183  S    
C33   C105  A    
C213  H211  S    
C67   C126  A    
O63   C167  S    
C81   C96   A    
C69   C124  A    
C83   C94   A    
C230  H250  S    
O27   Zn10  S    
C192  H161  S    
C222  H231  S    
O4    Zn4   S    
C12   H28   S    
C13   H29   S    
C207  C208  S    
C50   O48   A    
O79   C215  S    
C98   C130  A    
C50   C116  S    
C167  H104  S    
C29   C101  A    
C8    C20   A    
C205  H192  S    
O49   Zn7   S    
C211  H207  S    
C13   C105  A    
C4    H20   S    
O3    Zn7   S    
O12   Zn13  S    
C5    H21   S    
C185  H145  S    
C217  H219  S    
C206  C207  S    
O1    Zn5   S    
C228  C229  S    
C226  H242  S    
C131  C132  A    
C8    H24   S    
O82   C224  S    
C141  H43   S    
C25   C30   A    
C216  H218  S    
C137  H33   S    
C27   C32   A    
C149  H62   S    
C28   C31   A    
C37   H13   S    
C179  H131  S    
C26   H2    S    
C71   C74   A    
C173  H118  S    
C180  H133  S    
C168  H106  S    
C107  C135  A    
C158  H83   S    
C99   C131  A    
C150  C151  S    
O37   Zn4   S    
C76   C117  A    
C30   H6    S    
O1    Zn12  S    
C75   O63   S    
C208  H200  S    
C192  H162  S    
C194  C195  S    
O10   Zn11  S    
C139  H39   S    
C202  H186  S    
O4    Zn8   S    
C111  C135  A    
C171  H113  S    
C10   C110  A    
C76   O64   S    
O61   C161  S    
C50   O22   A    
C173  C174  S    
C97   C129  A    
C14   C106  A    
O28   Zn9   S    
C152  H69   S    
C104  C132  A    
C87   C90   A    
C176  H125  S    
O56   C146  S    
C19   C41   S    
C157  H81   S    
C52   C118  S    
C144  C145  S    
C55   O27   A    
C166  H100  S    
O72   C194  S    
C54   C120  S    
C2    C18   A    
O42   Zn7   S    
C182  H138  S    
C28   H4    S    
C154  H72   S    
C60   O38   A    
C177  H126  S    
C17   C43   S    
C186  H147  S    
C230  H251  S    
O67   C179  S    
C74   C119  A    
C156  C157  S    
C95   O83   S    
C210  H203  S    
C150  H63   S    
C197  H174  S    
C69   C76   A    
C171  C172  S    
O58   C152  S    
C201  H183  S    
C108  C136  A    
C222  C223  S    
C172  H115  S    
C61   O43   A    
C174  C175  S    
O30   Zn12  S    
O33   Zn15  S    
C49   O21   A    
C216  H217  S    
C137  H34   S    
C66   C127  A    
C208  H198  S    
C52   O24   A    
C90   O78   S    
C61   O33   A    
C70   C123  A    
C69   O57   S    
C139  H38   S    
C160  H87   S    
O17   Zn4   S    
C206  H194  S    
C184  H143  S    
C77   C116  A    
C147  H57   S    
C209  H201  S    
C28   C100  A    
C15   C23   A    
C195  H168  S    
C16   C24   A    
C65   C80   A    
C181  H137  S    
C65   O53   S    
C196  H170  S    
C67   C78   A    
C161  C162  S    
C179  C180  S    
C3    H19   S    
C63   C121  S    
C189  H155  S    
C190  H158  S    
O44   Zn1   S    
C198  H176  S    
O13   Zn8   S    
C6    C18   A    
O1    Zn1   S    
C140  H41   S    
C143  H48   S    
O20   Zn5   S    
C192  C193  S    
C59   O31   A    
C202  H184  S    
C55   C113  S    
O57   C149  S    
O43   Zn2   S    
C183  C184  S    
C138  H36   S    
C31   C103  A    
C1    H17   S    
C68   O56   S    
C159  H84   S    
O40   Zn5   S    
O38   Zn3   S    
C218  H222  S    
O2    Zn11  S    
O81   C221  S    
C170  H111  S    
C35   H11   S    
O74   C200  S    
C154  H73   S    
C179  H132  S    
O46   Zn4   S    
C26   C98   A    
C223  H233  S    
C86   O74   S    
C84   C115  A    
C169  H108  S    
C91   C124  A    
C148  H59   S    
C162  C163  S    
C79   C114  A    
C193  H164  S    
C142  H44   S    
C177  C178  S    
C186  C187  S    
C88   O76   S    
C175  H121  S    
C211  H206  S    
O65   C173  S    
C146  H55   S    
C207  H196  S    
C153  H70   S    
C210  C211  S    
C204  H190  S    
C83   C116  A    
C219  H225  S    
C161  H90   S    
C53   C119  S    
C54   O52   A    
C169  H109  S    
C57   O39   A    
C58   C124  S    
C202  H185  S    
C85   O73   S    
C212  C213  S    
C151  H65   S    
C193  H165  S    
C60   C126  S    
C156  H78   S    
C158  H82   S    
C87   C120  A    
C220  H227  S    
C174  H119  S    
C62   C128  S    
C180  H134  S    
C51   O45   A    
C133  C134  A    
C16   H32   S    
C64   C122  S    
C155  H76   S    
C188  C189  S    
O84   C230  S    
C221  H230  S    
O64   C170  S    
O48   Zn2   S    
C145  H51   S    
C16   C108  A    
O34   Zn16  S    
O71   C191  S    
O35   Zn13  S    
C163  H94   S    
C215  H215  S    
C219  C220  S    
C166  H102  S    
C56   C114  S    
C181  H135  S    
O77   C209  S    
C38   H14   S    
C212  H208  S    
C89   C122  A    
C33   H9    S    
O3    Zn14  S    
