data_mof_unit_46055.cif
_audit_creation_date              2012-12-11T16:50:49-0500
_audit_creation_method            fapswitch 2.2
_symmetry_space_group_name_H-M    P1
_symmetry_Int_Tables_number       1
_space_group_crystal_system       triclinic
_cell_length_a                    6.924543
_cell_length_b                    28.803852
_cell_length_c                    32.191335
_cell_angle_alpha                 100.866099
_cell_angle_beta                  89.977871
_cell_angle_gamma                 90.133765
_cell_volume                      6305.53765251

loop_
_atom_site_label
_atom_site_type_symbol
_atom_type_description
_atom_site_fract_x
_atom_site_fract_y
_atom_site_fract_z
_atom_type_partial_charge
O1    O     O_R   0.494350 0.453170 0.452520 -0.542941
O2    O     O_R   0.820980 0.455850 0.538220 -0.538001
O3    O     O_R   0.994300 0.546830 0.547480 -0.542424
C1    C     C_R   0.652279 0.445833 0.551839 0.733722
O4    O     O_R   0.823860 0.447590 0.452270 -0.514430
O5    O     O_R   0.997200 0.538510 0.460920 -0.536892
C2    C     C_R   0.654918 0.434658 0.436795 0.747536
O6    O     O_R   0.491440 0.461490 0.539080 -0.542033
O7    O     O_3   0.661790 0.529840 0.502940 -0.373818
V1    V     V_3+5 0.935470 0.494460 0.499450 1.475990
O8    O     O_R   0.327090 0.544150 0.461780 -0.536949
C3    C     C_R   0.158149 0.555558 0.449229 0.725319
O9    O     O_R   0.324210 0.552410 0.547730 -0.548678
C4    C     C_R   0.155224 0.565316 0.563387 0.679987
V2    V     V_3+5 0.435840 0.505540 0.500550 1.433659
O10   O     O_3   0.159650 0.470160 0.497060 -0.357781
C5    C     C_R   0.225906 0.877221 0.883689 -0.100393
H1    H     H_    0.358408 0.890025 0.899768 0.127196
C6    C     C_R   0.237428 0.841363 0.847795 -0.127576
H2    H     H_    0.378107 0.827320 0.837594 0.105656
C7    C     C_R   0.069699 0.823425 0.825742 0.093032
C8    C     C_R   0.889766 0.842090 0.840900 -0.123230
H3    H     H_    0.757745 0.829637 0.824453 0.098905
C9    C     C_R   0.878126 0.877878 0.876944 -0.150816
H4    H     H_    0.737364 0.891637 0.887444 0.115364
C10   C     C_R   0.046195 0.896094 0.898707 -0.035833
C11   C     C_R   0.943543 0.749406 0.778789 -0.128064
H5    H     H_    0.826122 0.747947 0.800725 0.128241
C12   C     C_R   0.956207 0.713963 0.742553 -0.135356
H6    H     H_    0.848085 0.686258 0.737674 0.123258
C13   C     C_R   0.108420 0.713720 0.713504 0.078474
C14   C     C_R   0.247734 0.749923 0.721788 -0.141879
H7    H     H_    0.365096 0.751412 0.699845 0.112805
C15   C     C_R   0.235099 0.785356 0.758029 -0.145318
H8    H     H_    0.343201 0.813066 0.762909 0.109568
C16   C     C_R   0.082825 0.785615 0.787060 0.080659
C17   C     C_R   0.301175 0.657496 0.659385 -0.122651
H9    H     H_    0.433328 0.669910 0.675794 0.102150
C18   C     C_R   0.312658 0.621947 0.623158 -0.149657
H10   H     H_    0.453420 0.608322 0.612512 0.118321
C19   C     C_R   0.144478 0.603807 0.601387 -0.051151
C20   C     C_R   0.964772 0.622428 0.616675 -0.144230
H11   H     H_    0.832130 0.609595 0.600678 0.120626
C21   C     C_R   0.953405 0.658060 0.652749 -0.131351
H12   H     H_    0.812707 0.671951 0.663115 0.099675
C22   C     C_R   0.121290 0.675999 0.674741 0.096008
C23   C     C_R   0.051727 0.660204 0.285660 0.664218
N1    N     N_R   0.106365 0.678776 0.326492 -0.534263
C24   C     C_R   0.152887 0.725926 0.337916 0.589630
C25   C     C_R   0.148203 0.755840 0.307934 -0.033126
C26   C     C_R   0.085981 0.737469 0.266482 -0.008387
C27   C     C_R   0.034728 0.689417 0.255307 -0.058865
C28   C     C_R   0.203820 0.803631 0.318437 -0.118510
C29   C     C_R   0.199035 0.832593 0.288109 -0.137612
C30   C     C_R   0.134767 0.814759 0.246748 -0.058142
C31   C     C_R   0.075941 0.767151 0.236065 -0.005680
C32   C     C_R   0.007903 0.749074 0.194981 -0.046905
C33   C     C_R   0.953670 0.701236 0.184386 -0.091171
C34   C     C_R   0.968899 0.671657 0.214034 -0.121643
C35   C     C_R   0.128930 0.843207 0.215615 0.752417
N2    N     N_R   0.060023 0.825268 0.175804 -0.509345
C36   C     C_R   0.997323 0.779273 0.165387 0.762580
O11   O     O_2   0.016095 0.613473 0.274187 -0.499933
O12   O     O_2   0.202149 0.744062 0.378265 -0.514735
H13   H     H_    0.253025 0.818733 0.350037 0.174853
H14   H     H_    0.244843 0.869066 0.297266 0.176877
O13   O     O_2   0.192699 0.888251 0.224930 -0.470254
O14   O     O_2   0.926224 0.762710 0.126400 -0.482949
H15   H     H_    0.901321 0.686335 0.152993 0.188849
H16   H     H_    0.927583 0.634896 0.204564 0.180232
C37   C     C_R   0.191919 0.847018 0.109997 0.355003
C38   C     C_R   0.173909 0.872994 0.076471 0.331701
C39   C     C_R   0.041410 0.911270 0.080871 -0.300467
C40   C     C_R   0.913340 0.918756 0.115091 -0.278748
H17   H     H_    0.810037 0.947407 0.117984 0.194564
C41   C     C_R   0.915342 0.890324 0.145768 0.499680
C42   C     C_R   0.056962 0.854740 0.143983 0.054166
C43   C     C_R   0.291493 0.645085 0.379431 -0.165124
H18   H     H_    0.415520 0.665486 0.372825 0.194722
C44   C     C_R   0.306056 0.617611 0.410879 0.303447
C45   C     C_R   0.146996 0.589268 0.419061 -0.193634
C46   C     C_R   0.973107 0.592641 0.397063 -0.310285
H19   H     H_    0.848909 0.571979 0.403128 0.171161
C47   C     C_R   0.956356 0.622394 0.367067 0.440897
C48   C     C_R   0.118028 0.648327 0.357638 0.264233
C49   C     C_R   0.687504 0.218246 0.835682 0.706508
N3    N     N_R   0.564185 0.180217 0.828314 -0.564264
C50   C     C_R   0.449349 0.171958 0.793060 0.575259
C51   C     C_R   0.459303 0.201645 0.763081 0.041467
C52   C     C_R   0.587016 0.240651 0.769796 -0.055786
C53   C     C_R   0.696472 0.250774 0.807465 -0.211749
C54   C     C_R   0.344969 0.192836 0.726403 -0.147727
C55   C     C_R   0.358237 0.221774 0.696386 -0.114508
C56   C     C_R   0.486291 0.260316 0.702190 0.063546
C57   C     C_R   0.601191 0.270018 0.739081 -0.069939
C58   C     C_R   0.733310 0.308076 0.744580 -0.237722
C59   C     C_R   0.856274 0.315239 0.780677 0.369752
C60   C     C_R   0.815943 0.291789 0.814602 0.351540
C61   C     C_R   0.501032 0.289521 0.671871 0.612304
N4    N     N_R   0.620469 0.328143 0.678560 -0.582572
C62   C     C_R   0.732506 0.338340 0.714277 0.721943
O15   O     O_2   0.805634 0.223337 0.869453 -0.466991
O16   O     O_2   0.328693 0.134428 0.786476 -0.532841
H20   H     H_    0.244923 0.163362 0.720635 0.164506
H21   H     H_    0.267579 0.213755 0.668532 0.163139
O17   O     O_2   0.395277 0.279603 0.636080 -0.514647
O18   O     O_2   0.834565 0.378927 0.721303 -0.432976
C63   C     C_R   0.465846 0.386388 0.640065 0.415800
C64   C     C_R   0.474029 0.413026 0.607879 -0.182895
H22   H     H_    0.348833 0.433650 0.602583 0.150528
C65   C     C_R   0.643073 0.414990 0.584085 -0.140332
C66   C     C_R   0.804479 0.388680 0.592555 -0.172465
H23   H     H_    0.937268 0.389453 0.574909 0.155978
C67   C     C_R   0.795884 0.360596 0.623621 -0.086467
H24   H     H_    0.920825 0.339973 0.629021 0.182554
C68   C     C_R   0.627410 0.358793 0.647587 0.237457
C69   C     C_R   0.723303 0.123265 0.866279 -0.090854
H25   H     H_    0.857074 0.127354 0.849887 0.139856
C70   C     C_R   0.718011 0.093173 0.895782 -0.196678
H26   H     H_    0.848472 0.074678 0.901490 0.127044
C71   C     C_R   0.545813 0.086732 0.917269 -0.053555
C72   C     C_R   0.379402 0.111295 0.908510 -0.205808
H27   H     H_    0.244256 0.107326 0.924433 0.136759
C73   C     C_R   0.385519 0.141772 0.879393 -0.058544
H28   H     H_    0.256368 0.160759 0.873677 0.159416
C74   C     C_R   0.557394 0.148084 0.857969 0.353635
C75   C     C_R   0.706858 0.134152 0.107673 -0.155265
H29   H     H_    0.825860 0.129628 0.085435 0.123876
C76   C     C_R   0.714358 0.171224 0.142739 -0.121429
H30   H     H_    0.838651 0.194528 0.146488 0.128516
C77   C     C_R   0.562423 0.178477 0.172332 0.077717
C78   C     C_R   0.403988 0.147188 0.166101 -0.128416
H31   H     H_    0.287421 0.150742 0.188909 0.141672
C79   C     C_R   0.393941 0.110984 0.130386 -0.143536
H32   H     H_    0.269047 0.087854 0.126280 0.125478
C80   C     C_R   0.545501 0.103993 0.100842 -0.050773
C81   C     C_R   0.409982 0.246067 0.225345 0.357414
C82   C     C_R   0.424085 0.279211 0.263233 -0.136168
H33   H     H_    0.295387 0.298617 0.274908 0.126149
C83   C     C_R   0.600223 0.287998 0.285258 0.022637
C84   C     C_R   0.762221 0.261235 0.268898 -0.122359
H34   H     H_    0.901972 0.267326 0.283973 0.131227
C85   C     C_R   0.747531 0.226183 0.232505 -0.149424
H35   H     H_    0.874229 0.205262 0.222006 0.159790
C86   C     C_R   0.572443 0.217688 0.210157 -0.024659
C87   C     C_R   0.750152 0.321538 0.356578 -0.217910
H36   H     H_    0.840765 0.290542 0.353561 0.108415
C88   C     C_R   0.767230 0.357065 0.393277 0.355688
C89   C     C_R   0.643810 0.396634 0.398674 -0.079964
C90   C     C_R   0.507589 0.400147 0.367162 -0.223625
H37   H     H_    0.412771 0.430499 0.370507 0.139828
C91   C     C_R   0.495379 0.365532 0.330453 -0.129716
H38   H     H_    0.393221 0.370907 0.306411 0.128740
C92   C     C_R   0.615314 0.325408 0.324577 0.074783
O19   O     O_R   0.699170 0.038480 0.960880 -0.546660
O20   O     O_R   0.366800 0.052460 0.047690 -0.546433
O21   O     O_R   0.193520 0.961530 0.039110 -0.507648
C93   C     C_R   0.535659 0.065296 0.063271 0.695382
O22   O     O_R   0.369630 0.044100 0.961740 -0.549761
O23   O     O_R   0.196370 0.953120 0.952550 -0.530997
C94   C     C_R   0.538214 0.054346 0.948281 0.683737
O24   O     O_R   0.696320 0.046890 0.047450 -0.543830
O25   O     O_3   0.528890 0.970170 0.997080 -0.340973
V3    V     V_3+5 0.255190 0.005530 0.000540 1.483381
O26   O     O_R   0.866460 0.947530 0.952310 -0.551533
C95   C     C_R   0.035354 0.934809 0.936516 0.740507
O27   O     O_R   0.863630 0.955880 0.038270 -0.530008
C96   C     C_R   0.032676 0.944628 0.050711 0.868240
V4    V     V_3+5 0.754830 0.994440 0.999470 1.474819
O28   O     O_3   0.031000 0.029830 0.002920 -0.388228
S1    S     S_3+6 0.384593 0.805837 0.110681 0.150868
O29   O     O_2   0.431712 0.799822 0.154866 -0.309041
O30   O     O_2   0.324565 0.758602 0.085569 -0.265155
O31   O     O_3   0.586020 0.824507 0.089579 -0.442732
H39   H     H_    0.657684 0.795413 0.077400 0.404037
S2    S     S_3+6 0.300781 0.855517 0.027621 0.084496
O32   O     O_2   0.335270 0.803130 0.018009 -0.256387
O33   O     O_2   0.186506 0.867930 0.991643 -0.362707
O34   O     O_3   0.514096 0.883951 0.030926 -0.468282
H40   H     H_    0.581811 0.870859 0.004182 0.363809
S3    S     S_3+6 0.741237 0.902189 0.186808 0.096357
O35   O     O_2   0.814972 0.941925 0.220164 -0.298143
O36   O     O_2   0.555307 0.917249 0.169254 -0.295395
O37   O     O_3   0.698512 0.854753 0.208936 -0.485445
H41   H     H_    0.607271 0.865932 0.232370 0.377890
O38   O     O_3   0.476456 0.620405 0.433269 -0.637481
H42   H     H_    0.443673 0.621295 0.463350 0.299969
O39   O     O_3   0.783551 0.626920 0.346846 -0.618153
H43   H     H_    0.687674 0.604925 0.355435 0.307100
S4    S     S_3+6 0.086083 0.342799 0.779233 0.113457
O40   O     O_2   0.162262 0.331334 0.734867 -0.360644
O41   O     O_2   0.066977 0.395473 0.792627 -0.227651
O42   O     O_3   0.245010 0.322615 0.811062 -0.451593
H44   H     H_    0.367582 0.339216 0.807469 0.374294
S5    S     S_3+6 0.882297 0.319980 0.866916 0.161677
O43   O     O_2   0.061025 0.297305 0.880490 -0.254468
O44   O     O_2   0.919876 0.371757 0.868894 -0.246385
O45   O     O_3   0.700676 0.314539 0.900429 -0.456427
H45   H     H_    0.751567 0.328166 0.928879 0.385565
O46   O     O_3   0.299445 0.389131 0.663853 -0.607459
H46   H     H_    0.329372 0.378723 0.690648 0.361313
O47   O     O_3   0.236637 0.243690 0.203924 -0.660311
H47   H     H_    0.260819 0.231793 0.173481 0.291123
O48   O     O_3   0.899172 0.353107 0.424592 -0.641316
H48   H     H_    0.974622 0.323661 0.415879 0.290716

loop_
_geom_bond_atom_site_label_1
_geom_bond_atom_site_label_2
_ccdc_geom_bond_type
C62   O18   S    
O21   V3    S    
N3    C50   A    
C55   C56   A    
C11   C12   A    
C69   H25   S    
C19   C20   A    
V3    O28   S    
C57   C58   A    
N4    C68   S    
C1    O6    A    
C66   C67   A    
C67   H24   S    
C52   C53   A    
C32   C36   A    
C18   C19   A    
C7    C16   S    
C28   C29   A    
O19   C94   A    
C37   S1    S    
S1    O30   D    
S4    O40   D    
C83   C84   A    
C40   C41   A    
C5    C10   A    
O23   V3    S    
C81   C86   A    
C6    C7    A    
C17   H9    S    
C9    C10   A    
C26   C31   A    
C49   C53   A    
C69   C70   A    
C23   O11   S    
C43   C44   A    
C81   O47   S    
C85   H35   S    
C59   C60   A    
C63   C64   A    
C5    H1    S    
C15   H8    S    
C39   C40   A    
O31   H39   S    
N4    C62   A    
S4    O42   S    
C55   H21   S    
C2    C89   S    
O8    V2    S    
C47   C48   A    
S2    O34   S    
C65   C66   A    
C35   O13   S    
N2    C42   S    
C78   H31   S    
C13   C22   S    
C3    C45   S    
O22   C94   A    
C9    H4    S    
S2    O32   D    
O45   H45   S    
O1    V2    S    
O23   C95   A    
C28   H13   S    
C69   C74   A    
O42   H44   S    
C38   C39   A    
S5    O45   S    
C80   C93   S    
S3    O36   D    
C24   O12   S    
O1    C2    A    
C30   C35   A    
N2    C36   A    
C84   H34   S    
C20   C21   A    
C39   C96   S    
O21   C96   A    
C8    H3    S    
C66   H23   S    
C21   C22   A    
C45   C46   A    
C87   C88   A    
C41   C42   A    
C70   C71   A    
O26   V4    S    
C17   C18   A    
S1    O31   S    
C25   C28   A    
O47   H47   S    
C26   C27   A    
V4    O28   S    
C52   C57   A    
C58   C62   A    
C75   C80   A    
O27   V4    S    
C40   H17   S    
O27   C96   A    
O4    C2    A    
C54   H20   S    
C49   N3    A    
O46   H46   S    
C79   C80   A    
C33   C34   A    
S3    O35   D    
O34   H40   S    
O39   H43   S    
C84   C85   A    
C14   C15   A    
C63   O46   S    
O2    C1    A    
C75   C76   A    
C12   H6    S    
C27   C34   A    
O19   V4    S    
C23   N1    A    
C87   C92   A    
O8    C3    A    
C71   C94   S    
C58   C59   A    
C30   C31   A    
C25   C26   A    
C90   C91   A    
O48   H48   S    
C51   C54   A    
S1    O29   D    
C71   C72   A    
C23   C27   A    
O3    C4    A    
C82   C83   A    
O38   H42   S    
C4    C19   S    
C43   C48   A    
C59   S4    S    
C1    C65   S    
C91   C92   A    
C46   H19   S    
O6    V2    S    
C46   C47   A    
O9    V2    S    
O9    C4    A    
C8    C9    A    
C47   O39   S    
C31   C32   A    
C72   C73   A    
C75   H29   S    
O2    V1    S    
C37   C42   A    
C50   O16   S    
C21   H12   S    
C88   O48   S    
C73   C74   A    
C87   H36   S    
O7    V1    S    
S3    O37   S    
C85   C86   A    
C61   O17   S    
C29   C30   A    
C10   C95   S    
S4    O41   D    
C43   H18   S    
N1    C48   S    
C13   C14   A    
C44   C45   A    
O5    V1    S    
C67   C68   A    
C70   H26   S    
C33   H15   S    
C79   H32   S    
C29   H14   S    
C11   C16   A    
C81   C82   A    
C76   H30   S    
C90   H37   S    
C61   N4    A    
C36   O14   S    
C14   H7    S    
C63   C68   A    
C6    H2    S    
O20   C93   A    
C51   C52   A    
O4    V1    S    
C12   C13   A    
O3    V1    S    
V1    O10   S    
C89   C90   A    
O5    C3    A    
C32   C33   A    
O24   V4    S    
C56   C61   A    
N1    C24   A    
V2    O10   S    
C64   C65   A    
S2    O33   D    
C54   C55   A    
C5    C6    A    
C60   S5    S    
C77   C86   S    
C15   C16   A    
C88   C89   A    
C38   S2    S    
C53   C60   A    
O7    V2    S    
C56   C57   A    
O25   V4    S    
O25   V3    S    
C82   H33   S    
C93   O24   A    
C34   H16   S    
S5    O43   D    
C18   H10   S    
O26   C95   A    
C37   C38   A    
C50   C51   A    
O20   V3    S    
C78   C79   A    
C24   C25   A    
C20   H11   S    
C64   H22   S    
C11   H5    S    
C72   H27   S    
C44   O38   S    
O22   V3    S    
C35   N2    A    
O37   H41   S    
C91   H38   S    
C76   C77   A    
C17   C22   A    
C7    C8    A    
N3    C74   S    
C41   S3    S    
C77   C78   A    
C83   C92   S    
C73   H28   S    
S5    O44   D    
C49   O15   S    
