data_mof_unit_33113.cif
_audit_creation_date              2012-12-10T17:42:42-0500
_audit_creation_method            fapswitch 2.2
_symmetry_space_group_name_H-M    P1
_symmetry_Int_Tables_number       1
_space_group_crystal_system       triclinic
_cell_length_a                    9.906839
_cell_length_b                    10.719385
_cell_length_c                    13.0655
_cell_angle_alpha                 91.298052
_cell_angle_beta                  71.238787
_cell_angle_gamma                 89.276665
_cell_volume                      1313.14455869

loop_
_atom_site_label
_atom_site_type_symbol
_atom_type_description
_atom_site_fract_x
_atom_site_fract_y
_atom_site_fract_z
_atom_type_partial_charge
C1    C     C_R   0.500833 0.740172 0.493606 0.878600
C2    C     C_R   0.382182 0.435902 0.812250 -0.122328
C3    C     C_R   0.249446 0.893407 0.477081 -0.208548
C4    C     C_R   0.423711 0.482391 0.701657 0.853076
C5    C     C_R   0.117165 0.957140 0.510451 0.170818
C6    C     C_R   0.102965 0.069358 0.569167 -0.165488
C7    C     C_R   0.222742 0.123941 0.583280 -0.203872
C8    C     C_R   0.359187 0.066095 0.539006 0.104163
C9    C     C_R   0.368360 0.942274 0.501653 0.071981
C10   C     C_R   0.497020 0.874343 0.490127 -0.120711
C11   C     C_R   0.619429 0.935755 0.492946 -0.222310
C12   C     C_R   0.446336 0.401460 0.973923 0.093557
C13   C     C_R   0.616397 0.062682 0.506879 -0.217018
C14   C     C_R   0.488130 0.128781 0.526182 -0.120272
C15   C     C_R   0.798327 0.663030 0.643145 -0.141378
C16   C     C_R   0.495545 0.261146 0.511128 0.867941
C17   C     C_R   0.837861 0.740663 0.714944 -0.169101
C18   C     C_R   0.977179 0.738632 0.715775 -0.169346
C19   C     C_R   0.077967 0.659402 0.644408 -0.168933
C20   C     C_R   0.041538 0.578938 0.571095 0.139179
C21   C     C_R   0.897065 0.579752 0.570712 0.159434
C22   C     C_R   0.958101 0.423440 0.432688 -0.148227
C23   C     C_R   0.486633 0.402370 0.860441 0.089005
C24   C     C_R   0.101311 0.423711 0.432502 -0.119064
C25   C     C_R   0.578745 0.498098 0.295419 0.877196
C26   C     C_R   0.805403 0.446097 0.001921 -0.185794
C27   C     C_R   0.626012 0.477478 0.177734 -0.106593
C28   C     C_R   0.237547 0.428375 0.872759 -0.209313
C29   C     C_R   0.197912 0.397903 0.981194 -0.138254
C30   C     C_R   0.300097 0.390315 0.033162 -0.191207
C31   C     C_R   0.554071 0.417176 0.022435 0.072816
C32   C     C_R   0.699348 0.414036 0.957468 0.135789
C33   C     C_R   0.736242 0.381936 0.848003 -0.247401
C34   C     C_R   0.630361 0.373016 0.800235 -0.194517
C35   C     C_R   0.520458 0.447964 0.131856 -0.288089
C36   C     C_R   0.770311 0.479923 0.111211 0.085351
H1    H     H_    0.258608 0.809434 0.427973 0.166874
H2    H     H_    0.846913 0.369280 0.798375 0.144186
H3    H     H_    0.179321 0.361314 0.377379 0.147893
H4    H     H_    0.915241 0.448626 0.950565 0.134997
H5    H     H_    0.410525 0.453702 0.182185 0.168376
H6    H     H_    0.155704 0.445210 0.835999 0.150696
H7    H     H_    0.262492 0.372403 0.118578 0.122562
H8    H     H_    0.087450 0.384471 0.026455 0.159583
H9    H     H_    0.663161 0.344112 0.715913 0.184321
H10   H     H_    0.854908 0.607021 0.189555 0.201775
H11   H     H_    0.895875 0.454604 0.205229 0.198330
H12   H     H_    0.000154 0.116907 0.600185 0.141857
H13   H     H_    0.021610 0.821597 0.446308 0.179939
H14   H     H_    0.970878 0.968801 0.434095 0.164939
H15   H     H_    0.718825 0.885925 0.482674 0.183114
H16   H     H_    0.207620 0.211575 0.628705 0.164745
H17   H     H_    0.715377 0.108966 0.500228 0.168382
H18   H     H_    0.928421 0.360706 0.377890 0.138236
H19   H     H_    0.689867 0.672058 0.646868 0.209463
H20   H     H_    0.759897 0.803463 0.769796 0.148717
H21   H     H_    0.007902 0.799864 0.771155 0.150811
H22   H     H_    0.183449 0.664619 0.648223 0.213216
N1    N     N_R   0.856860 0.501200 0.500990 -0.121330
N2    N     N_R   0.142450 0.501280 0.501020 -0.122924
N3    N     N_3   0.882399 0.519583 0.150743 -0.475689
N4    N     N_3   0.995885 0.908065 0.487164 -0.461343
O1    O     O_R   0.385310 0.683220 0.500000 -0.641980
O2    O     O_R   0.614640 0.683250 0.500010 -0.633711
O3    O     O_R   0.328400 0.499950 0.653610 -0.639314
O4    O     O_R   0.557730 0.499970 0.653620 -0.639079
O5    O     O_R   0.385360 0.316750 0.499990 -0.618181
O6    O     O_R   0.614690 0.316780 0.500000 -0.628292
O7    O     O_R   0.442270 0.500030 0.346380 -0.613642
O8    O     O_R   0.671600 0.500050 0.346390 -0.617654
Zn1   Zn    Zn3+2 0.346880 0.499980 0.499990 0.915889
Zn2   Zn    Zn3+2 0.653120 0.500020 0.500010 0.913096

loop_
_geom_bond_atom_site_label_1
_geom_bond_atom_site_label_2
_ccdc_geom_bond_type
C19   H22   S    
H11   N3    S    
C2    C4    S    
C26   C32   A    
C6    C7    A    
C3    C9    A    
C14   C16   S    
C27   C36   A    
C20   N2    A    
C9    C10   A    
C18   H21   S    
O5    Zn1   S    
C33   H2    S    
C12   C23   A    
C24   N2    A    
N1    Zn2   S    
O6    Zn2   S    
C23   C34   A    
C12   C30   A    
C32   C33   A    
C2    C23   A    
C19   C20   A    
C17   C18   A    
O7    Zn1   S    
C7    C8    A    
C22   H18   S    
C34   H9    S    
O3    Zn1   S    
C13   C14   A    
C4    O4    A    
C11   C13   A    
C17   H20   S    
C26   H4    S    
C29   C30   A    
C6    H12   S    
H14   N4    S    
C1    O1    A    
C22   C24   A    
C26   C36   A    
C28   C29   A    
C11   H15   S    
O1    Zn1   S    
C5    N4    S    
C21   N1    A    
C13   H17   S    
C29   H8    S    
O2    Zn2   S    
C12   C31   A    
C5    C6    A    
C35   H5    S    
C31   C35   A    
C30   H7    S    
C25   C27   S    
C10   C11   A    
H10   N3    S    
C36   N3    S    
C1    O2    A    
C15   C21   A    
C24   H3    S    
C33   C34   A    
C20   C21   A    
C3    H1    S    
C15   C17   A    
C18   C19   A    
C25   O7    A    
C28   H6    S    
C22   N1    A    
C16   O5    A    
C4    O3    A    
H13   N4    S    
C2    C28   A    
C25   O8    A    
C8    C14   A    
N2    Zn1   S    
C27   C35   A    
C7    H16   S    
O8    Zn2   S    
O4    Zn2   S    
C1    C10   S    
C31   C32   A    
C16   O6    A    
C8    C9    A    
C3    C5    A    
C15   H19   S    
