data_mof_unit_16007.cif
_audit_creation_date              2012-12-10T17:35:44-0500
_audit_creation_method            fapswitch 2.2
_symmetry_space_group_name_H-M    P1
_symmetry_Int_Tables_number       1
_space_group_crystal_system       triclinic
_cell_length_a                    10.579256
_cell_length_b                    12.080226
_cell_length_c                    12.776432
_cell_angle_alpha                 95.83962
_cell_angle_beta                  92.023953
_cell_angle_gamma                 86.929985
_cell_volume                      1621.2875347

loop_
_atom_site_label
_atom_site_type_symbol
_atom_type_description
_atom_site_fract_x
_atom_site_fract_y
_atom_site_fract_z
_atom_type_partial_charge
C1    C     C_R   0.497799 0.524560 0.700642 0.983908
C2    C     C_R   0.502201 0.475440 0.299358 0.983902
C3    C     C_R   0.574438 0.474164 0.870811 0.390883
C4    C     C_R   0.425561 0.525836 0.129189 0.390889
C5    C     C_R   0.545018 0.461179 0.974336 -0.199618
C6    C     C_R   0.454980 0.538820 0.025664 -0.199615
C7    C     C_R   0.387034 0.943929 0.392786 0.384919
C8    C     C_R   0.612959 0.056072 0.607219 0.384915
C9    C     C_R   0.399708 0.830766 0.404810 -0.115840
C10   C     C_R   0.600289 0.169234 0.595192 -0.115839
C11   C     C_R   0.544899 0.861762 0.549184 0.520023
C12   C     C_R   0.455099 0.138238 0.450817 0.520029
C13   C     C_R   0.540644 0.978907 0.540244 -0.207919
C14   C     C_R   0.459352 0.021093 0.459759 -0.207918
C15   C     C_R   0.741855 0.501537 0.504384 0.935032
C16   C     C_R   0.258145 0.498463 0.495615 0.935040
C17   C     C_3   0.968243 0.430395 0.569036 0.120231
C18   C     C_3   0.031757 0.569605 0.430962 0.120229
C19   C     C_3   0.048698 0.532182 0.595494 0.134258
C20   C     C_3   0.951303 0.467818 0.404504 0.134269
C21   C     C_3   0.123975 0.497100 0.495186 -0.243997
C22   C     C_3   0.876025 0.502900 0.504812 -0.243996
C23   C     C_3   0.041784 0.395328 0.468839 0.145855
C24   C     C_3   0.958217 0.604673 0.531159 0.145840
C25   C     C_R   0.503301 0.455611 0.186375 -0.291563
C26   C     C_R   0.496698 0.544388 0.813625 -0.291558
C27   C     C_R   0.399995 0.627838 0.972367 0.427417
C28   C     C_R   0.600001 0.372161 0.027633 0.427420
C29   C     C_R   0.414421 0.626063 0.864363 0.263013
C30   C     C_R   0.585577 0.373936 0.135637 0.263005
H1    H     H_    0.653267 0.227930 0.646564 0.218382
H2    H     H_    0.346729 0.772071 0.353439 0.218378
N1    N     N_R   0.523490 0.207800 0.519350 -0.170252
N2    N     N_R   0.476510 0.792200 0.480650 -0.170249
O1    O     O_R   0.506270 0.421700 0.658830 -0.616199
O2    O     O_R   0.493730 0.578300 0.341170 -0.616196
O3    O     O_R   0.491200 0.609310 0.646410 -0.519718
O4    O     O_R   0.508800 0.390690 0.353590 -0.519719
O5    O     O_R   0.693580 0.406210 0.506230 -0.619390
O6    O     O_R   0.306420 0.593790 0.493770 -0.619389
O7    O     O_R   0.678510 0.593830 0.493810 -0.616324
O8    O     O_R   0.321490 0.406170 0.506190 -0.616324
Zn1   Zn    Zn3+2 0.510060 0.374730 0.508290 1.038166
Zn2   Zn    Zn3+2 0.489940 0.625270 0.491710 1.038165
N3    N     N_2   0.107130 0.566764 0.696978 -0.298090
H3    H     H_    0.187380 0.519433 0.714982 0.215408
C31   C     C_3   0.021893 0.589523 0.783481 -0.564418
H4    H     H_    0.072657 0.633146 0.851814 0.264097
H5    H     H_    0.988418 0.510723 0.807514 0.265012
H6    H     H_    0.939083 0.643628 0.761460 0.278144
N4    N     N_2   0.892874 0.433227 0.303021 -0.298071
H7    H     H_    0.812609 0.480543 0.285020 0.215401
C32   C     C_3   0.978110 0.410488 0.216514 -0.564428
H8    H     H_    0.927356 0.366858 0.148183 0.264098
H9    H     H_    0.060940 0.356401 0.238531 0.278146
H10   H     H_    0.011560 0.489297 0.192480 0.264991
N5    N     N_2   0.929303 0.357387 0.644014 -0.260784
H11   H     H_    0.853577 0.310921 0.618165 0.265917
C33   C     C_3   0.028685 0.292218 0.693653 -0.660246
H12   H     H_    0.992548 0.263808 0.766400 0.294068
H13   H     H_    0.112461 0.341764 0.715501 0.225597
H14   H     H_    0.057689 0.217532 0.640540 0.221074
N6    N     N_2   0.070703 0.642615 0.355986 -0.260792
H15   H     H_    0.146423 0.689087 0.381842 0.265901
C34   C     C_3   0.971322 0.707773 0.306331 -0.660118
H16   H     H_    0.007499 0.736220 0.233604 0.294065
H17   H     H_    0.942264 0.782445 0.359463 0.221039
H18   H     H_    0.887564 0.658196 0.284431 0.225592
N7    N     N_2   0.090701 0.283332 0.435890 -0.264046
H19   H     H_    0.159107 0.254927 0.487377 0.260870
C35   C     C_3   0.996977 0.202071 0.405850 -0.610510
H20   H     H_    0.045462 0.120566 0.380270 0.271693
H21   H     H_    0.936034 0.227261 0.339213 0.291772
H22   H     H_    0.936935 0.191223 0.473097 0.208742
N8    N     N_2   0.909295 0.716667 0.564111 -0.264058
H23   H     H_    0.840880 0.745069 0.512629 0.260862
C36   C     C_3   0.003016 0.797934 0.594140 -0.610432
H24   H     H_    0.954501 0.879434 0.619776 0.271738
H25   H     H_    0.063015 0.808826 0.526850 0.208723
H26   H     H_    0.064029 0.772714 0.660754 0.291758
Cl1   Cl    Cl    0.279910 0.577600 0.184360 -0.580348
Cl2   Cl    Cl    0.720089 0.422399 0.815641 -0.580342
Cl3   Cl    Cl    0.669948 0.272224 0.205196 -0.487489
Cl4   Cl    Cl    0.330049 0.727774 0.794803 -0.487503
Cl5   Cl    Cl    0.326401 0.749383 0.038434 -0.374416
Cl6   Cl    Cl    0.673591 0.250613 0.961564 -0.374400
Cl7   Cl    Cl    0.367659 0.200636 0.351114 -0.456927
Cl8   Cl    Cl    0.632341 0.799363 0.648885 -0.456950
Cl9   Cl    Cl    0.275080 0.976201 0.293344 -0.466449
Cl10  Cl    Cl    0.724901 0.023803 0.706671 -0.466438

loop_
_geom_bond_atom_site_label_1
_geom_bond_atom_site_label_2
_ccdc_geom_bond_type
N6    C34   S    
C16   C21   S    
C27   C29   A    
C18   C21   S    
C23   N7    S    
C11   N2    A    
C4    C25   A    
C31   H5    S    
C36   H24   S    
C17   C23   S    
C18   C24   S    
C19   C21   S    
C20   N4    S    
C5    C6    A    
C18   N6    S    
N5    C33   S    
C7    Cl9   S    
C2    C25   S    
C27   Cl5   S    
N3    C31   S    
C30   Cl3   S    
N7    C35   S    
C9    H2    S    
C10   H1    S    
C15   C22   S    
C4    Cl1   S    
C6    C27   A    
C34   H17   S    
C7    C14   A    
O1    Zn1   S    
C1    O3    A    
C32   H10   S    
C36   H25   S    
C33   H12   S    
C13   C14   A    
C31   H6    S    
C32   H9    S    
C33   H13   S    
N4    H7    S    
N1    Zn1   S    
N2    Zn2   S    
C15   O7    A    
C29   Cl4   S    
C4    C6    A    
C35   H21   S    
O5    Zn1   S    
C32   H8    S    
N4    C32   S    
N8    H23   S    
C5    C28   A    
C2    O4    A    
C31   H4    S    
C20   C23   S    
O6    Zn2   S    
C11   Cl8   S    
C34   H18   S    
C3    Cl2   S    
N8    C36   S    
C15   O5    A    
C16   O6    A    
C12   C14   A    
C21   C23   S    
C28   Cl6   S    
C9    N2    A    
O7    Zn2   S    
C22   C24   S    
O2    Zn2   S    
C8    Cl10  S    
O8    Zn1   S    
C16   O8    A    
C1    O1    A    
C36   H26   S    
C2    O2    A    
C25   C30   A    
C7    C9    A    
C33   H14   S    
C12   Cl7   S    
C3    C26   A    
C20   C22   S    
C3    C5    A    
C35   H22   S    
C19   N3    S    
C24   N8    S    
C17   C22   S    
O3    Zn2   S    
C28   C30   A    
C19   C24   S    
O4    Zn1   S    
C11   C13   A    
N5    H11   S    
C1    C26   S    
C17   C19   S    
C10   N1    A    
C18   C20   S    
N7    H19   S    
N6    H15   S    
C8    C13   A    
N3    H3    S    
C35   H20   S    
C26   C29   A    
C8    C10   A    
C34   H16   S    
C12   N1    A    
C17   N5    S    
