data_mof_unit_31076.cif
_audit_creation_date              2012-12-11T19:51:45-0500
_audit_creation_method            fapswitch 2.2
_symmetry_space_group_name_H-M    P1
_symmetry_Int_Tables_number       1
_space_group_crystal_system       triclinic
_cell_length_a                    16.670417
_cell_length_b                    28.046481
_cell_length_c                    8.338102
_cell_angle_alpha                 89.999701
_cell_angle_beta                  104.499563
_cell_angle_gamma                 89.983458
_cell_volume                      3774.28310933

loop_
_atom_site_label
_atom_site_type_symbol
_atom_type_description
_atom_site_fract_x
_atom_site_fract_y
_atom_site_fract_z
_atom_type_partial_charge
Ba1   Ba    Ba6+2 0.000400 0.534870 0.845190 1.670481
Ba2   Ba    Ba6+2 0.000400 0.465130 0.345190 1.672581
Ba3   Ba    Ba6+2 0.500400 0.034870 0.845190 1.670045
Ba4   Ba    Ba6+2 0.500400 0.965130 0.345190 1.673352
C1    C     C_3   0.937320 0.760338 0.586045 -0.335682
C2    C     C_3   0.937216 0.239806 0.086383 -0.336910
C3    C     C_3   0.437339 0.260355 0.585989 -0.344214
C4    C     C_3   0.437085 0.739863 0.086388 -0.336993
C5    C     C_R   0.137913 0.617128 0.401027 -0.305686
C6    C     C_R   0.137944 0.382872 0.900910 -0.305635
C7    C     C_R   0.637796 0.117174 0.400830 -0.305712
C8    C     C_R   0.638037 0.882925 0.901127 -0.310530
C9    C     C_2   0.750167 0.359485 0.910493 -0.134177
C10   C     C_2   0.750182 0.640555 0.410600 -0.136323
C11   C     C_2   0.250129 0.859499 0.910421 -0.135420
C12   C     C_2   0.250239 0.140585 0.410738 -0.136844
C13   C     C_2   0.815609 0.390698 0.909525 0.053436
C14   C     C_2   0.815598 0.609306 0.409549 0.054781
C15   C     C_2   0.315592 0.890702 0.909502 0.055622
C16   C     C_2   0.315617 0.109317 0.409602 0.054713
C17   C     C_2   0.846950 0.345053 0.683600 0.008060
C18   C     C_2   0.846930 0.654949 0.183651 0.007959
C19   C     C_2   0.346946 0.845053 0.683600 0.008053
C20   C     C_2   0.346946 0.154960 0.183713 0.006901
C21   C     C_3   0.795864 0.307160 0.721901 -0.058485
C22   C     C_3   0.795896 0.692869 0.222060 -0.056896
C23   C     C_3   0.295846 0.807165 0.721890 -0.053112
C24   C     C_3   0.295967 0.192899 0.222198 -0.058126
C25   C     C_3   0.726220 0.324283 0.783241 0.031299
C26   C     C_3   0.726250 0.675785 0.283416 0.026943
C27   C     C_3   0.226186 0.824298 0.783160 0.016129
C28   C     C_3   0.226326 0.175836 0.283615 0.029893
C29   C     C_2   0.767611 0.270625 0.587744 -0.070416
C30   C     C_2   0.767651 0.729417 0.087931 -0.070334
C31   C     C_2   0.267625 0.770613 0.587779 -0.072717
C32   C     C_2   0.267715 0.229448 0.088070 -0.065992
C33   C     C_2   0.250420 0.726236 0.627692 -0.060427
C34   C     C_2   0.250773 0.273878 0.127960 -0.077664
C35   C     C_2   0.750366 0.226250 0.627599 -0.060732
C36   C     C_2   0.750642 0.773831 0.127843 -0.057420
C37   C     C_R   0.261795 0.683279 0.364123 0.019289
C38   C     C_R   0.262062 0.316788 0.864306 0.011795
C39   C     C_R   0.761746 0.183295 0.364045 0.018789
C40   C     C_R   0.761943 0.816743 0.864175 0.020459
C41   C     C_R   0.221510 0.689238 0.501108 -0.029541
C42   C     C_R   0.221751 0.310830 0.001253 -0.034708
C43   C     C_R   0.721423 0.189271 0.500965 -0.029511
C44   C     C_R   0.721678 0.810809 0.001203 -0.030288
C45   C     C_3   0.028235 0.710973 0.104977 0.343780
C46   C     C_3   0.028431 0.289077 0.604917 0.342836
C47   C     C_3   0.528090 0.211046 0.105143 0.341450
C48   C     C_3   0.528321 0.789019 0.605168 0.342541
C49   C     C_R   0.242934 0.640873 0.257226 -0.138037
C50   C     C_R   0.243090 0.359165 0.757251 -0.122838
C51   C     C_R   0.742909 0.140876 0.257201 -0.137943
C52   C     C_R   0.743022 0.859135 0.757185 -0.126953
C53   C     C_R   0.185604 0.609239 0.276092 0.041400
C54   C     C_R   0.185635 0.390754 0.775971 0.039850
C55   C     C_R   0.685550 0.109255 0.276013 0.041267
C56   C     C_R   0.685657 0.890766 0.776045 0.035604
C57   C     C_R   0.158290 0.653901 0.516904 0.006510
C58   C     C_R   0.158391 0.346121 0.016879 0.009792
C59   C     C_R   0.658179 0.153945 0.516722 0.006188
C60   C     C_R   0.658430 0.846148 0.017002 0.005896
C61   C     C_3   0.066914 0.760307 0.114148 -0.350944
C62   C     C_3   0.067332 0.239796 0.613762 -0.350849
C63   C     C_3   0.566593 0.260431 0.114535 -0.350281
C64   C     C_3   0.567236 0.739749 0.613672 -0.351106
C65   C     C_3   0.762904 0.528148 0.054470 0.280143
C66   C     C_3   0.762939 0.471859 0.554410 0.273291
C67   C     C_3   0.262911 0.028147 0.054517 0.280122
C68   C     C_3   0.262885 0.971873 0.554439 0.299567
C69   C     C_3   0.685013 0.558668 0.021198 -0.301050
C70   C     C_3   0.685065 0.441348 0.521048 -0.293038
C71   C     C_3   0.185017 0.058665 0.021320 -0.302666
C72   C     C_3   0.184969 0.941400 0.521286 -0.343023
C73   C     C_3   0.237839 0.470688 0.132876 0.342834
C74   C     C_3   0.238133 0.529322 0.633806 0.350106
C75   C     C_3   0.738101 0.970737 0.132908 0.329858
C76   C     C_3   0.737954 0.029396 0.634256 0.349524
C77   C     C_3   0.316435 0.442688 0.131128 0.319573
C78   C     C_3   0.316637 0.556829 0.627922 0.373264
C79   C     C_3   0.816844 0.942887 0.131007 0.348399
C80   C     C_3   0.816321 0.057059 0.628489 0.371829
C81   C     C_3   0.975255 0.710797 0.594358 0.331890
C82   C     C_3   0.975283 0.289291 0.094428 0.332872
C83   C     C_3   0.475212 0.210797 0.594491 0.339908
C84   C     C_3   0.475188 0.789341 0.094598 0.332557
C85   C     C_2   0.863543 0.383048 0.785210 -0.293162
C86   C     C_2   0.863515 0.616939 0.285205 -0.292644
C87   C     C_2   0.363535 0.883049 0.785203 -0.291285
C88   C     C_2   0.363515 0.116942 0.285229 -0.291823
H1    H     H_    0.936451 0.686040 0.646969 0.091613
H2    H     H_    0.936595 0.314112 0.147133 0.091625
H3    H     H_    0.436389 0.186078 0.647190 0.091174
H4    H     H_    0.436605 0.814137 0.147654 0.092232
H5    H     H_    0.641412 0.544416 0.090604 0.162070
H6    H     H_    0.641458 0.455581 0.590504 0.170043
H7    H     H_    0.141425 0.044396 0.090718 0.161535
H8    H     H_    0.141442 0.955661 0.590873 0.157728
H9    H     H_    0.701016 0.595908 0.060633 0.042819
H10   H     H_    0.701090 0.404097 0.560367 0.043611
H11   H     H_    0.201019 0.095900 0.060819 0.043389
H12   H     H_    0.200952 0.904142 0.560583 0.043283
H13   H     H_    0.654208 0.558658 0.886632 0.161121
H14   H     H_    0.654255 0.441395 0.386484 0.161123
H15   H     H_    0.154202 0.058672 0.886759 0.160703
H16   H     H_    0.154070 0.941449 0.386764 0.157100
H17   H     H_    0.199354 0.472960 0.003833 -0.089558
H18   H     H_    0.197943 0.527469 0.506089 -0.108723
H19   H     H_    0.699602 0.973013 0.003873 -0.093108
H20   H     H_    0.697670 0.027647 0.506599 -0.108794
H21   H     H_    0.202760 0.451479 0.209714 0.044767
H22   H     H_    0.204933 0.548663 0.713766 0.046810
H23   H     H_    0.703109 0.951429 0.209687 0.046039
H24   H     H_    0.704786 0.048575 0.714614 0.047709
H25   H     H_    0.348169 0.459719 0.043846 0.107746
H26   H     H_    0.345485 0.540320 0.535144 0.094518
H27   H     H_    0.848559 0.960100 0.044024 0.099535
H28   H     H_    0.844991 0.040822 0.535015 0.094771
H29   H     H_    0.299795 0.405890 0.087824 -0.121837
H30   H     H_    0.300349 0.594084 0.589652 -0.103090
H31   H     H_    0.800372 0.906100 0.087227 -0.079031
H32   H     H_    0.799902 0.094366 0.591198 -0.101874
H33   H     H_    0.974622 0.699528 0.466318 -0.052251
H34   H     H_    0.974575 0.300516 0.966306 -0.052412
H35   H     H_    0.474556 0.199484 0.466489 -0.055241
H36   H     H_    0.474356 0.800638 0.966493 -0.052565
H37   H     H_    0.872489 0.759396 0.509288 0.073592
H38   H     H_    0.872363 0.240810 0.009749 0.072143
H39   H     H_    0.372526 0.259438 0.509162 0.066507
H40   H     H_    0.372175 0.740915 0.010047 0.072490
H41   H     H_    0.937186 0.772806 0.712409 0.148808
H42   H     H_    0.937123 0.227393 0.212821 0.147393
H43   H     H_    0.437190 0.272867 0.712283 0.152807
H44   H     H_    0.437142 0.727376 0.212819 0.147464
H45   H     H_    0.130327 0.759477 0.197455 0.065203
H46   H     H_    0.130773 0.240670 0.696946 0.067057
H47   H     H_    0.629949 0.259667 0.198091 0.067393
H48   H     H_    0.630516 0.740535 0.697454 0.066079
H49   H     H_    0.710330 0.365988 0.993070 0.099977
H50   H     H_    0.710359 0.634071 0.493208 0.098052
H51   H     H_    0.210280 0.866006 0.992973 0.098379
H52   H     H_    0.210428 0.134107 0.493374 0.097988
H53   H     H_    0.278232 0.634886 0.166505 0.134352
H54   H     H_    0.278460 0.365208 0.666655 0.142037
H55   H     H_    0.778252 0.134869 0.166566 0.134671
H56   H     H_    0.778341 0.865146 0.666488 0.144991
H57   H     H_    0.906604 0.410383 0.767760 0.069807
H58   H     H_    0.906548 0.589581 0.267681 0.069573
H59   H     H_    0.406598 0.910383 0.767759 0.068851
H60   H     H_    0.406514 0.089572 0.267642 0.069595
H61   H     H_    0.090121 0.591840 0.409258 0.076805
H62   H     H_    0.090137 0.408167 0.909138 0.074748
H63   H     H_    0.589985 0.091896 0.409027 0.076870
H64   H     H_    0.590292 0.908250 0.909461 0.076971
H65   H     H_    0.756153 0.280778 0.458297 0.098901
H66   H     H_    0.756007 0.719245 0.958474 0.098407
H67   H     H_    0.256162 0.780755 0.458320 0.098336
H68   H     H_    0.255989 0.219260 0.958614 0.100086
H69   H     H_    0.255460 0.717439 0.756639 0.107322
H70   H     H_    0.256056 0.282750 0.256930 0.102153
H71   H     H_    0.755404 0.217442 0.756536 0.106918
H72   H     H_    0.755845 0.782674 0.256810 0.106674
H73   H     H_    0.973486 0.785749 0.529726 0.130455
H74   H     H_    0.973270 0.214321 0.030058 0.138655
H75   H     H_    0.473574 0.285712 0.529659 0.123736
H76   H     H_    0.473017 0.714410 0.029658 0.138419
H77   H     H_    0.068009 0.685778 0.056599 0.085340
H78   H     H_    0.068062 0.314351 0.556545 0.085025
H79   H     H_    0.568018 0.185911 0.056916 0.085783
H80   H     H_    0.568048 0.814354 0.557335 0.084617
H81   H     H_    0.026536 0.700244 0.232372 -0.056925
H82   H     H_    0.026748 0.299729 0.732399 -0.055744
H83   H     H_    0.526308 0.200283 0.232461 -0.056641
H84   H     H_    0.526458 0.799545 0.732651 -0.055763
H85   H     H_    0.070825 0.771921 0.988979 0.146584
H86   H     H_    0.071223 0.228266 0.488493 0.146189
H87   H     H_    0.570605 0.272080 0.989462 0.148088
H88   H     H_    0.571489 0.728398 0.488486 0.146193
H89   H     H_    0.028873 0.786298 0.163572 0.139712
H90   H     H_    0.029452 0.213719 0.663161 0.138223
H91   H     H_    0.528369 0.286357 0.163779 0.128176
H92   H     H_    0.529162 0.713589 0.662125 0.138566
H93   H     H_    0.790497 0.526583 0.189678 0.004615
H94   H     H_    0.790517 0.473401 0.689625 0.005805
H95   H     H_    0.290521 0.026572 0.189717 0.004799
H96   H     H_    0.290531 0.973422 0.689630 0.004000
H97   H     H_    0.807093 0.544935 0.991567 0.063786
H98   H     H_    0.807150 0.455079 0.491510 0.064992
H99   H     H_    0.307087 0.044942 0.991600 0.064129
H100  H     H_    0.307031 0.955063 0.491448 0.063298
O1    O     O_2   0.163830 0.569270 0.980510 -0.430332
O2    O     O_2   0.163830 0.430730 0.480510 -0.435077
O3    O     O_2   0.663830 0.069270 0.980510 -0.430479
O4    O     O_2   0.663830 0.930730 0.480510 -0.433461
O5    O     O_3   0.741081 0.517733 0.492677 -0.619741
O6    O     O_3   0.741068 0.482287 0.992664 -0.617711
O7    O     O_3   0.241063 0.017746 0.492662 -0.620216
O8    O     O_3   0.241072 0.982290 0.992672 -0.619029
O9    O     O_3   0.948235 0.712357 0.998373 -0.595888
O10   O     O_3   0.948393 0.287643 0.498480 -0.596371
O11   O     O_3   0.448158 0.212355 0.998254 -0.597496
O12   O     O_3   0.448373 0.787651 0.498370 -0.596323
O13   O     O_3   0.904940 0.476110 0.001150 -0.505578
O14   O     O_3   0.904940 0.523890 0.501150 -0.505089
O15   O     O_3   0.404940 0.976110 0.001150 -0.505648
O16   O     O_3   0.404940 0.023890 0.501150 -0.506013
O17   O     O_3   0.095420 0.524330 0.188510 -0.503901
O18   O     O_3   0.095420 0.475670 0.688510 -0.508003
O19   O     O_3   0.595420 0.024330 0.188510 -0.503397
O20   O     O_3   0.595420 0.975670 0.688510 -0.507548
O21   O     O_3   0.028940 0.612400 0.656050 -0.497858
O22   O     O_3   0.028940 0.387600 0.156050 -0.497385
O23   O     O_3   0.528940 0.112400 0.656050 -0.498016
O24   O     O_3   0.528940 0.887600 0.156050 -0.497772
O25   O     O_2   0.164269 0.650112 0.854606 -0.473432
O26   O     O_2   0.164295 0.349866 0.354596 -0.480917
O27   O     O_2   0.664302 0.150102 0.854493 -0.473844
O28   O     O_2   0.664228 0.849839 0.354707 -0.476329
O29   O     O_3   0.259626 0.516323 0.197127 -0.606324
O30   O     O_3   0.259775 0.483504 0.696536 -0.582995
O31   O     O_3   0.759692 0.016372 0.197346 -0.603410
O32   O     O_3   0.759756 0.983522 0.696274 -0.584317
O33   O     O_3   0.056417 0.712133 0.695922 -0.602300
O34   O     O_3   0.056502 0.287878 0.195734 -0.600030
O35   O     O_3   0.556376 0.212127 0.696052 -0.601462
O36   O     O_3   0.556470 0.787871 0.195598 -0.601623
O37   O     O_2   0.837400 0.570350 0.710350 -0.460281
O38   O     O_2   0.837400 0.429650 0.210350 -0.460619
O39   O     O_2   0.337400 0.070350 0.710350 -0.460717
O40   O     O_2   0.337400 0.929650 0.210350 -0.460438
O41   O     O_3   0.972820 0.612580 0.035550 -0.494551
O42   O     O_3   0.972820 0.387420 0.535550 -0.494982
O43   O     O_3   0.472820 0.112580 0.035550 -0.494166
O44   O     O_3   0.472820 0.887420 0.535550 -0.494801
O45   O     O_2   0.837155 0.651269 0.842539 -0.490568
O46   O     O_2   0.837238 0.348714 0.342501 -0.490596
O47   O     O_2   0.337091 0.151241 0.842597 -0.490272
O48   O     O_2   0.337214 0.848733 0.342520 -0.490654
P1    P     P_3+3 0.171820 0.553000 0.158080 1.022085
P2    P     P_3+3 0.171820 0.447000 0.658080 1.036441
P3    P     P_3+3 0.671820 0.053000 0.158080 1.024036
P4    P     P_3+3 0.671820 0.947000 0.658080 1.036120
P5    P     P_3+3 0.829210 0.554130 0.532500 0.986411
P6    P     P_3+3 0.829210 0.445870 0.032500 0.987318
P7    P     P_3+3 0.329210 0.054130 0.532500 0.984691
P8    P     P_3+3 0.329210 0.945870 0.032500 0.986174
P9    P     P_3+3 0.899365 0.657873 0.013067 0.943502
P10   P     P_3+3 0.899427 0.342120 0.513072 0.943122
P11   P     P_3+3 0.399339 0.157864 0.013069 0.942356
P12   P     P_3+3 0.399417 0.842124 0.513064 0.942896
P13   P     P_3+3 0.103752 0.342987 0.182540 0.949974
P14   P     P_3+3 0.103686 0.657020 0.682604 0.953060
P15   P     P_3+3 0.603740 0.842985 0.182579 0.952304
P16   P     P_3+3 0.603660 0.157030 0.682564 0.952830
S1    S     S_3+6 0.387130 0.439135 0.331129 -0.037075
O49   O     O_2   0.431680 0.485840 0.371776 -0.240687
O50   O     O_2   0.341683 0.427897 0.460996 -0.298329
O51   O     O_3   0.457026 0.396039 0.329287 -0.500432
H101  H     H_    0.425990 0.365771 0.325524 0.322317
S2    S     S_3+6 0.390914 0.558190 0.823992 -0.045214
O52   O     O_2   0.431441 0.510144 0.859400 -0.248673
O53   O     O_2   0.455699 0.594983 0.818601 -0.302851
O54   O     O_3   0.343880 0.572476 0.973645 -0.531153
H102  H     H_    0.387489 0.569468 0.078438 0.366839
S3    S     S_3+6 0.887479 0.939219 0.331027 -0.049087
O55   O     O_2   0.930255 0.986347 0.374355 -0.270433
O56   O     O_2   0.841770 0.926220 0.458827 -0.297593
O57   O     O_3   0.958495 0.897034 0.326227 -0.524187
H103  H     H_    0.994717 0.896140 0.440210 0.353226
S4    S     S_3+6 0.890908 0.058131 0.824187 -0.046689
O58   O     O_2   0.931413 0.010045 0.858385 -0.253260
O59   O     O_2   0.955665 0.094963 0.818991 -0.302618
O60   O     O_3   0.844219 0.072155 0.974604 -0.530559
H104  H     H_    0.887954 0.068935 0.079129 0.367704

loop_
_geom_bond_atom_site_label_1
_geom_bond_atom_site_label_2
_ccdc_geom_bond_type
C72   H12   S    
C58   P13   S    
C45   H77   S    
C10   H50   S    
C71   H15   S    
C57   P14   S    
Ba4   O24   S    
C19   C87   D    
C51   C55   D    
O25   P14   D    
C4    H44   S    
C10   C14   A    
C81   H33   S    
O60   H104  S    
O43   P11   S    
C2    H38   S    
O15   P8    S    
O42   P10   S    
S2    O54   S    
C2    H74   S    
O30   P2    S    
O41   P9    S    
C67   O8    S    
C70   H6    S    
C61   H89   S    
C78   H30   S    
C11   C15   A    
C16   C88   S    
C29   C35   D    
Ba4   O19   S    
C45   C61   S    
C42   C58   S    
C30   C36   D    
Ba3   O16   S    
Ba4   O40   S    
C9    C25   A    
C12   C16   A    
C12   H52   S    
C10   C26   A    
C36   H72   S    
C75   H23   S    
C1    C81   S    
C84   O36   S    
C43   C59   S    
C8    C60   A    
S3    O57   S    
C73   H21   S    
C44   C60   S    
C76   O32   S    
Ba3   O23   S    
O28   P15   D    
C77   H25   S    
C84   H36   S    
C61   H85   S    
Ba4   O4    S    
S1    O49   D    
C38   C42   S    
C79   H27   S    
C54   P2    S    
C40   C52   S    
C66   C70   S    
Ba4   P8    S    
C3    H75   S    
Ba1   O1    S    
C4    H76   S    
Ba3   O43   S    
C81   H1    S    
Ba2   O42   S    
O34   P13   S    
C3    C83   S    
C76   H24   S    
O31   P3    S    
O33   P14   S    
C16   P7    S    
C83   H3    S    
C4    H40   S    
C53   P1    S    
C63   H87   S    
C65   C69   S    
C78   S2    S    
Ba2   O14   S    
O23   P16   S    
C9    H49   S    
O48   P12   D    
C63   H47   S    
O54   H102  S    
C48   H84   S    
C3    H39   S    
O38   P6    D    
C86   H58   S    
C70   H10   S    
C60   P15   S    
O37   P5    D    
C41   C57   S    
C1    H37   S    
C62   H90   S    
C2    H42   S    
C5    H61   S    
C72   H16   S    
O46   P10   D    
O22   P13   S    
C71   H11   S    
Ba4   O44   S    
O45   P9    D    
O21   P14   S    
C74   H22   S    
O1    P1    D    
O44   P12   S    
Ba1   O37   S    
C7    C55   S    
C20   C88   D    
C83   H35   S    
C29   H65   S    
C15   P8    S    
Ba4   O16   S    
C19   C23   A    
C46   O10   S    
C21   C25   A    
C45   O9    S    
C85   H57   S    
C67   C71   S    
C22   C30   S    
C56   P4    S    
O27   P16   D    
C80   S4    S    
O47   P11   D    
C76   C80   S    
C14   C86   S    
O19   P3    S    
C24   C28   A    
O14   P5    S    
C13   C85   S    
O18   P2    S    
C18   P9    S    
C46   H78   S    
O13   P6    S    
Ba2   O38   S    
Ba3   O39   S    
C17   P10   S    
C49   C53   D    
C45   H81   S    
O32   P4    S    
O29   P1    S    
C23   C31   S    
C35   C43   S    
C23   C27   A    
C65   H93   S    
C64   H88   S    
Ba3   O3    S    
C52   C56   D    
C77   H29   S    
C84   H4    S    
C4    C84   S    
C8    C56   S    
C52   H56   S    
C69   H5    S    
C3    H43   S    
C19   P12   S    
Ba1   O14   S    
C68   H96   S    
C70   H14   S    
O36   P15   S    
C62   H86   S    
C49   H53   S    
C74   C78   S    
O40   P8    D    
C51   H55   S    
C59   P16   S    
C62   H46   S    
C73   C77   S    
C80   H28   S    
C47   H83   S    
C76   H20   S    
C71   H7    S    
C82   H2    S    
C18   C86   D    
C68   C72   S    
C74   H18   S    
Ba2   O13   S    
C47   C63   S    
C11   C27   A    
O8    P8    S    
Ba2   P2    S    
C37   C49   S    
O35   P16   S    
C63   H91   S    
C74   O30   S    
C1    H41   S    
O11   P11   S    
Ba1   P1    S    
C73   O29   S    
O10   P10   S    
O4    P4    D    
Ba2   O22   S    
C66   O5    S    
C83   O35   S    
O17   P1    S    
Ba1   O21   S    
C65   O6    S    
C82   O34   S    
C47   O11   S    
C5    C57   A    
C7    H63   S    
C6    C58   A    
C72   H8    S    
C78   H26   S    
C33   C41   S    
Ba3   Ba4   S    
C50   H54   S    
C30   H66   S    
C20   C24   A    
Ba1   O13   S    
S4    O58   D    
C66   H98   S    
Ba4   O15   S    
C33   H69   S    
C50   C54   D    
C39   C51   S    
Ba3   O20   S    
C36   C44   S    
C17   C21   A    
C73   H17   S    
Ba2   O17   S    
C69   H9    S    
O2    P2    D    
Ba1   O41   S    
C31   C33   D    
Ba1   O18   S    
C80   H32   S    
C20   P11   S    
O39   P7    D    
C17   C85   D    
C67   H95   S    
O51   H101  S    
C75   H19   S    
C48   C64   S    
S2    O53   D    
S3    O55   D    
C46   C62   S    
C75   O31   S    
S2    O52   D    
C75   C79   S    
O7    P7    S    
C12   C28   A    
O24   P15   S    
Ba3   P3    S    
C77   S1    S    
C15   C87   S    
C2    C82   S    
C9    C13   A    
C69   H13   S    
C46   H82   S    
S1    O51   S    
Ba3   O15   S    
C82   H34   S    
C47   H79   S    
Ba2   P6    S    
C64   H92   S    
C61   H45   S    
C79   S3    S    
O20   P4    S    
C67   H99   S    
C38   C50   S    
C68   O7    S    
C87   H59   S    
C6    H62   S    
S3    O56   D    
C14   P5    S    
C11   H51   S    
O3    P3    D    
C13   P6    S    
O6    P6    S    
S4    O60   S    
Ba1   Ba2   S    
O9    P9    S    
O5    P5    S    
C48   H80   S    
O26   P13   D    
Ba4   P4    S    
C5    C53   S    
C1    H73   S    
C8    H64   S    
C31   H67   S    
C34   C42   S    
C39   C43   S    
C64   H48   S    
C32   C34   D    
C32   H68   S    
Ba3   P7    S    
C48   O12   S    
O12   P12   S    
C65   H97   S    
C88   H60   S    
C34   H70   S    
C55   P3    S    
C81   O33   S    
C24   C32   S    
S4    O59   D    
C18   C22   A    
S1    O50   D    
C37   C41   S    
O57   H103  S    
Ba1   P5    S    
C6    C54   S    
Ba2   O2    S    
C66   H94   S    
C7    C59   A    
C35   H71   S    
C68   H100  S    
O16   P7    S    
C79   H31   S    
C40   C44   S    
C21   C29   S    
C22   C26   A    
