data_mof_unit_53735.cif
_audit_creation_date              2012-12-11T16:22:20-0500
_audit_creation_method            fapswitch 2.2
_symmetry_space_group_name_H-M    P1
_symmetry_Int_Tables_number       1
_space_group_crystal_system       triclinic
_cell_length_a                    13.617534
_cell_length_b                    14.098292
_cell_length_c                    29.994587
_cell_angle_alpha                 98.0205
_cell_angle_beta                  90.110737
_cell_angle_gamma                 118.895851
_cell_volume                      4976.23019656

loop_
_atom_site_label
_atom_site_type_symbol
_atom_type_description
_atom_site_fract_x
_atom_site_fract_y
_atom_site_fract_z
_atom_type_partial_charge
C1    C     C_R   0.717892 0.097392 0.569844 0.576113
C2    C     C_1   0.384831 0.685856 0.767329 0.084077
C3    C     C_1   0.384342 0.691458 0.727752 0.047373
C4    C     C_R   0.384455 0.789549 0.551254 0.556261
C5    C     C_R   0.301709 0.600403 0.897063 -0.051668
C6    C     C_3   0.212488 0.139146 0.720032 0.203415
C7    C     C_3   0.244949 0.076687 0.750244 -0.056854
C8    C     C_1   0.292797 0.203672 0.874807 0.105417
C9    C     C_1   0.359240 0.145217 0.610714 0.096935
C10   C     C_3   0.275009 0.244576 0.755543 0.258188
C11   C     C_3   0.307430 0.182302 0.785637 -0.027828
C12   C     C_R   0.373332 0.696600 0.680709 0.002963
C13   C     C_3   0.385172 0.277729 0.731710 -0.156261
C14   C     C_3   0.321994 0.171960 0.696941 -0.060060
C15   C     C_3   0.416645 0.214705 0.761881 0.157972
C16   C     C_R   0.396251 0.120530 0.568511 0.571484
C17   C     C_3   0.354671 0.109354 0.726625 0.210743
C18   C     C_1   0.299470 0.189942 0.834645 0.135877
C19   C     C_1   0.337696 0.161871 0.648768 0.102021
C20   C     C_3   0.888700 0.237140 0.735298 0.014265
C21   C     C_3   0.810599 0.246854 0.770389 -0.102431
C22   C     C_1   0.886570 0.197733 0.880608 0.065950
C23   C     C_R   0.278771 0.697782 0.661935 0.310978
C24   C     C_1   0.753934 0.122674 0.616766 0.077183
C25   C     C_3   0.901806 0.153829 0.759335 -0.048063
C26   C     C_3   0.822352 0.162603 0.793969 0.015088
C27   C     C_3   0.798588 0.058535 0.729566 -0.112609
C28   C     C_R   0.720990 0.095744 0.443064 0.580277
C29   C     C_3   0.787466 0.143571 0.705871 0.013907
C30   C     C_3   0.720842 0.068519 0.765003 0.012580
C31   C     C_3   0.707476 0.151494 0.740604 -0.060519
C32   C     C_1   0.850923 0.179674 0.842105 0.060301
C33   C     C_1   0.771634 0.134335 0.656962 0.068449
C34   C     C_R   0.277418 0.716854 0.617376 -0.039077
C35   C     C_3   0.290894 0.580977 0.257871 -0.119903
C36   C     C_3   0.241259 0.631063 0.227880 -0.138840
C37   C     C_1   0.311223 0.611450 0.110612 0.042022
C38   C     C_1   0.367186 0.738275 0.377958 -0.000114
C39   C     C_3   0.393855 0.615471 0.229170 -0.129878
C40   C     C_R   0.382401 0.784957 0.424427 0.539949
C41   C     C_3   0.344266 0.665800 0.199775 0.042929
C42   C     C_3   0.457373 0.727890 0.260827 -0.082446
C43   C     C_3   0.353953 0.692793 0.288596 0.004606
C44   C     C_3   0.406333 0.776136 0.230921 0.268501
C45   C     C_R   0.254589 0.625568 0.823191 -0.082275
C46   C     C_3   0.304256 0.743352 0.259413 -0.106825
C47   C     C_1   0.331371 0.642468 0.150583 0.021872
C48   C     C_1   0.359517 0.712228 0.337743 -0.039280
C49   C     C_R   0.361815 0.131869 0.399373 0.041843
C50   C     C_R   0.448186 0.206399 0.376137 -0.140977
C51   C     C_R   0.432259 0.204208 0.330329 -0.118289
C52   C     C_R   0.396090 0.114737 0.443048 0.568314
C53   C     C_R   0.329804 0.128319 0.306812 0.016075
C54   C     C_R   0.239639 0.059645 0.329627 -0.143833
C55   C     C_R   0.253505 0.062245 0.376297 0.002490
C56   C     C_R   0.219650 0.582647 0.862764 -0.006843
C57   C     C_R   0.227733 0.078690 0.143498 -0.111133
C58   C     C_R   0.224429 0.107300 0.101284 -0.154737
C59   C     C_R   0.416587 0.259105 0.117400 0.203316
C60   C     C_R   0.417561 0.229433 0.160008 -0.094561
C61   C     C_R   0.322462 0.142499 0.173408 0.018883
C62   C     C_1   0.318671 0.127707 0.219555 0.020090
C63   C     C_1   0.319652 0.123681 0.259149 -0.001682
C64   C     C_R   0.370069 0.737550 0.592004 -0.021047
C65   C     C_R   0.315412 0.201395 0.088434 0.007137
C66   C     C_R   0.778701 0.131182 0.401917 0.015122
C67   C     C_R   0.418217 0.661301 0.889900 0.188913
C68   C     C_R   0.774282 0.049117 0.368039 -0.107237
C69   C     C_R   0.793301 0.067396 0.323448 0.035356
C70   C     C_R   0.816846 0.170158 0.312848 0.008726
C71   C     C_R   0.832380 0.255557 0.346954 -0.151190
C72   C     C_R   0.817022 0.238433 0.391856 -0.001402
C73   C     C_R   0.846838 0.287418 0.161688 -0.149118
C74   C     C_R   0.869568 0.294572 0.116301 -0.015992
C75   C     C_R   0.868286 0.119502 0.109184 -0.118625
C76   C     C_R   0.459541 0.727624 0.610130 -0.130309
C77   C     C_R   0.842099 0.112107 0.153662 -0.080477
C78   C     C_R   0.449937 0.684582 0.845796 0.254524
C79   C     C_R   0.836613 0.198138 0.180390 0.043609
C80   C     C_1   0.828045 0.196182 0.227648 0.015557
C81   C     C_1   0.823476 0.188177 0.266914 0.001156
C82   C     C_R   0.889652 0.213493 0.090620 0.036883
C83   C     C_R   0.282970 0.233642 0.921503 0.551202
C84   C     C_R   0.265221 0.545694 0.937521 0.555379
C85   C     C_R   0.943734 0.221011 0.923677 0.562513
C86   C     C_R   0.293110 0.242581 0.048769 0.550476
C87   C     C_R   0.275379 0.559023 0.064877 0.560306
C88   C     C_R   0.461158 0.707639 0.654204 -0.160503
C89   C     C_R   0.366356 0.669745 0.813353 -0.001787
C90   C     C_R   0.951707 0.232145 0.049308 0.562786
C91   C     C_2   0.096671 0.510037 0.864350 0.294743
C92   C     C_2   0.981727 0.335849 0.720571 0.383086
C93   C     C_2   0.629522 0.973545 0.782910 0.325452
C94   C     C_2   0.152876 0.992761 0.399058 0.249179
C95   C     C_2   0.871081 0.387392 0.097908 0.277871
C96   C     C_2   0.842891 0.334801 0.426629 0.248104
C97   C     C_2   0.783952 0.977373 0.288168 0.249260
C98   C     C_2   0.167348 0.963827 0.760136 0.388877
Cr1   Cr    Cr6+3 0.583430 0.162610 0.509470 1.098259
Cr2   Cr    Cr6+3 0.584210 0.916680 0.495400 1.057607
Cr3   Cr    Cr6+3 0.332380 0.920740 0.495100 1.112524
Cr4   Cr    Cr6+3 0.086810 0.177030 0.983130 1.090750
Cr5   Cr    Cr6+3 0.337180 0.419300 0.994610 1.211407
Cr6   Cr    Cr6+3 0.084840 0.422330 0.995830 1.109772
H1    H     H_    0.442463 0.360523 0.723460 0.171848
H2    H     H_    0.546085 0.768047 0.274936 0.180977
H3    H     H_    0.430848 0.563029 0.216167 0.151334
H4    H     H_    0.146759 0.059060 0.079909 0.156509
H5    H     H_    0.154018 0.010569 0.153684 0.136991
H6    H     H_    0.158825 0.004339 0.311063 0.112409
H7    H     H_    0.531551 0.261756 0.392501 0.142055
H8    H     H_    0.491045 0.276979 0.183758 0.151430
H9    H     H_    0.501701 0.259095 0.312852 0.131590
H10   H     H_    0.838073 0.351781 0.182583 0.114193
H11   H     H_    0.856065 0.335769 0.338407 0.105378
H12   H     H_    0.818152 0.324957 0.788047 0.225917
H13   H     H_    0.747970 0.967675 0.375610 0.184428
H14   H     H_    0.207771 0.723376 0.603634 0.202801
H15   H     H_    0.832437 0.041822 0.167944 0.140302
H16   H     H_    0.879502 0.054438 0.090428 0.159112
H17   H     H_    0.532027 0.742248 0.591329 0.156173
H18   H     H_    0.533604 0.706076 0.668316 0.153657
H19   H     H_    0.065327 0.438927 0.881136 0.143015
H20   H     H_    0.954720 0.916026 0.699917 0.364946
H21   H     H_    0.454774 0.911636 0.722429 0.341487
H22   H     H_    0.615986 0.313857 0.726556 0.327429
H23   H     H_    0.628074 0.150501 0.733274 0.235945
H24   H     H_    0.230876 0.471229 0.742068 0.352969
H25   H     H_    0.037582 0.404003 0.746040 0.154470
H26   H     H_    0.602587 0.890797 0.765975 0.125899
H27   H     H_    0.470937 0.998444 0.275233 0.333243
H28   H     H_    0.014018 0.695579 0.685656 0.374332
H29   H     H_    0.081470 0.922404 0.379431 0.107994
H30   H     H_    0.655354 0.326482 0.134791 0.338320
H31   H     H_    0.896166 0.464480 0.120073 0.122565
H32   H     H_    0.842672 0.406061 0.416919 0.096838
H33   H     H_    0.790350 0.987285 0.252905 0.141821
H34   H     H_    0.789357 0.979598 0.712127 0.175733
H35   H     H_    0.548671 0.601460 0.768231 0.371260
H36   H     H_    0.443917 0.789777 0.979751 0.341637
H37   H     H_    0.124267 0.896657 0.732431 0.183505
H38   H     H_    0.191732 0.612330 0.797161 0.208012
H39   H     H_    0.979311 0.151125 0.767719 0.239573
H40   H     H_    0.152386 0.591297 0.213828 0.119909
H41   H     H_    0.243194 0.500507 0.269580 0.127403
H42   H     H_    0.267894 0.796462 0.272281 0.117505
O1    O     O_R   0.493980 0.188910 0.559650 -0.508132
O2    O     O_R   0.170560 0.527890 0.952050 -0.521173
O3    O     O_R   0.987620 0.318470 0.945550 -0.500026
O4    O     O_R   0.678640 0.153520 0.554450 -0.471326
O5    O     O_R   0.976400 0.159270 0.031530 -0.516712
O6    O     O_R   0.194000 0.188570 0.028560 -0.523674
O7    O     O_R   0.365260 0.335720 0.039020 -0.421854
O8    O     O_R   0.330440 0.515580 0.044910 -0.455534
O9    O     O_R   0.177310 0.536200 0.050190 -0.506523
O10   O     O_R   0.993870 0.326170 0.036530 -0.459342
O11   O     O_3   0.169610 0.339550 0.991190 -0.311377
O12   O     O_R   0.480180 0.824400 0.444640 -0.497669
O13   O     O_R   0.698130 0.004030 0.549500 -0.500004
O14   O     O_R   0.481060 0.827210 0.535360 -0.504693
O15   O     O_R   0.309260 0.811560 0.537660 -0.490712
O16   O     O_R   0.341620 0.023400 0.546290 -0.459482
O17   O     O_R   0.493030 0.185890 0.461780 -0.529870
O18   O     O_R   0.677760 0.150720 0.463730 -0.461928
O19   O     O_R   0.697180 0.001010 0.451640 -0.516564
O20   O     O_2   0.028515 0.526846 0.845305 -0.462970
O21   O     O_2   0.052484 0.165544 0.679532 -0.192735
O22   O     O_2   0.084059 0.016961 0.643842 -0.265569
O23   O     O_R   0.308310 0.808540 0.439800 -0.505123
O24   O     O_3   0.979991 0.989955 0.717414 -0.572852
O25   O     O_2   0.292828 0.923896 0.670290 -0.253254
O26   O     O_2   0.489123 0.064866 0.671713 -0.372326
O27   O     O_3   0.426194 0.956941 0.739702 -0.453794
O28   O     O_2   0.556016 0.364679 0.829959 -0.168637
O29   O     O_2   0.570340 0.197415 0.811499 -0.212710
O30   O     O_3   0.652171 0.344953 0.757659 -0.509596
O31   O     O_2   0.145135 0.313319 0.802586 -0.362307
O32   O     O_2   0.346706 0.441072 0.804386 -0.305871
O33   O     O_3   0.224601 0.399550 0.729952 -0.481966
O34   O     O_R   0.340740 0.020600 0.455570 -0.460851
O35   O     O_2   0.994005 0.340944 0.680530 -0.394673
O36   O     O_2   0.583363 0.988632 0.815836 -0.381391
O37   O     O_2   0.578195 0.909662 0.187015 -0.248104
O38   O     O_2   0.407508 0.926634 0.184369 -0.268143
O39   O     O_3   0.537121 0.005614 0.259173 -0.525086
O40   O     O_2   0.102993 0.567970 0.703788 -0.283653
O41   O     O_2   0.208126 0.760595 0.738198 -0.244178
O42   O     O_3   0.075903 0.708858 0.665773 -0.498014
O43   O     O_2   0.145814 0.016233 0.439228 -0.465729
O44   O     O_2   0.530464 0.470547 0.107419 -0.220325
O45   O     O_3   0.500010 0.000010 0.499990 -0.284314
O46   O     O_2   0.566533 0.341743 0.055839 -0.199153
O47   O     O_3   0.651744 0.395630 0.138820 -0.519158
O48   O     O_2   0.837128 0.376624 0.058840 -0.409721
O49   O     O_2   0.870478 0.338323 0.465839 -0.462305
O50   O     O_2   0.770003 0.890851 0.298138 -0.525428
O51   O     O_2   0.665701 0.838474 0.842659 -0.199496
O52   O     O_2   0.632139 0.657299 0.853680 -0.142557
O53   O     O_3   0.588764 0.682782 0.773869 -0.541571
O54   O     O_2   0.559499 0.630907 0.941320 -0.159917
O55   O     O_2   0.622003 0.819844 0.930390 -0.190742
O56   O     O_R   0.969650 0.150960 0.933380 -0.468248
O57   O     O_3   0.467454 0.735488 0.984841 -0.500482
O58   O     O_2   0.151547 0.946986 0.798965 -0.434501
O59   O     O_R   0.187740 0.180870 0.937580 -0.492943
O60   O     O_R   0.358510 0.327410 0.940870 -0.457172
O61   O     O_R   0.324180 0.507870 0.953930 -0.425399
S1    S     S_3+6 0.079604 0.078291 0.688335 0.024253
S2    S     S_3+6 0.392598 0.011772 0.700322 -0.001849
S3    S     S_3+6 0.551610 0.280485 0.792086 0.062003
S4    S     S_3+6 0.245607 0.351985 0.775264 -0.014925
S5    S     S_3+6 0.483615 0.906930 0.213517 0.013095
S6    S     S_3+6 0.164867 0.683168 0.694165 0.044216
S7    S     S_3+6 0.542598 0.369310 0.103381 0.062593
S8    S     S_3+6 0.587758 0.717370 0.829791 0.112218
S9    S     S_3+6 0.521633 0.713292 0.936666 0.114469

loop_
_geom_bond_atom_site_label_1
_geom_bond_atom_site_label_2
_ccdc_geom_bond_type
C34   H14   S    
C66   C68   A    
C21   C26   S    
O41   S6    D    
C11   C18   S    
C26   C32   S    
C7    C98   S    
C29   C33   S    
C27   C29   S    
C8    C83   S    
C73   C74   A    
Cr6   O2    S    
C91   O20   D    
C28   C66   S    
C35   C36   S    
C84   O61   A    
Cr5   O60   S    
C31   H23   S    
Cr6   O11   S    
C5    C67   A    
H21   O27   S    
H28   O42   S    
C67   S9    S    
C59   S7    S    
O47   S7    S    
C39   C41   S    
C77   H15   S    
C53   C54   A    
C39   H3    S    
C21   C31   S    
C12   C23   A    
C51   H9    S    
C22   C32   T    
C16   O1    A    
O53   S8    S    
C76   H17   S    
C97   O50   D    
C40   O12   A    
Cr3   O16   S    
C86   O7    A    
Cr5   O61   S    
C15   S3    S    
C17   S2    S    
C92   O35   D    
C55   C94   S    
C30   C31   S    
O25   S2    D    
H35   O53   S    
O29   S3    D    
C20   C25   S    
O40   S6    D    
O33   S4    S    
C94   H29   S    
C54   H6    S    
C35   H41   S    
C22   C85   S    
C97   H33   S    
C70   C81   S    
C3    C12   S    
C5    C56   A    
C11   C15   S    
Cr5   O7    S    
C56   C91   S    
C57   H5    S    
C45   C56   A    
C44   C46   S    
C68   C69   A    
C7    C17   S    
O22   S1    D    
C36   C46   S    
C70   C71   A    
C4    O14   A    
C37   C47   T    
C35   C43   S    
C43   C48   S    
C76   C88   A    
C6    S1    S    
O51   S8    D    
O38   S5    D    
Cr4   O56   S    
Cr4   O5    S    
C49   C52   S    
C77   C79   A    
C59   C60   A    
C91   H19   S    
C13   C14   S    
C27   C30   S    
C14   C17   S    
C36   C41   S    
C25   H39   S    
C67   C78   A    
C42   C44   S    
C74   C82   A    
C21   H12   S    
O52   S8    D    
C14   C19   S    
Cr4   O11   S    
O46   S7    D    
C40   O23   A    
Cr4   O59   S    
C9    C19   T    
C7    C11   S    
C39   C42   S    
C85   O3    A    
C20   C29   S    
C84   O2    A    
C78   C89   A    
C73   C79   A    
Cr1   O4    S    
C66   C72   A    
C87   O8    A    
C27   H34   S    
C12   C88   A    
O57   S9    S    
C65   C86   S    
C79   C80   S    
C13   H1    S    
O26   S2    D    
H36   O57   S    
C5    C84   S    
Cr5   O11   S    
C96   O49   D    
C16   O16   A    
O37   S5    D    
C49   C55   A    
C8    C18   T    
C73   H10   S    
C90   O5    A    
Cr2   O19   S    
C44   S5    S    
C72   C96   S    
Cr6   O3    S    
C2    C89   S    
C35   C39   S    
C52   O34   A    
O55   S9    D    
O24   S1    S    
C62   C63   T    
C60   H8    S    
C86   O6    A    
C68   H13   S    
C6    C14   S    
O44   S7    D    
C93   O36   D    
Cr2   O14   S    
C58   C65   A    
C1    O13   A    
C23   C34   A    
C34   C64   A    
C95   H31   S    
C41   C47   S    
O39   S5    S    
C71   H11   S    
C1    O4    A    
C50   C51   A    
H24   O33   S    
Cr6   O10   S    
Cr3   O23   S    
C75   C77   A    
C28   O19   A    
Cr1   O17   S    
Cr1   O45   S    
C85   O56   A    
C88   H18   S    
C26   C30   S    
C95   O48   D    
C13   C15   S    
C98   H37   S    
C45   H38   S    
C41   C44   S    
C87   O9    A    
C20   C92   S    
Cr2   O45   S    
C25   C27   S    
C42   C43   S    
C37   C87   S    
C90   O10   A    
C93   H26   S    
H27   O39   S    
H22   O30   S    
C28   O18   A    
C23   S6    S    
C98   O58   D    
C15   C17   S    
C58   H4    S    
Cr1   O1    S    
C54   C55   A    
C45   C89   A    
O28   S3    D    
C30   C93   S    
C38   C48   T    
C74   C95   S    
C9    C16   S    
O27   S2    S    
C75   H16   S    
C80   C81   T    
Cr3   O45   S    
C10   C13   S    
C78   S8    S    
C6    C10   S    
O42   S6    S    
C75   C82   A    
C57   C61   A    
C6    C7    S    
C83   O60   A    
H30   O47   S    
C4    C64   S    
C24   C33   T    
C82   C90   S    
O21   S1    D    
O31   S4    D    
Cr3   O15   S    
C2    C3    T    
C25   C26   S    
C94   O43   D    
C71   C72   A    
C83   O59   A    
Cr3   O34   S    
C59   C65   A    
C38   C40   S    
C53   C63   S    
Cr2   O13   S    
C57   C58   A    
C46   H42   S    
C96   H32   S    
C50   H7    S    
O54   S9    D    
O30   S3    S    
O32   S4    D    
C92   H25   S    
Cr5   O8    S    
Cr6   O9    S    
C36   H40   S    
C61   C62   S    
C43   C46   S    
C69   C70   A    
C10   C11   S    
C52   O17   A    
Cr1   O18   S    
C42   H2    S    
Cr2   O12   S    
C10   S4    S    
H20   O24   S    
C20   C21   S    
C1    C24   S    
C29   C31   S    
C49   C50   A    
C4    O15   A    
C60   C61   A    
C64   C76   A    
C51   C53   A    
Cr4   O6    S    
C69   C97   S    
