data_mof_unit_5064.cif
_audit_creation_date              2012-10-26T20:14:59-0400
_audit_creation_method            fapswitch 2.2
_symmetry_space_group_name_H-M    P1
_symmetry_Int_Tables_number       1
_space_group_crystal_system       triclinic
_cell_length_a                    17.782557
_cell_length_b                    9.096938
_cell_length_c                    7.776034
_cell_angle_alpha                 89.9998
_cell_angle_beta                  89.999874
_cell_angle_gamma                 89.999985
_cell_volume                      1257.9042808

loop_
_atom_site_label
_atom_site_type_symbol
_atom_type_description
_atom_site_fract_x
_atom_site_fract_y
_atom_site_fract_z
_atom_type_partial_charge
C1    C     C_R   0.500000 0.219978 0.500000 0.550626
C2    C     C_R   0.846606 0.430840 0.365353 0.091539
C3    C     C_R   0.767700 0.570235 0.634106 0.091747
C4    C     C_R   0.232300 0.570235 0.365893 0.091747
C5    C     C_R   0.232300 0.429765 0.634107 0.091747
C6    C     C_R   0.767700 0.429765 0.365893 0.091747
C7    C     C_R   0.727853 0.500000 0.499999 0.029831
C8    C     C_R   0.272147 0.500000 0.500000 0.029830
C9    C     C_R   0.885772 0.500000 0.500000 0.011901
C10   C     C_R   0.114228 0.500000 0.500000 0.011901
C11   C     C_1   0.966331 0.500000 0.500000 -0.037533
C12   C     C_R   0.500000 0.780022 0.500000 0.550626
C13   C     C_1   0.033668 0.500000 0.500000 -0.037533
C14   C     C_1   0.500000 0.065356 0.500000 -0.038982
C15   C     C_1   0.500000 0.934644 0.500000 -0.038982
C16   C     C_R   0.355168 0.500000 0.500000 0.583438
C17   C     C_R   0.644832 0.500000 0.500000 0.583438
C18   C     C_R   0.846606 0.569160 0.634646 0.091539
C19   C     C_R   0.153394 0.569160 0.365353 0.091539
C20   C     C_R   0.153394 0.430840 0.634648 0.091539
Cu1   Cu    Cu3+1 0.500000 0.500000 0.669080 1.059763
Cu2   Cu    Cu3+1 0.500000 0.500000 0.330920 1.059763
H1    H     H_    0.920145 0.561612 0.833519 0.233024
H2    H     H_    0.744554 0.756390 0.766807 0.248511
H3    H     H_    0.255446 0.756390 0.233191 0.248511
H4    H     H_    0.256856 0.600490 0.114020 0.254561
H5    H     H_    0.255445 0.243611 0.766810 0.248511
H6    H     H_    0.256855 0.399511 0.885980 0.254561
H7    H     H_    0.743145 0.399511 0.114020 0.254561
H8    H     H_    0.744555 0.243611 0.233191 0.248511
H9    H     H_    0.920696 0.721426 0.721187 0.238176
H10   H     H_    0.079855 0.561612 0.166480 0.233024
H11   H     H_    0.079303 0.721426 0.278811 0.238176
H12   H     H_    0.079855 0.438389 0.833520 0.233024
H13   H     H_    0.079303 0.278575 0.721190 0.238176
H14   H     H_    0.920145 0.438389 0.166480 0.233024
H15   H     H_    0.920697 0.278575 0.278812 0.238177
H16   H     H_    0.743145 0.600490 0.885979 0.254561
N1    N     N_1   0.500000 0.500000 0.076820 -0.069918
N2    N     N_3   0.727819 0.353795 0.232278 -0.586746
N3    N     N_1   0.500000 0.500000 0.923180 -0.069918
N4    N     N_3   0.886087 0.639723 0.772952 -0.639124
N5    N     N_3   0.113913 0.639724 0.227046 -0.639124
N6    N     N_3   0.113912 0.360277 0.772954 -0.639125
N7    N     N_3   0.886088 0.360277 0.227047 -0.639125
N8    N     N_3   0.727818 0.646205 0.767721 -0.586746
N9    N     N_3   0.272182 0.646206 0.232278 -0.586746
N10   N     N_3   0.272181 0.353795 0.767723 -0.586746
O1    O     O_R   0.500000 0.288390 0.642760 -0.497100
O2    O     O_R   0.500000 0.711610 0.357240 -0.497100
O3    O     O_R   0.500000 0.711610 0.642760 -0.497100
O4    O     O_R   0.500000 0.288390 0.357240 -0.497100
O5    O     O_R   0.391250 0.500000 0.642840 -0.479151
O6    O     O_R   0.608750 0.500000 0.357160 -0.479151
O7    O     O_R   0.608750 0.500000 0.642840 -0.479151
O8    O     O_R   0.391250 0.500000 0.357160 -0.479151

loop_
_geom_bond_atom_site_label_1
_geom_bond_atom_site_label_2
_ccdc_geom_bond_type
H5    N10   S    
C5    C8    A    
C12   O2    A    
C16   O8    A    
C6    C7    A    
H9    N4    S    
C9    C11   S    
C17   O7    A    
C3    N8    S    
C4    C19   A    
C12   C15   S    
Cu2   O2    S    
C10   C19   A    
C4    C8    A    
H2    N8    S    
Cu1   O1    S    
C1    O4    A    
H8    N2    S    
H14   N7    S    
N1    N3    T    
C5    C20   A    
Cu1   Cu2   S    
Cu1   O5    S    
H13   N6    S    
C11   C13   T    
C2    C6    A    
H1    N4    S    
H4    N9    S    
Cu1   N3    S    
Cu2   N1    S    
H7    N2    S    
Cu2   O4    S    
C20   N6    S    
H10   N5    S    
C19   N5    S    
C3    C7    A    
C18   N4    S    
C2    N7    S    
C5    N10   S    
C6    N2    S    
H16   N8    S    
H15   N7    S    
H11   N5    S    
C9    C18   A    
Cu1   O3    S    
C12   O3    A    
H12   N6    S    
C3    C18   A    
Cu2   O6    S    
C8    C16   S    
Cu1   O7    S    
H3    N9    S    
C16   O5    A    
H6    N10   S    
Cu2   O8    S    
C1    C14   S    
C14   C15   T    
C2    C9    A    
C1    O1    A    
C17   O6    A    
C10   C13   S    
C10   C20   A    
C7    C17   S    
C4    N9    S    
