data_mof_unit_58014.cif
_audit_creation_date              2012-12-10T17:14:40-0500
_audit_creation_method            fapswitch 2.2
_symmetry_space_group_name_H-M    P1
_symmetry_Int_Tables_number       1
_space_group_crystal_system       triclinic
_cell_length_a                    10.627516
_cell_length_b                    12.970965
_cell_length_c                    11.757353
_cell_angle_alpha                 100.471946
_cell_angle_beta                  94.114971
_cell_angle_gamma                 91.339342
_cell_volume                      1588.54131042

loop_
_atom_site_label
_atom_site_type_symbol
_atom_type_description
_atom_site_fract_x
_atom_site_fract_y
_atom_site_fract_z
_atom_type_partial_charge
C1    C     C_R   0.504817 0.299432 0.478196 0.846094
C2    C     C_R   0.495183 0.700568 0.521804 0.846094
C3    C     C_R   0.455451 0.136890 0.544822 -0.276343
C4    C     C_R   0.544548 0.863110 0.455178 -0.276343
C5    C     C_R   0.465039 0.029813 0.541941 0.154930
C6    C     C_R   0.534961 0.970187 0.458059 0.154929
C7    C     C_R   0.383657 0.399757 0.016992 -0.326690
C8    C     C_R   0.616343 0.600243 0.983008 -0.326690
C9    C     C_R   0.394186 0.406650 0.138642 0.322508
C10   C     C_R   0.605814 0.593350 0.861358 0.322508
C11   C     C_R   0.549888 0.544258 0.158443 0.007156
C12   C     C_R   0.450112 0.455742 0.841556 0.007156
C13   C     C_R   0.542079 0.536367 0.035702 0.039001
C14   C     C_R   0.457921 0.463633 0.964298 0.039001
C15   C     C_R   0.259281 0.499238 0.499989 0.820155
C16   C     C_R   0.740719 0.500762 0.500011 0.820156
C17   C     C_3   0.049485 0.504062 0.609182 -0.153694
C18   C     C_3   0.950515 0.495938 0.390818 -0.153694
C19   C     C_3   0.958385 0.416140 0.540720 -0.124076
C20   C     C_3   0.041615 0.583860 0.459280 -0.124076
C21   C     C_3   0.877612 0.500504 0.499526 0.028096
C22   C     C_3   0.122387 0.499496 0.500474 0.028096
C23   C     C_3   0.966434 0.588429 0.567859 -0.189237
C24   C     C_3   0.033566 0.411571 0.432141 -0.189237
C25   C     C_R   0.483318 0.813891 0.533520 -0.126387
C26   C     C_R   0.516682 0.186109 0.466480 -0.126387
C27   C     C_R   0.595699 0.018431 0.378878 -0.246189
C28   C     C_R   0.404301 0.981569 0.621122 -0.246189
C29   C     C_R   0.590012 0.126860 0.383451 -0.016990
C30   C     C_R   0.409988 0.873140 0.616549 -0.016990
Cu1   Cu    Cu3+1 0.509400 0.507730 0.615930 0.946742
Cu2   Cu    Cu3+1 0.490600 0.492270 0.384070 0.946742
H1    H     H_    0.921054 0.347567 0.573901 0.146959
H2    H     H_    0.078946 0.652432 0.426099 0.146959
H3    H     H_    0.092612 0.507344 0.698680 0.137763
H4    H     H_    0.907388 0.492656 0.301320 0.137763
H5    H     H_    0.935841 0.660701 0.623399 0.131325
H6    H     H_    0.064159 0.339299 0.376601 0.131325
H7    H     H_    0.600109 0.817546 0.391440 0.144719
H8    H     H_    0.399891 0.182454 0.608560 0.144719
H9    H     H_    0.651539 0.971954 0.316173 0.163263
H10   H     H_    0.348461 0.028046 0.683827 0.163263
H11   H     H_    0.384939 0.398885 0.787281 0.119237
H12   H     H_    0.615061 0.601115 0.212719 0.119237
H13   H     H_    0.317383 0.343297 0.963138 0.135913
H14   H     H_    0.682616 0.656702 0.036862 0.135913
N1    N     N_R   0.523540 0.519360 0.790140 -0.188047
N2    N     N_R   0.476460 0.480640 0.209860 -0.188048
O1    O     O_R   0.506670 0.354460 0.582000 -0.587660
O2    O     O_R   0.493330 0.645540 0.418000 -0.587660
O3    O     O_R   0.490800 0.341410 0.386200 -0.577770
O4    O     O_R   0.509200 0.658590 0.613800 -0.577770
O5    O     O_R   0.324790 0.506500 0.597880 -0.569649
O6    O     O_R   0.675210 0.493500 0.402120 -0.569650
O7    O     O_R   0.308910 0.493440 0.402080 -0.612769
O8    O     O_R   0.691090 0.506560 0.597920 -0.612769
C31   C     C_2   0.330917 0.824886 0.693423 0.817384
O9    O     O_2   0.314298 0.873048 0.790411 -0.613156
O10   O     O_R   0.270521 0.726885 0.653718 -0.766618
H15   H     H_    0.218297 0.703433 0.713897 0.329019
C32   C     C_2   0.669082 0.175114 0.306577 0.817385
O11   O     O_2   0.685703 0.126952 0.209589 -0.613156
O12   O     O_R   0.729479 0.273116 0.346282 -0.766618
H16   H     H_    0.781703 0.296567 0.286103 0.329019
C33   C     C_3   0.689624 0.671990 0.818036 -0.402180
C34   C     C_3   0.646199 0.784558 0.854566 -0.349776
C35   C     C_3   0.721355 0.862308 0.800307 -0.814875
H17   H     H_    0.823213 0.861853 0.828921 0.254219
H18   H     H_    0.709214 0.841835 0.704157 0.244517
H19   H     H_    0.687070 0.942554 0.827825 0.262293
H20   H     H_    0.544704 0.788231 0.827083 0.255476
H21   H     H_    0.658198 0.808730 0.950440 0.222545
H22   H     H_    0.788137 0.666826 0.854979 0.165135
H23   H     H_    0.695528 0.656953 0.724625 0.247658
C36   C     C_3   0.310376 0.328010 0.181964 -0.402180
C37   C     C_3   0.353801 0.215442 0.145434 -0.349776
C38   C     C_3   0.278645 0.137692 0.199692 -0.814874
H24   H     H_    0.290785 0.158165 0.295843 0.244516
H25   H     H_    0.176787 0.138147 0.171079 0.254219
H26   H     H_    0.312930 0.057446 0.172175 0.262293
H27   H     H_    0.341802 0.191270 0.049560 0.222545
H28   H     H_    0.455296 0.211769 0.172917 0.255476
H29   H     H_    0.304472 0.343047 0.275375 0.247658
H30   H     H_    0.211863 0.333174 0.145020 0.165135

loop_
_geom_bond_atom_site_label_1
_geom_bond_atom_site_label_2
_ccdc_geom_bond_type
C16   C21   S    
C27   C29   A    
C18   C21   S    
Cu1   O4    S    
C4    C25   A    
C38   H24   S    
C17   C23   S    
C18   C24   S    
C15   O5    A    
C19   C21   S    
C12   H11   S    
C5    C6    A    
C36   H30   S    
C10   C33   S    
C30   C31   S    
C33   H22   S    
C32   O12   S    
C2    O2    A    
C15   C22   S    
C34   H21   S    
C34   H20   S    
C24   H6    S    
C20   C23   S    
Cu1   O8    S    
C7    C14   A    
Cu2   O7    S    
C6    C27   A    
C20   H2    S    
C34   C35   S    
O10   H15   S    
Cu1   N1    S    
C13   C14   A    
Cu2   N2    S    
C11   N2    A    
Cu1   O1    S    
C12   N1    A    
Cu2   O6    S    
C8    H14   S    
C38   H25   S    
C29   C32   S    
C35   H17   S    
C37   C38   S    
C4    C6    A    
C19   H1    S    
C37   H28   S    
C23   H5    S    
C33   H23   S    
C35   H18   S    
C15   O7    A    
C36   C37   S    
C16   O8    A    
Cu2   O3    S    
C5    C28   A    
C27   H9    S    
Cu1   Cu2   S    
C4    H7    S    
C11   H12   S    
Cu1   O5    S    
C1    O3    A    
Cu2   O2    S    
C2    O4    A    
C26   C29   A    
C12   C14   A    
C3    H8    S    
C21   C23   S    
C1    C26   S    
C22   C24   S    
C7    H13   S    
C38   H26   S    
C25   C30   A    
C7    C9    A    
C3    C26   A    
C20   C22   S    
C3    C5    A    
C37   H27   S    
C17   H3    S    
C17   C22   S    
C35   H19   S    
C28   C30   A    
C19   C24   S    
C11   C13   A    
C36   H29   S    
C31   O9    D    
C18   H4    S    
C28   H10   S    
C17   C19   S    
C2    C25   S    
C18   C20   S    
C32   O11   D    
C16   O6    A    
C31   O10   S    
O12   H16   S    
C8    C13   A    
C9    N2    A    
C8    C10   A    
C33   C34   S    
C10   N1    A    
C9    C36   S    
C1    O1    A    
