data_mof_unit_26899.cif
_audit_creation_date              2012-10-26T21:33:18-0400
_audit_creation_method            fapswitch 2.2
_symmetry_space_group_name_H-M    P1
_symmetry_Int_Tables_number       1
_space_group_crystal_system       triclinic
_cell_length_a                    28.261702
_cell_length_b                    18.473827
_cell_length_c                    17.086117
_cell_angle_alpha                 90.000043
_cell_angle_beta                  61.175304
_cell_angle_gamma                 90.000028
_cell_volume                      7815.40918326

loop_
_atom_site_label
_atom_site_type_symbol
_atom_type_description
_atom_site_fract_x
_atom_site_fract_y
_atom_site_fract_z
_atom_type_partial_charge
C1    C     C_R   0.702641 0.270120 0.675117 0.912407
C2    C     C_R   0.091228 0.505307 0.525302 -0.063606
C3    C     C_R   0.193714 0.210080 0.901726 0.081463
C4    C     C_R   0.073993 0.099821 0.933992 0.916892
C5    C     C_R   0.924599 0.902456 0.067181 0.927360
C6    C     C_R   0.926007 0.099822 0.066008 0.916895
C7    C     C_R   0.075401 0.902456 0.932819 0.927358
C8    C     C_R   0.573992 0.599822 0.933992 0.916893
C9    C     C_R   0.424599 0.402456 0.067181 0.927356
C10   C     C_R   0.426007 0.599821 0.066008 0.916892
C11   C     C_R   0.575401 0.402456 0.932819 0.927356
C12   C     C_R   0.538505 0.136378 0.530627 0.001219
C13   C     C_R   0.408771 0.005307 0.474700 -0.063604
C14   C     C_R   0.447790 0.876550 0.509773 0.003934
C15   C     C_R   0.461493 0.136377 0.469380 0.001216
C16   C     C_R   0.552197 0.876548 0.490259 0.003948
C17   C     C_R   0.038506 0.636378 0.530623 0.001217
C18   C     C_R   0.947801 0.376548 0.509746 0.003931
C19   C     C_R   0.961494 0.636378 0.469376 0.001219
C20   C     C_R   0.052209 0.376550 0.490229 0.003923
C21   C     C_R   0.517827 0.202067 0.517828 -0.192119
C22   C     C_R   0.473063 0.810670 0.508653 -0.191220
C23   C     C_R   0.482173 0.202066 0.482174 -0.192123
C24   C     C_R   0.591224 0.005306 0.525313 -0.063597
C25   C     C_R   0.526921 0.810668 0.491387 -0.191209
C26   C     C_R   0.017826 0.702067 0.517829 -0.192121
C27   C     C_R   0.973077 0.310669 0.508618 -0.191218
C28   C     C_R   0.982172 0.702067 0.482174 -0.192120
C29   C     C_R   0.026935 0.310670 0.491350 -0.191226
C30   C     C_R   0.478867 0.071557 0.489255 0.001509
C31   C     C_R   0.524357 0.941231 0.501222 0.002848
C32   C     C_R   0.521128 0.071557 0.510758 0.001508
C33   C     C_R   0.475633 0.941232 0.498804 0.002850
C34   C     C_R   0.978870 0.571558 0.489245 0.001508
C35   C     C_R   0.105560 0.380431 0.473994 0.494275
C36   C     C_R   0.024366 0.441232 0.501199 0.002850
C37   C     C_R   0.021132 0.571558 0.510748 0.001508
C38   C     C_R   0.975642 0.441232 0.498782 0.002849
C39   C     C_R   0.954355 0.506201 0.487568 -0.063657
C40   C     C_R   0.045649 0.506201 0.512420 -0.063652
C41   C     C_R   0.454350 0.006201 0.487582 -0.063655
C42   C     C_R   0.545644 0.006200 0.512436 -0.063661
C43   C     C_R   0.878296 0.440909 0.491367 -0.075402
C44   C     C_R   0.107285 0.569306 0.550713 -0.063335
C45   C     C_R   0.121709 0.440910 0.508621 -0.075402
C46   C     C_R   0.924857 0.633425 0.435507 0.493916
C47   C     C_R   0.892715 0.569306 0.449284 -0.063336
C48   C     C_R   0.378290 0.940910 0.491379 -0.075399
C49   C     C_R   0.607284 0.069306 0.550717 -0.063334
C50   C     C_R   0.621704 0.940908 0.508634 -0.075407
C51   C     C_R   0.392714 0.069306 0.449289 -0.063334
C52   C     C_R   0.835765 0.438781 0.468097 -0.160409
C53   C     C_R   0.155488 0.566852 0.558442 -0.146358
C54   C     C_R   0.164237 0.438782 0.531897 -0.160407
C55   C     C_R   0.844512 0.566852 0.441557 -0.146361
C56   C     C_R   0.335763 0.938781 0.468101 -0.160408
C57   C     C_R   0.894449 0.380428 0.525987 0.494264
C58   C     C_R   0.655488 0.066852 0.558443 -0.146362
C59   C     C_R   0.664234 0.938780 0.531904 -0.160416
C60   C     C_R   0.344511 0.066852 0.441559 -0.146354
C61   C     C_R   0.823674 0.500830 0.433821 -0.113002
C62   C     C_R   0.176326 0.500830 0.566177 -0.112999
C63   C     C_R   0.323674 0.000831 0.433823 -0.113005
C64   C     C_R   0.676326 0.000830 0.566179 -0.112996
C65   C     C_R   0.798064 0.496425 0.375277 0.150689
C66   C     C_R   0.741644 0.498776 0.410203 -0.008044
C67   C     C_R   0.719206 0.494586 0.353152 -0.169403
C68   C     C_R   0.075143 0.633424 0.564492 0.493918
C69   C     C_R   0.752735 0.488114 0.261007 -0.113512
C70   C     C_R   0.808765 0.485866 0.225755 -0.136151
C71   C     C_R   0.831381 0.490101 0.282560 -0.200140
C72   C     C_R   0.201928 0.496419 0.624731 0.150686
C73   C     C_R   0.168606 0.490066 0.717439 -0.200150
C74   C     C_R   0.191214 0.485815 0.774252 -0.136164
C75   C     C_R   0.247241 0.488074 0.739016 -0.113509
C76   C     C_R   0.280775 0.494573 0.646880 -0.169413
C77   C     C_R   0.258346 0.498779 0.589822 -0.008070
C78   C     C_R   0.298065 0.996426 0.375277 0.150689
C79   C     C_R   0.605550 0.880427 0.474016 0.494252
C80   C     C_R   0.241644 0.998775 0.410201 -0.008042
C81   C     C_R   0.219208 0.994590 0.353148 -0.169406
C82   C     C_R   0.252738 0.988128 0.261003 -0.113514
C83   C     C_R   0.308768 0.985883 0.225752 -0.136153
C84   C     C_R   0.331383 0.990111 0.282559 -0.200142
C85   C     C_R   0.701938 0.996424 0.624721 0.150694
C86   C     C_R   0.668621 0.990095 0.717437 -0.200141
C87   C     C_R   0.691239 0.985857 0.774240 -0.136152
C88   C     C_R   0.747269 0.988108 0.738987 -0.113513
C89   C     C_R   0.780797 0.994584 0.646843 -0.169405
C90   C     C_R   0.424857 0.133424 0.435510 0.493919
C91   C     C_R   0.758358 0.998777 0.589794 -0.008044
C92   C     C_3   0.174676 0.370691 0.331899 -0.303416
C93   C     C_3   0.946260 0.671933 0.295599 -0.310363
C94   C     C_3   0.825329 0.370687 0.668080 -0.303347
C95   C     C_3   0.053738 0.671929 0.704402 -0.310374
C96   C     C_3   0.674686 0.870689 0.331933 -0.303240
C97   C     C_3   0.446264 0.171929 0.295600 -0.310382
C98   C     C_3   0.325313 0.870696 0.668094 -0.303340
C99   C     C_3   0.553741 0.171933 0.704402 -0.310365
C100  C     C_3   0.665267 0.444884 0.721274 -0.214750
C101  C     C_R   0.394440 0.880431 0.526006 0.494263
C102  C     C_3   0.438459 0.737634 0.196434 -0.284841
C103  C     C_3   0.334728 0.444884 0.278725 -0.214753
C104  C     C_3   0.561542 0.737635 0.803562 -0.284842
C105  C     C_3   0.165261 0.944882 0.721273 -0.214747
C106  C     C_3   0.938459 0.237634 0.196435 -0.284845
C107  C     C_3   0.834743 0.944882 0.278727 -0.214748
C108  C     C_3   0.061541 0.237636 0.803565 -0.284847
C109  C     C_R   0.298229 0.731594 0.324117 0.915334
C110  C     C_R   0.575142 0.133425 0.564495 0.493916
C111  C     C_R   0.715768 0.253985 0.957051 0.136053
C112  C     C_R   0.274581 0.725313 0.050437 0.134648
C113  C     C_R   0.284234 0.253981 0.042948 0.136052
C114  C     C_R   0.725418 0.725315 0.949564 0.134646
C115  C     C_R   0.215767 0.753984 0.957051 0.136054
C116  C     C_R   0.774582 0.225313 0.050436 0.134647
C117  C     C_R   0.784231 0.753987 0.042950 0.136051
C118  C     C_R   0.225419 0.225312 0.949563 0.134646
C119  C     C_R   0.772555 0.250710 0.911605 -0.188252
C120  C     C_R   0.297360 0.270118 0.324882 0.912415
C121  C     C_R   0.217695 0.727542 0.096007 -0.185784
C122  C     C_R   0.227447 0.250705 0.088394 -0.188259
C123  C     C_R   0.782304 0.727539 0.903995 -0.185785
C124  C     C_R   0.272554 0.750701 0.911604 -0.188255
C125  C     C_R   0.717695 0.227535 0.096005 -0.185784
C126  C     C_R   0.727444 0.750709 0.088396 -0.188249
C127  C     C_R   0.282305 0.227535 0.903994 -0.185785
C128  C     C_R   0.801426 0.236909 0.957474 -0.186464
C129  C     C_R   0.188727 0.741788 0.050010 -0.186714
C130  C     C_R   0.198575 0.236904 0.042525 -0.186466
C131  C     C_R   0.701771 0.731594 0.675883 0.915332
C132  C     C_R   0.811272 0.741785 0.949992 -0.186716
C133  C     C_R   0.301425 0.736900 0.957473 -0.186460
C134  C     C_R   0.688727 0.241781 0.050008 -0.186718
C135  C     C_R   0.698573 0.736908 0.042526 -0.186462
C136  C     C_R   0.311274 0.241780 0.949990 -0.186717
C137  C     C_R   0.641482 0.322524 0.947000 -0.287033
C138  C     C_R   0.352889 0.667330 0.057998 -0.295855
C139  C     C_R   0.358520 0.322522 0.052999 -0.287033
C140  C     C_R   0.647110 0.667331 0.942002 -0.295855
C141  C     C_R   0.141482 0.822525 0.946999 -0.287033
C142  C     C_R   0.202640 0.770119 0.675117 0.912411
C143  C     C_R   0.852890 0.167331 0.057997 -0.295853
C144  C     C_R   0.858517 0.822526 0.053001 -0.287033
C145  C     C_R   0.147110 0.167330 0.942002 -0.295853
C146  C     C_R   0.620196 0.353291 0.894808 -0.182272
C147  C     C_R   0.383385 0.653165 0.101804 -0.186476
C148  C     C_R   0.379804 0.353290 0.105191 -0.182273
C149  C     C_R   0.616614 0.653165 0.898196 -0.186475
C150  C     C_R   0.120196 0.853291 0.894808 -0.182271
C151  C     C_R   0.883386 0.153165 0.101804 -0.186475
C152  C     C_R   0.879804 0.853291 0.105192 -0.182271
C153  C     C_R   0.798229 0.231594 0.324117 0.915331
C154  C     C_R   0.116614 0.153165 0.898196 -0.186475
C155  C     C_R   0.644502 0.341637 0.804046 0.442514
C156  C     C_R   0.370308 0.685592 0.182764 0.451821
C157  C     C_R   0.355498 0.341636 0.195953 0.442521
C158  C     C_R   0.629692 0.685592 0.817235 0.451820
C159  C     C_R   0.144501 0.841635 0.804047 0.442510
C160  C     C_R   0.870308 0.185592 0.182764 0.451819
C161  C     C_R   0.855499 0.841636 0.195953 0.442507
C162  C     C_R   0.129692 0.185592 0.817236 0.451819
C163  C     C_R   0.681996 0.286867 0.768298 -0.175347
C164  C     C_R   0.797359 0.770120 0.324883 0.912392
C165  C     C_R   0.320529 0.719071 0.228851 -0.170178
C166  C     C_R   0.318005 0.286864 0.231700 -0.175352
C167  C     C_R   0.679471 0.719071 0.771149 -0.170178
C168  C     C_R   0.181996 0.786865 0.768299 -0.175345
C169  C     C_R   0.820528 0.219071 0.228851 -0.170176
C170  C     C_R   0.818003 0.786867 0.231702 -0.175343
C171  C     C_R   0.179472 0.219071 0.771149 -0.170175
C172  C     C_R   0.703668 0.254245 0.819250 -0.306671
C173  C     C_R   0.289522 0.734434 0.185598 -0.280051
C174  C     C_R   0.296335 0.254240 0.180748 -0.306683
C175  C     C_R   0.201771 0.231594 0.675883 0.915334
C176  C     C_R   0.710478 0.734434 0.814402 -0.280054
C177  C     C_R   0.203667 0.754243 0.819250 -0.306668
C178  C     C_R   0.789521 0.234433 0.185599 -0.280053
C179  C     C_R   0.796331 0.754247 0.180751 -0.306666
C180  C     C_R   0.210479 0.234433 0.814401 -0.280057
C181  C     C_R   0.690721 0.130186 0.537329 0.905096
C182  C     C_R   0.305812 0.872338 0.475161 0.895095
C183  C     C_R   0.309279 0.130186 0.462671 0.905100
C184  C     C_R   0.694188 0.872338 0.524841 0.895058
C185  C     C_R   0.190721 0.630186 0.537330 0.905099
C186  C     C_R   0.908775 0.505306 0.474689 -0.063601
C187  C     C_R   0.805812 0.372338 0.475160 0.895090
C188  C     C_R   0.809279 0.630186 0.462671 0.905101
C189  C     C_R   0.194189 0.372339 0.524837 0.895123
C190  C     C_R   0.685852 0.275511 0.908092 0.083125
C191  C     C_R   0.306286 0.710080 0.098274 0.081467
C192  C     C_R   0.314151 0.275506 0.091906 0.083126
C193  C     C_R   0.693713 0.710081 0.901726 0.081466
C194  C     C_R   0.185851 0.775510 0.908092 0.083125
C195  C     C_R   0.806286 0.210081 0.098274 0.081465
C196  C     C_R   0.814147 0.775513 0.091909 0.083125
H1    H     H_    0.047502 0.259652 0.484323 0.170930
H2    H     H_    0.345114 0.736818 0.920006 0.131175
H3    H     H_    0.915594 0.289131 0.221811 0.142632
H4    H     H_    0.964759 0.240276 0.122659 0.134119
H5    H     H_    0.965129 0.231562 0.226914 0.188945
H6    H     H_    0.791913 0.928877 0.321970 0.123287
H7    H     H_    0.838681 0.977965 0.221413 0.134266
H8    H     H_    0.846674 0.979589 0.319290 0.189324
H9    H     H_    0.084407 0.289132 0.778189 0.142630
H10   H     H_    0.035242 0.240278 0.877342 0.134119
H11   H     H_    0.034871 0.231564 0.773087 0.188947
H12   H     H_    0.354947 0.242922 0.912636 0.129316
H13   H     H_    0.654884 0.736830 0.079992 0.131177
H14   H     H_    0.145054 0.742934 0.087365 0.129315
H15   H     H_    0.845116 0.236833 0.920009 0.131175
H16   H     H_    0.854945 0.742928 0.912638 0.129316
H17   H     H_    0.154886 0.236827 0.079992 0.131174
H18   H     H_    0.795071 0.261049 0.840592 0.131416
H19   H     H_    0.195394 0.717441 0.167165 0.132672
H20   H     H_    0.204932 0.261041 0.159408 0.131426
H21   H     H_    0.968916 0.753344 0.468771 0.180522
H22   H     H_    0.804605 0.717434 0.832837 0.132673
H23   H     H_    0.295069 0.761032 0.840589 0.131421
H24   H     H_    0.695394 0.217428 0.167162 0.132673
H25   H     H_    0.704928 0.761045 0.159410 0.131415
H26   H     H_    0.304606 0.217430 0.832836 0.132674
H27   H     H_    0.625189 0.338088 0.016334 0.170551
H28   H     H_    0.364205 0.642562 0.993910 0.175221
H29   H     H_    0.374813 0.338086 0.983665 0.170551
H30   H     H_    0.635793 0.642565 0.006092 0.175222
H31   H     H_    0.125189 0.838090 0.016333 0.170551
H32   H     H_    0.952511 0.259650 0.515640 0.170928
H33   H     H_    0.864207 0.142565 0.993907 0.175222
H34   H     H_    0.874810 0.838091 0.983667 0.170551
H35   H     H_    0.135794 0.142563 0.006092 0.175222
H36   H     H_    0.735687 0.214538 0.788893 0.181691
H37   H     H_    0.252017 0.764205 0.220350 0.175244
H38   H     H_    0.264317 0.214532 0.211104 0.181692
H39   H     H_    0.747983 0.764205 0.779650 0.175245
H40   H     H_    0.235685 0.714535 0.788894 0.181690
H41   H     H_    0.752016 0.264203 0.220351 0.175245
H42   H     H_    0.764311 0.714541 0.211108 0.181690
H43   H     H_    0.031080 0.753344 0.531236 0.180523
H44   H     H_    0.247984 0.264203 0.779649 0.175244
H45   H     H_    0.715167 0.503117 0.481578 0.125146
H46   H     H_    0.675807 0.496190 0.380416 0.116318
H47   H     H_    0.735305 0.484791 0.216927 0.129276
H48   H     H_    0.834694 0.480835 0.154371 0.131293
H49   H     H_    0.874881 0.488316 0.254397 0.124149
H50   H     H_    0.125107 0.488271 0.745590 0.124155
H51   H     H_    0.165281 0.480760 0.845628 0.131298
H52   H     H_    0.264666 0.484737 0.783102 0.129280
H53   H     H_    0.324172 0.496184 0.619628 0.116324
H54   H     H_    0.547486 0.759649 0.484364 0.170928
H55   H     H_    0.284826 0.503135 0.518452 0.125161
H56   H     H_    0.215167 0.003111 0.481577 0.125144
H57   H     H_    0.175809 0.996193 0.380412 0.116318
H58   H     H_    0.235309 0.984810 0.216921 0.129276
H59   H     H_    0.334698 0.980860 0.154367 0.131294
H60   H     H_    0.374883 0.988330 0.254396 0.124150
H61   H     H_    0.625121 0.988308 0.745602 0.124150
H62   H     H_    0.665311 0.980822 0.845623 0.131294
H63   H     H_    0.764700 0.984782 0.783065 0.129276
H64   H     H_    0.824195 0.996190 0.619577 0.116317
H65   H     H_    0.468919 0.253343 0.468767 0.180523
H66   H     H_    0.784833 0.003121 0.518419 0.125145
H67   H     H_    0.201344 0.410115 0.340944 0.142352
H68   H     H_    0.149906 0.398519 0.306305 0.153015
H69   H     H_    0.201025 0.331469 0.280436 0.191161
H70   H     H_    0.920695 0.631765 0.284781 0.148053
H71   H     H_    0.988009 0.650615 0.269978 0.148216
H72   H     H_    0.948856 0.720732 0.255871 0.204622
H73   H     H_    0.798644 0.410077 0.659035 0.142356
H74   H     H_    0.850094 0.398552 0.693656 0.152990
H75   H     H_    0.798999 0.331462 0.719558 0.191135
H76   H     H_    0.452496 0.759651 0.515679 0.170929
H77   H     H_    0.079304 0.631761 0.715219 0.148059
H78   H     H_    0.011990 0.650610 0.730021 0.148217
H79   H     H_    0.051141 0.720727 0.744132 0.204620
H80   H     H_    0.701392 0.910031 0.340993 0.142342
H81   H     H_    0.649936 0.898610 0.306369 0.152949
H82   H     H_    0.700993 0.831459 0.280441 0.191115
H83   H     H_    0.420701 0.131758 0.284781 0.148055
H84   H     H_    0.488013 0.150614 0.269982 0.148222
H85   H     H_    0.448859 0.220727 0.255870 0.204617
H86   H     H_    0.298624 0.910073 0.659043 0.142356
H87   H     H_    0.531083 0.253344 0.531231 0.180522
H88   H     H_    0.350074 0.898575 0.693666 0.152982
H89   H     H_    0.298988 0.831471 0.719577 0.191135
H90   H     H_    0.579308 0.131767 0.715219 0.148054
H91   H     H_    0.511993 0.150612 0.730024 0.148214
H92   H     H_    0.551144 0.220732 0.744131 0.204618
H93   H     H_    0.708098 0.428876 0.678060 0.123275
H94   H     H_    0.661315 0.477976 0.778591 0.134289
H95   H     H_    0.653351 0.479583 0.680685 0.189316
H96   H     H_    0.415595 0.789131 0.221810 0.142632
H97   H     H_    0.464759 0.740276 0.122658 0.134119
H98   H     H_    0.645054 0.242922 0.087361 0.129316
H99   H     H_    0.465130 0.731562 0.226912 0.188947
H100  H     H_    0.291896 0.428871 0.321932 0.123278
H101  H     H_    0.338683 0.477977 0.221407 0.134292
H102  H     H_    0.346638 0.479582 0.319323 0.189319
H103  H     H_    0.584407 0.789131 0.778183 0.142632
H104  H     H_    0.535243 0.740280 0.877339 0.134118
H105  H     H_    0.534871 0.731562 0.773085 0.188946
H106  H     H_    0.208092 0.928876 0.678052 0.123280
H107  H     H_    0.161312 0.977973 0.778589 0.134284
H108  H     H_    0.153341 0.979582 0.680690 0.189317
O1    O     O_R   0.746490 0.236330 0.638080 -0.628262
O2    O     O_R   0.325830 0.813840 0.483730 -0.572994
O3    O     O_R   0.325830 0.186160 0.483730 -0.575787
O4    O     O_R   0.674170 0.813840 0.516270 -0.572990
O5    O     O_R   0.174170 0.686160 0.516270 -0.575782
O6    O     O_R   0.825830 0.313840 0.483730 -0.572989
O7    O     O_R   0.825830 0.686160 0.483730 -0.575783
O8    O     O_R   0.174170 0.313840 0.516270 -0.572996
O9    O     O_R   0.739960 0.127620 0.525000 -0.651191
O10   O     O_R   0.260040 0.872380 0.475000 -0.644942
O11   O     O_R   0.260040 0.127620 0.475000 -0.651187
O12   O     O_R   0.253510 0.763670 0.361920 -0.646411
O13   O     O_R   0.739960 0.872380 0.525000 -0.644934
O14   O     O_R   0.239960 0.627620 0.525000 -0.651198
O15   O     O_R   0.760040 0.372380 0.475000 -0.644936
O16   O     O_R   0.760040 0.627620 0.475000 -0.651187
O17   O     O_R   0.239960 0.372380 0.525000 -0.644927
O18   O     O_R   0.680700 0.294870 0.629350 -0.557737
O19   O     O_R   0.319300 0.705130 0.370650 -0.575834
O20   O     O_R   0.319300 0.294870 0.370650 -0.557738
O21   O     O_R   0.680700 0.705130 0.629350 -0.575835
O22   O     O_R   0.180700 0.794870 0.629350 -0.557738
O23   O     O_R   0.253510 0.236330 0.361920 -0.628259
O24   O     O_R   0.819300 0.205130 0.370650 -0.575837
O25   O     O_R   0.819300 0.794870 0.370650 -0.557738
O26   O     O_R   0.180700 0.205130 0.629350 -0.575837
O27   O     O_R   0.062020 0.072840 0.007170 -0.643593
O28   O     O_R   0.937980 0.927160 0.992830 -0.644219
O29   O     O_R   0.937980 0.072840 0.992830 -0.643592
O30   O     O_R   0.062020 0.927160 0.007170 -0.644219
O31   O     O_R   0.562020 0.572840 0.007170 -0.643593
O32   O     O_R   0.437980 0.427160 0.992830 -0.644219
O33   O     O_R   0.437980 0.572840 0.992830 -0.643594
O34   O     O_R   0.746490 0.763670 0.638080 -0.646409
O35   O     O_R   0.562020 0.427160 0.007170 -0.644219
O36   O     O_R   0.947860 0.073950 0.109290 -0.566170
O37   O     O_R   0.052140 0.926050 0.890710 -0.565221
O38   O     O_R   0.052140 0.073950 0.890710 -0.566168
O39   O     O_R   0.947860 0.926050 0.109290 -0.565219
O40   O     O_R   0.447860 0.573950 0.109290 -0.566164
O41   O     O_R   0.552140 0.426050 0.890710 -0.565221
O42   O     O_R   0.552140 0.573950 0.890710 -0.566166
O43   O     O_R   0.447860 0.426050 0.109290 -0.565221
O44   O     O_3   0.141981 0.332585 0.411582 -0.582383
O45   O     O_R   0.246490 0.736330 0.638080 -0.628258
O46   O     O_3   0.923224 0.692096 0.386241 -0.584284
O47   O     O_3   0.858031 0.332580 0.588402 -0.582385
O48   O     O_3   0.076775 0.692094 0.613761 -0.584286
O49   O     O_3   0.641966 0.832577 0.411600 -0.582395
O50   O     O_3   0.423225 0.192094 0.386242 -0.584285
O51   O     O_3   0.358019 0.832584 0.588420 -0.582389
O52   O     O_3   0.576775 0.192096 0.613761 -0.584285
O53   O     O_3   0.631054 0.383693 0.750239 -0.577037
O54   O     O_3   0.403404 0.677570 0.221153 -0.578213
O55   O     O_3   0.368943 0.383695 0.249761 -0.577036
O56   O     O_R   0.753510 0.263670 0.361920 -0.646410
O57   O     O_3   0.596596 0.677569 0.778847 -0.578214
O58   O     O_3   0.131051 0.883689 0.750240 -0.577036
O59   O     O_3   0.903404 0.177570 0.221153 -0.578217
O60   O     O_3   0.868951 0.883687 0.249759 -0.577036
O61   O     O_3   0.096596 0.177570 0.778848 -0.578214
O62   O     O_R   0.753510 0.736330 0.361920 -0.628263
O63   O     O_R   0.246490 0.263670 0.638080 -0.646409
O64   O     O_R   0.674170 0.186160 0.516270 -0.575783
Zn1   Zn    Zn3+2 0.792340 0.208750 0.507670 0.996327
Zn2   Zn    Zn3+2 0.494040 0.500000 0.919480 0.981599
Zn3   Zn    Zn3+2 0.005960 0.000000 0.080520 0.981592
Zn4   Zn    Zn3+2 0.994040 0.000000 0.919480 0.981596
Zn5   Zn    Zn3+2 0.207660 0.791250 0.492330 1.002054
Zn6   Zn    Zn3+2 0.207660 0.208750 0.492330 0.996330
Zn7   Zn    Zn3+2 0.792340 0.791250 0.507670 1.002056
Zn8   Zn    Zn3+2 0.292340 0.708750 0.507670 0.996321
Zn9   Zn    Zn3+2 0.707660 0.291250 0.492330 1.002058
Zn10  Zn    Zn3+2 0.707660 0.708750 0.492330 0.996329
Zn11  Zn    Zn3+2 0.292340 0.291250 0.507670 1.002064
Zn12  Zn    Zn3+2 0.505960 0.500000 0.080520 0.981603

loop_
_geom_bond_atom_site_label_1
_geom_bond_atom_site_label_2
_ccdc_geom_bond_type
C141  H31   S    
C31   C42   A    
C46   O46   S    
C188  O16   A    
C50   C79   A    
C14   C33   A    
C172  H36   S    
C19   C46   A    
C120  C166  S    
C103  H100  S    
C16   C31   A    
C104  H105  S    
C124  C133  A    
C50   C59   A    
C54   C189  S    
C97   H84   S    
C109  O19   A    
C52   C61   A    
C164  O25   A    
O6    Zn1   S    
C189  O17   A    
O3    Zn11  S    
C87   H62   S    
C162  O61   S    
C189  O8    A    
C100  H94   S    
C13   C51   A    
C116  C195  S    
C44   C53   A    
C93   H70   S    
C113  C122  A    
C99   O52   S    
C84   H60   S    
C52   C187  S    
C117  C126  A    
C10   O33   A    
C119  C128  A    
C143  C151  A    
C24   C50   A    
C174  H38   S    
O15   Zn9   S    
C158  C167  A    
C102  H97   S    
C94   O47   S    
C166  C174  A    
C150  C159  A    
O63   Zn11  S    
C5    O39   A    
C137  C146  A    
C127  C136  A    
C107  H6    S    
C108  H10   S    
C139  C192  A    
O56   Zn9   S    
C172  C190  A    
C94   H73   S    
C173  C191  A    
C182  O2    A    
C75   C76   A    
C86   H61   S    
C93   O46   S    
C3    C118  S    
C95   O48   S    
C138  H28   S    
C9    O43   A    
C47   C186  A    
C163  C172  A    
C92   H68   S    
C6    C151  S    
C123  H22   S    
O32   Zn2   S    
O43   Zn12  S    
C71   H49   S    
C35   C45   A    
C64   C85   S    
C15   C30   A    
C16   C25   A    
C4    O27   A    
O23   Zn6   S    
C72   C73   A    
C140  H30   S    
C188  O7    A    
C21   H87   S    
O62   Zn10  S    
C112  C191  S    
C120  O20   A    
O16   Zn10  S    
C48   C101  A    
C158  O57   S    
C18   C38   A    
C69   C70   A    
C6    O36   A    
C142  C168  S    
C2    C40   A    
C88   C89   A    
C81   H57   S    
C178  H41   S    
C75   H52   S    
C175  O26   A    
C9    O32   A    
C103  H102  S    
O1    Zn1   S    
O25   Zn7   S    
C123  C132  A    
O13   Zn7   S    
C187  O15   A    
C138  C191  A    
C12   C110  A    
C1    O18   A    
C93   H72   S    
O7    Zn7   S    
C99   H92   S    
C95   H78   S    
C58   C181  S    
C175  O63   A    
C121  H19   S    
C179  H42   S    
C51   C90   A    
C38   C39   A    
C78   C80   A    
C43   C52   A    
C8    O42   A    
C23   H65   S    
O38   Zn4   S    
C105  H107  S    
C117  C132  A    
C88   H63   S    
C20   C35   A    
C2    C44   A    
C22   C25   A    
C30   C41   A    
C176  C193  A    
C89   C91   A    
O29   Zn4   S    
C140  C193  A    
O39   Zn3   S    
C152  C161  A    
C66   C67   A    
C131  C167  S    
C164  O62   A    
C7    O37   A    
C26   H43   S    
C67   H46   S    
C141  C150  A    
C2    C45   A    
C58   C64   A    
C139  C148  A    
O18   Zn9   S    
C162  C171  A    
C34   C39   A    
C92   O44   S    
C155  C163  A    
C1    O1    A    
O24   Zn1   S    
C187  O6    A    
C3    C180  A    
C134  H98   S    
C107  H7    S    
C97   H85   S    
C7    C150  S    
C142  O45   A    
C83   C84   A    
C104  H104  S    
C55   C188  S    
C19   C28   A    
C161  O60   S    
C145  C154  A    
C115  C194  S    
C3    C145  A    
O36   Zn3   S    
C116  C125  A    
C109  O12   A    
C96   H80   S    
C118  C127  A    
C114  C123  A    
C106  H4    S    
C99   H90   S    
C102  O54   S    
C113  C192  S    
C181  O9    A    
C183  O3    A    
C154  C162  A    
C111  C134  A    
C144  C196  A    
C66   H45   S    
C9    C148  S    
C170  C179  A    
C14   C22   A    
C97   H83   S    
C112  C121  A    
C144  C152  A    
C106  H5    S    
C55   C61   A    
O28   Zn4   S    
C122  H20   S    
C148  C157  A    
O42   Zn2   S    
C61   C65   S    
C43   C57   A    
C137  C190  A    
C125  H24   S    
C120  O23   A    
C119  H18   S    
C80   H56   S    
C6    O29   A    
C51   C60   A    
C140  C149  A    
C174  C192  A    
C49   C110  A    
C63   C78   S    
C125  C134  A    
C4    C154  S    
C87   C88   A    
C153  O56   A    
C28   H21   S    
C34   C37   A    
C24   C42   A    
C73   C74   A    
O30   Zn3   S    
O40   Zn12  S    
C96   O49   S    
C13   C41   A    
C126  H25   S    
C7    O30   A    
C96   H81   S    
C144  H34   S    
C103  O55   S    
C98   H88   S    
C176  H39   S    
C27   C29   A    
C180  H44   S    
O22   Zn5   S    
C168  C177  A    
C94   H74   S    
C95   H79   S    
C127  H26   S    
C39   C186  A    
O4    Zn10  S    
C146  C155  A    
O33   Zn2   S    
C160  C169  A    
C70   C71   A    
O45   Zn8   S    
O35   Zn12  S    
O19   Zn8   S    
C98   H89   S    
C60   C183  S    
C145  H35   S    
C124  H23   S    
C89   H64   S    
C76   H53   S    
C131  O21   A    
C173  H37   S    
C177  H40   S    
C179  C196  A    
O26   Zn6   S    
C177  C194  A    
C157  O55   S    
C57   O47   S    
C136  H12   S    
C86   C87   A    
C69   H47   S    
C14   C101  A    
O9    Zn1   S    
C73   H50   S    
C54   C62   A    
C85   C86   A    
C90   O50   S    
C105  O58   S    
C83   H59   S    
C160  O59   S    
C100  H93   S    
C118  C130  A    
C13   C48   A    
C25   H54   S    
C18   C57   A    
C143  C195  A    
C185  O5    A    
O12   Zn5   S    
C11   C146  S    
C143  H33   S    
C147  C156  A    
C142  O22   A    
C10   O40   A    
C109  C165  S    
C92   H69   S    
C135  H13   S    
C126  C135  A    
C21   C23   A    
O27   Zn3   S    
C106  O59   S    
C108  O61   S    
C102  H96   S    
C22   H76   S    
C103  H101  S    
C46   C47   A    
C17   C68   A    
C115  C124  A    
C155  O53   S    
O37   Zn4   S    
C121  C129  A    
C108  H9    S    
C98   H86   S    
C93   H71   S    
C99   H91   S    
C37   C40   A    
O31   Zn12  S    
C137  H27   S    
C95   H77   S    
C139  H29   S    
C16   C79   A    
C33   C41   A    
C131  O34   A    
C36   C38   A    
C8    C149  S    
O64   Zn9   S    
C128  H15   S    
C35   O44   S    
C156  C165  A    
C181  O64   A    
C104  O57   S    
O5    Zn5   S    
C105  H106  S    
C92   H67   S    
C20   C36   A    
C1    C163  S    
C111  C190  S    
C82   C83   A    
C182  O10   A    
C153  C169  S    
C153  O24   A    
C32   C42   A    
C82   H58   S    
C129  H14   S    
C133  H2    S    
C114  C193  S    
C11   O41   A    
C132  H16   S    
C112  C133  A    
C101  O51   S    
C81   C82   A    
C85   C91   A    
C110  O52   S    
C59   C64   A    
C5    C152  S    
C60   C63   A    
O2    Zn8   S    
C17   C26   A    
C111  C119  A    
C100  H95   S    
C184  O4    A    
C27   H32   S    
C164  C170  S    
C165  C173  A    
C156  O54   S    
C159  C168  A    
C130  H17   S    
C53   C185  S    
C184  O13   A    
C70   H48   S    
C79   O49   S    
C149  C158  A    
C113  C136  A    
C114  C135  A    
C31   C33   A    
C77   H55   S    
C183  O11   A    
O14   Zn8   S    
C10   C147  S    
C5    O28   A    
C15   C23   A    
C185  O14   A    
C12   C32   A    
O34   Zn7   S    
C108  H11   S    
O20   Zn11  S    
C100  O53   S    
C20   C29   A    
C74   C75   A    
C36   C40   A    
C76   C77   A    
C98   O51   S    
C43   C186  A    
C65   C71   A    
C171  C175  S    
C12   C21   A    
O10   Zn5   S    
C49   C58   A    
C67   C69   A    
C105  H108  S    
C72   C77   A    
C53   C62   A    
C138  C147  A    
C97   O50   S    
C56   C63   A    
C62   C72   S    
C17   C37   A    
C68   O48   S    
C91   H66   S    
C161  C170  A    
C45   C54   A    
O11   Zn6   S    
C29   H1    S    
C171  C180  A    
C44   C68   A    
C4    O38   A    
C169  C178  A    
C47   C55   A    
C115  C129  A    
C24   C49   A    
C48   C56   A    
O41   Zn2   S    
O8    Zn6   S    
C18   C27   A    
C80   C81   A    
C19   C34   A    
C157  C166  A    
C8    O31   A    
C107  O60   S    
C102  H99   S    
C178  C195  A    
C26   C28   A    
C96   H82   S    
C151  C160  A    
C107  H8    S    
C117  C196  S    
C15   C90   A    
C30   C32   A    
C74   H51   S    
C56   C182  S    
O21   Zn10  S    
C104  H103  S    
C94   H75   S    
C141  C194  A    
O17   Zn11  S    
C59   C184  S    
C159  O58   S    
C78   C84   A    
C65   C66   A    
C116  C128  A    
C106  H3    S    
C11   O35   A    
C122  C130  A    
C167  C176  A    
