data_mof_unit_15264.cif
_audit_creation_date              2012-12-10T17:59:45-0500
_audit_creation_method            fapswitch 2.2
_symmetry_space_group_name_H-M    P1
_symmetry_Int_Tables_number       1
_space_group_crystal_system       triclinic
_cell_length_a                    10.808877
_cell_length_b                    9.630423
_cell_length_c                    15.863227
_cell_angle_alpha                 88.295272
_cell_angle_beta                  91.258362
_cell_angle_gamma                 90.864491
_cell_volume                      1649.96662628

loop_
_atom_site_label
_atom_site_type_symbol
_atom_type_description
_atom_site_fract_x
_atom_site_fract_y
_atom_site_fract_z
_atom_type_partial_charge
C1    C     C_R   0.262460 0.499322 0.499461 0.777653
C2    C     C_3   0.598427 0.630676 0.946425 -0.068304
C3    C     C_3   0.599668 0.633242 0.048071 -0.079045
C4    C     C_1   0.505157 0.498989 0.824426 -0.079279
C5    C     C_1   0.506626 0.509374 0.175351 -0.072944
C6    C     C_1   0.503189 0.506047 0.250852 -0.156734
C7    C     C_R   0.062992 0.377218 0.520732 -0.180856
C8    C     C_R   0.065230 0.620574 0.475559 -0.169915
C9    C     C_R   0.934998 0.378146 0.521224 -0.179231
C10   C     C_R   0.937253 0.621158 0.475393 -0.177715
C11   C     C_R   0.871668 0.500484 0.499173 -0.015130
C12   C     C_R   0.128486 0.498726 0.498497 -0.016766
C13   C     C_R   0.437313 0.075865 0.438789 -0.068067
C14   C     C_R   0.431073 0.927617 0.441953 -0.077376
C15   C     C_R   0.500248 0.501798 0.340448 0.828044
C16   C     C_R   0.575397 0.926298 0.554458 0.236269
C17   C     C_R   0.554451 0.069236 0.564969 0.208121
C18   C     C_R   0.737601 0.500578 0.499750 0.768408
C19   C     C_R   0.499549 0.498335 0.659493 0.823025
C20   C     C_3   0.378309 0.534076 0.045949 -0.394125
C21   C     C_3   0.556472 0.370669 0.053059 -0.382873
C22   C     C_3   0.556936 0.367922 0.955771 -0.395018
C23   C     C_3   0.377687 0.529843 0.948741 -0.388433
C24   C     C_1   0.501806 0.495894 0.749020 -0.183543
C25   C     C_3   0.511324 0.513333 0.082782 0.203732
C26   C     C_3   0.510533 0.507943 0.916652 0.211798
Cu1   Cu    Cu3+1 0.500020 0.640660 0.500000 0.949646
Cu2   Cu    Cu3+1 0.500020 0.359340 0.500000 0.942342
H1    H     H_    0.315447 0.443697 0.927858 0.182440
H2    H     H_    0.496223 0.280972 0.934121 0.189391
H3    H     H_    0.315351 0.450834 0.071014 0.182881
H4    H     H_    0.494527 0.285875 0.077405 0.189713
H5    H     H_    0.650818 0.348353 0.078887 0.185140
H6    H     H_    0.340336 0.634510 0.065637 0.184840
H7    H     H_    0.651789 0.345849 0.934423 0.182262
H8    H     H_    0.338219 0.627637 0.921366 0.185187
H9    H     H_    0.110494 0.282240 0.538694 0.149554
H10   H     H_    0.114469 0.714966 0.456869 0.147467
H11   H     H_    0.885956 0.283380 0.539310 0.143580
H12   H     H_    0.890115 0.715103 0.455330 0.138061
H13   H     H_    0.386782 0.132164 0.389463 0.145674
H14   H     H_    0.375052 0.873943 0.395517 0.141604
N1    N     N_R   0.500030 0.852070 0.500020 -0.178167
N2    N     N_R   0.500030 0.147930 0.500020 -0.181576
O1    O     O_R   0.319660 0.618740 0.500000 -0.583886
O2    O     O_R   0.319660 0.381260 0.500000 -0.587377
O3    O     O_R   0.500020 0.618840 0.379440 -0.572411
O4    O     O_R   0.500020 0.381160 0.379440 -0.574299
O5    O     O_R   0.680370 0.618830 0.500010 -0.588421
O6    O     O_R   0.680370 0.381170 0.500010 -0.582763
O7    O     O_R   0.500010 0.618730 0.620560 -0.562339
O8    O     O_R   0.500010 0.381270 0.620560 -0.576389
C27   C     C_3   0.701798 0.876571 0.586077 -0.354902
C28   C     C_3   0.703719 0.790270 0.668827 -0.715003
H15   H     H_    0.616418 0.798547 0.703557 0.251583
H16   H     H_    0.721652 0.679743 0.656617 0.245749
H17   H     H_    0.780408 0.826939 0.710715 0.220390
H18   H     H_    0.752267 0.828349 0.535699 0.205949
H19   H     H_    0.763197 0.968248 0.596050 0.160361
C29   C     C_3   0.556406 0.112054 0.656662 -0.325403
C30   C     C_3   0.674536 0.188439 0.685646 -0.781224
H20   H     H_    0.708851 0.262371 0.636805 0.264529
H21   H     H_    0.655525 0.246236 0.743355 0.238708
H22   H     H_    0.748929 0.113924 0.702401 0.224561
H23   H     H_    0.470119 0.165509 0.671278 0.213152
H24   H     H_    0.547309 0.019040 0.699148 0.183523
C31   C     C_1   0.558953 0.768629 0.079747 0.230673
N3    N     N_1   0.527236 0.873934 0.104506 -0.283936
C32   C     C_1   0.725850 0.614514 0.085526 0.227581
N4    N     N_1   0.824000 0.599850 0.114810 -0.274182
C33   C     C_1   0.555356 0.763700 0.906626 0.218158
N5    N     N_1   0.521874 0.867144 0.875540 -0.304722
C34   C     C_1   0.723954 0.612122 0.912263 0.215140
N6    N     N_1   0.821518 0.597644 0.885446 -0.284533

loop_
_geom_bond_atom_site_label_1
_geom_bond_atom_site_label_2
_ccdc_geom_bond_type
C30   H22   S    
C4    C26   S    
C27   H18   S    
C8    C10   A    
C11   C18   S    
C20   C25   S    
Cu1   N1    S    
C9    C11   A    
C34   N6    T    
C28   H15   S    
C20   C23   S    
C15   O3    A    
C8    C12   A    
C20   H6    S    
Cu1   O1    S    
C13   H13   S    
C19   C24   S    
C27   H19   S    
C17   N2    A    
C29   H24   S    
C33   N5    T    
C2    C26   S    
C27   C28   S    
C28   H17   S    
C22   H7    S    
Cu2   O8    S    
C16   N1    A    
Cu2   O2    S    
C32   N4    T    
C1    C12   S    
C8    H10   S    
C15   O4    A    
C5    C25   S    
C5    C6    T    
C23   H1    S    
C2    C34   S    
C3    C32   S    
Cu2   O4    S    
Cu1   O7    S    
C29   H23   S    
C2    C3    S    
C7    H9    S    
C30   H20   S    
C4    C24   T    
C21   H4    S    
C28   H16   S    
C1    O2    A    
C23   C26   S    
C21   H5    S    
C10   C11   A    
C17   C29   S    
Cu1   O5    S    
C31   N3    T    
C16   C17   A    
C19   O7    A    
C9    H11   S    
C3    C25   S    
C18   O6    A    
C10   H12   S    
C23   H8    S    
C22   C26   S    
C1    O1    A    
Cu1   O3    S    
Cu1   Cu2   S    
C7    C9    A    
C21   C25   S    
C16   C27   S    
C29   C30   S    
C7    C12   A    
C22   H2    S    
C13   C14   A    
C6    C15   S    
C21   C22   S    
C14   H14   S    
Cu2   O6    S    
C19   O8    A    
Cu2   N2    S    
C13   N2    A    
C3    C31   S    
C2    C33   S    
C18   O5    A    
C14   N1    A    
C30   H21   S    
C20   H3    S    
