data_mof_unit_23000.cif
_audit_creation_date              2013-03-05T15:51:18-0500
_audit_creation_method            fapswitch 2.2
_symmetry_space_group_name_H-M    P1
_symmetry_Int_Tables_number       1
_space_group_crystal_system       triclinic
_cell_length_a                    12.207989
_cell_length_b                    12.885932
_cell_length_c                    15.654507
_cell_angle_alpha                 92.295401
_cell_angle_beta                  90.140748
_cell_angle_gamma                 92.386326
_cell_volume                      2458.50024733

loop_
_atom_site_label
_atom_site_type_symbol
_atom_site_description
_atom_site_fract_x
_atom_site_fract_y
_atom_site_fract_z
_atom_type_partial_charge
O1    O     O_R   0.421700 0.658830 0.504150 -0.595364
O2    O     O_R   0.578300 0.341170 0.495850 -0.594688
O3    O     O_R   0.609310 0.646410 0.494170 -0.652976
O4    O     O_R   0.390690 0.353590 0.505830 -0.627953
C1    C     C_R   0.521277 0.699959 0.500765 0.870148
C2    C     C_R   0.479334 0.300308 0.502930 0.892284
O5    O     O_R   0.406210 0.506220 0.628210 -0.556521
O6    O     O_R   0.593790 0.493780 0.371790 -0.553879
O7    O     O_R   0.593830 0.493800 0.618230 -0.661550
O8    O     O_R   0.406170 0.506200 0.381770 -0.666026
C3    C     C_R   0.503225 0.500072 0.661659 0.897967
C4    C     C_R   0.496518 0.499115 0.338519 0.911901
Zn1   Zn    Zn3+2 0.374730 0.508290 0.506660 0.980026
Zn2   Zn    Zn3+2 0.625270 0.491710 0.493340 0.973629
C5    C     C_3   0.476962 0.591214 0.031188 0.111100
C6    C     C_3   0.514687 0.398863 0.969730 0.111828
C7    C     C_3   0.579640 0.560352 0.980818 0.112296
C8    C     C_3   0.412117 0.429826 0.020520 0.107251
H1    H     H_    0.666191 0.435809 0.063347 0.171083
H2    H     H_    0.325405 0.553897 0.937518 0.173231
C9    C     C_1   0.509692 0.499056 0.750751 -0.142612
C10   C     C_1   0.488320 0.496360 0.249729 -0.152995
C11   C     C_3   0.401600 0.527461 0.967127 -0.234399
C12   C     C_3   0.590106 0.462532 0.033754 -0.232020
C13   C     C_3   0.505247 0.496428 0.917469 0.069798
C14   C     C_3   0.486812 0.493883 0.083364 0.068862
C15   C     C_1   0.510422 0.498107 0.826310 -0.066477
C16   C     C_1   0.484506 0.494284 0.174337 -0.066898
C17   C     C_R   0.469164 0.189793 0.512751 -0.081001
C18   C     C_R   0.535346 0.811591 0.507501 -0.094764
C19   C     C_R   0.652364 0.967203 0.498234 0.103978
C20   C     C_R   0.361693 0.037069 0.549709 0.091457
C21   C     C_R   0.638718 0.859210 0.495946 -0.218114
C22   C     C_R   0.369824 0.143202 0.537259 -0.215880
C23   C     C_R   0.445101 0.869899 0.527296 -0.257899
C24   C     C_R   0.562646 0.132411 0.503871 -0.261117
C25   C     C_R   0.454183 0.977106 0.530692 0.115307
C26   C     C_R   0.557373 0.025896 0.511396 0.094774
H3    H     H_    0.639512 0.171503 0.489207 0.209517
H4    H     H_    0.366664 0.830971 0.536269 0.216181
H5    H     H_    0.299684 0.190271 0.549962 0.178865
H6    H     H_    0.707505 0.811026 0.483206 0.165264
N1    N     N_R   0.207800 0.519340 0.515560 -0.200879
N2    N     N_R   0.792200 0.480660 0.484440 -0.186670
C27   C     C_R   0.948710 0.404288 0.416468 0.153547
C28   C     C_R   0.053260 0.592082 0.587065 0.184724
C29   C     C_R   0.834931 0.419786 0.420276 0.323238
C30   C     C_R   0.165667 0.574009 0.583299 0.332371
C31   C     C_R   0.861904 0.528817 0.545948 0.133199
C32   C     C_R   0.137309 0.477994 0.452266 0.218131
C33   C     C_R   0.978178 0.532469 0.533172 -0.181518
C34   C     C_R   0.021725 0.469928 0.467089 -0.134283
C35   C     C_3   0.678436 0.628435 0.954816 -0.440662
C36   C     C_3   0.740297 0.678372 0.032224 -0.339326
C37   C     C_3   0.842516 0.739979 0.004176 -0.840376
H7    H     H_    0.899267 0.687936 0.969588 0.270500
H8    H     H_    0.819557 0.802674 0.961691 0.263957
H9    H     H_    0.885630 0.775856 0.061235 0.251506
H10   H     H_    0.686790 0.732026 0.068127 0.225413
H11   H     H_    0.765303 0.617296 0.075594 0.235396
H12   H     H_    0.734743 0.578341 0.917787 0.211182
H13   H     H_    0.650218 0.689746 0.913220 0.203633
C38   C     C_3   0.314383 0.362502 0.050160 -0.416429
C39   C     C_3   0.250286 0.310618 0.974628 -0.356469
C40   C     C_3   0.149924 0.248374 0.005319 -0.827089
H14   H     H_    0.175258 0.186470 0.047711 0.265503
H15   H     H_    0.093735 0.300219 0.040712 0.273644
H16   H     H_    0.105251 0.211352 0.949428 0.246064
H17   H     H_    0.222937 0.370729 0.931231 0.237088
H18   H     H_    0.303279 0.257105 0.938021 0.223696
H19   H     H_    0.343918 0.302715 0.092786 0.202081
H20   H     H_    0.259415 0.413133 0.088097 0.208239
C41   C     C_3   0.447295 0.696711 0.071221 -0.425293
C42   C     C_3   0.437718 0.779048 0.003905 -0.333832
C43   C     C_3   0.399712 0.881170 0.044055 -0.871793
H21   H     H_    0.318006 0.869319 0.074043 0.266207
H22   H     H_    0.459516 0.912181 0.093253 0.264261
H23   H     H_    0.393124 0.939158 0.993895 0.252753
H24   H     H_    0.518417 0.794014 0.973406 0.223767
H25   H     H_    0.377929 0.751134 0.953578 0.239166
H26   H     H_    0.367439 0.686296 0.104438 0.205100
H27   H     H_    0.509813 0.722613 0.119950 0.197308
C44   C     C_3   0.542807 0.293324 0.929009 -0.430944
C45   C     C_3   0.552222 0.210304 0.995718 -0.325467
C46   C     C_3   0.586131 0.107393 0.954284 -0.876130
H28   H     H_    0.524041 0.078184 0.906162 0.256306
H29   H     H_    0.667049 0.117409 0.922696 0.265515
H30   H     H_    0.592705 0.048818 0.003972 0.258676
H31   H     H_    0.614210 0.236554 0.044926 0.241879
H32   H     H_    0.472224 0.197115 0.027748 0.225049
H33   H     H_    0.479269 0.268483 0.880740 0.195793
H34   H     H_    0.622304 0.303093 0.895195 0.206263
C47   C     C_3   0.765383 0.020300 0.485341 -0.434310
C48   C     C_3   0.863272 0.948843 0.482009 -0.368808
C49   C     C_3   0.971605 0.011389 0.475076 -0.733884
H35   H     H_    0.972802 0.055796 0.415715 0.298212
H36   H     H_    0.983508 0.066121 0.531292 0.254631
H37   H     H_    0.040447 0.957697 0.472796 0.248204
H38   H     H_    0.865231 0.904037 0.541138 0.259426
H39   H     H_    0.855594 0.894136 0.425377 0.227722
H40   H     H_    0.763876 0.062499 0.424812 0.250779
H41   H     H_    0.780521 0.077894 0.539349 0.207805
C50   C     C_3   0.257864 0.994039 0.590982 -0.418915
C51   C     C_3   0.279969 0.974741 0.685518 -0.353693
C52   C     C_3   0.175093 0.943399 0.732211 -0.714415
H42   H     H_    0.114881 0.005479 0.729328 0.235213
H43   H     H_    0.138691 0.870353 0.702917 0.342409
H44   H     H_    0.194157 0.930598 0.800286 0.236481
H45   H     H_    0.339634 0.912547 0.691018 0.258534
H46   H     H_    0.316036 0.046913 0.717545 0.210938
H47   H     H_    0.191928 0.050811 0.587601 0.205717
H48   H     H_    0.224732 0.922673 0.556440 0.225411
C53   C     C_3   0.178137 0.466279 0.361139 -0.290285
C54   C     C_3   0.205088 0.573510 0.324023 -0.366760
C55   C     C_3   0.101788 0.630797 0.302811 -0.867177
H49   H     H_    0.048868 0.583184 0.257133 0.270096
H50   H     H_    0.054697 0.648648 0.361813 0.273850
H51   H     H_    0.125357 0.705213 0.272999 0.250183
H52   H     H_    0.255453 0.623927 0.369521 0.259297
H53   H     H_    0.252784 0.562177 0.264218 0.212639
H54   H     H_    0.246731 0.413083 0.358704 0.211148
H55   H     H_    0.118096 0.428306 0.316142 0.217179
C56   C     C_3   0.821317 0.550504 0.636585 -0.314268
C57   C     C_3   0.770395 0.657295 0.651942 -0.250982
C58   C     C_3   0.760303 0.685328 0.746877 -0.899016
H56   H     H_    0.707244 0.625284 0.776617 0.249609
H57   H     H_    0.841445 0.689841 0.779009 0.310260
H58   H     H_    0.722049 0.761692 0.755796 0.248490
H59   H     H_    0.817448 0.719717 0.620182 0.250114
H60   H     H_    0.687246 0.657393 0.626279 0.246083
H61   H     H_    0.768325 0.484831 0.656630 0.198170
H62   H     H_    0.889239 0.543746 0.682863 0.201064
N3    N     N_R   0.236258 0.620741 0.648061 0.260244
O9    O     O_R   0.279979 0.712966 0.638105 -0.421542
O10   O     O_R   0.234354 0.583453 0.724103 -0.383208
N4    N     N_R   0.763513 0.365791 0.359624 0.261348
O11   O     O_R   0.729911 0.270886 0.373058 -0.406736
O12   O     O_R   0.757905 0.399465 0.282535 -0.377541
N5    N     N_R   0.987154 0.312578 0.372206 0.197919
O13   O     O_R   0.951791 0.284772 0.295870 -0.345957
O14   O     O_R   0.060765 0.257841 0.407639 -0.438420
N6    N     N_R   0.020594 0.682348 0.635029 0.202697
O15   O     O_R   0.008723 0.767389 0.594565 -0.467194
O16   O     O_R   0.034464 0.688423 0.717540 -0.396369

loop_
_geom_bond_atom_site_label_1
_geom_bond_atom_site_label_2
_geom_bond_distance
_ccdc_geom_bond_type
N2    C31   1.393008 A    
C37   H7    1.111007 S    
C47   C48   1.538432 S    
C29   N4    1.427679 S    
C41   C42   1.532698 S    
C49   H35   1.110477 S    
C8    C14   1.532508 S    
O7    Zn2   1.992674 S    
C31   C33   1.433065 A    
C54   C55   1.529907 S    
C49   H37   1.110340 S    
C56   C57   1.543819 S    
C28   N6    1.430346 S    
C36   H11   1.111453 S    
C35   C36   1.531472 S    
O5    C3    1.300490 A    
C44   H34   1.111565 S    
C52   H43   1.106049 S    
C17   C24   1.389707 A    
C18   C23   1.387913 A    
O1    C1    1.307816 A    
C21   H6    1.079258 S    
C23   C25   1.380178 A    
C12   C14   1.542273 S    
C1    C18   1.441189 S    
C51   H45   1.110896 S    
C56   H62   1.108205 S    
C8    C38   1.529786 S    
C55   H49   1.111187 S    
C31   C56   1.523163 S    
C4    C10   1.392238 S    
C27   N5    1.441931 S    
C50   H47   1.112586 S    
O4    Zn1   2.010540 S    
C35   H12   1.110917 S    
C53   H55   1.101311 S    
C55   H50   1.110466 S    
C58   H58   1.110614 S    
C32   C34   1.430750 A    
C19   C21   1.393636 A    
C39   H18   1.108940 S    
N1    C30   1.363214 A    
C54   H52   1.111284 S    
N2    C29   1.367449 A    
C40   H16   1.110447 S    
C5    C11   1.547114 S    
C9    C15   1.183414 T    
C6    C12   1.546632 S    
C42   H25   1.111508 S    
O2    C2    1.304448 A    
C22   H5    1.083996 S    
C45   H32   1.108825 S    
C41   H26   1.111740 S    
C51   C52   1.523745 S    
C36   H10   1.108547 S    
C27   C29   1.412561 A    
C52   H44   1.110461 S    
C28   C30   1.402396 A    
C7    C12   1.545478 S    
C42   C43   1.525798 S    
C46   H29   1.110826 S    
C8    C11   1.547623 S    
C30   N3    1.427123 S    
C45   C46   1.526029 S    
N4    O12   1.301273 A    
C47   H40   1.111705 S    
C5    C14   1.532568 S    
C27   C34   1.420558 A    
C40   H15   1.110966 S    
C46   H28   1.111060 S    
C28   C33   1.423967 A    
C3    C9    1.397340 S    
C6    C44   1.531094 S    
C33   C34   1.404952 A    
C50   H48   1.108959 S    
C20   C22   1.388651 A    
C43   H21   1.110845 S    
C25   C26   1.422887 A    
O7    C3    1.303432 A    
C35   H13   1.108892 S    
C44   C45   1.532105 S    
H2    C11   1.110428 S    
C48   H39   1.111643 S    
O6    C4    1.301065 A    
C55   H51   1.110696 S    
C20   C50   1.518477 S    
C57   H60   1.090840 S    
C20   C25   1.420021 A    
C58   H57   1.108190 S    
C43   H22   1.110927 S    
O3    Zn2   2.010540 S    
O8    C4    1.300157 A    
O4    C2    1.305439 A    
C5    C41   1.531620 S    
C38   H19   1.109928 S    
C42   H24   1.108850 S    
C37   H8    1.111101 S    
C58   H56   1.106157 S    
N6    O16   1.301119 A    
O1    Zn1   2.001735 S    
C45   H31   1.111498 S    
C7    C35   1.527399 S    
C41   H27   1.109659 S    
Zn1   N1    2.053438 S    
C44   H33   1.110030 S    
Zn2   N2    2.053438 S    
C53   C54   1.543543 S    
C46   H30   1.110382 S    
C6    C13   1.535303 S    
C5    C7    1.540254 S    
C36   C37   1.525891 S    
O6    Zn2   1.941753 S    
C18   C21   1.395464 A    
C56   H61   1.099911 S    
C24   H3    1.076089 S    
N4    O11   1.298983 A    
O3    C1    1.303221 A    
O8    Zn1   1.992677 S    
C47   H41   1.112343 S    
N5    O13   1.301174 A    
C49   H36   1.110905 S    
N1    C32   1.386179 A    
C13   C15   1.429588 S    
C39   H17   1.111553 S    
C52   H42   1.110848 S    
C14   C16   1.424282 S    
C19   C26   1.421607 A    
C32   C53   1.516176 S    
C7    C13   1.534492 S    
C39   C40   1.525530 S    
C24   C26   1.381131 A    
C23   H4    1.074508 S    
C19   C47   1.531789 S    
C51   H46   1.112478 S    
N5    O14   1.301698 A    
N3    O9    1.297655 A    
C48   H38   1.111121 S    
C17   C22   1.392292 A    
C57   H59   1.104141 S    
H1    C12   1.110503 S    
C11   C13   1.545098 S    
C48   C49   1.526223 S    
O2    Zn2   2.001733 S    
C43   H23   1.110452 S    
C38   C39   1.531647 S    
O5    Zn1   1.941750 S    
C2    C17   1.438738 S    
C53   H54   1.103815 S    
C38   H20   1.111772 S    
C6    C8    1.542857 S    
C40   H14   1.110995 S    
C37   H9    1.110392 S    
C50   C51   1.535561 S    
N3    O10   1.301345 A    
N6    O15   1.300572 A    
C10   C16   1.180227 T    
C54   H53   1.111612 S    
C57   C58   1.521817 S    
