data_mof_unit_61282.cif
_audit_creation_date              2012-12-10T17:51:52-0500
_audit_creation_method            fapswitch 2.2
_symmetry_space_group_name_H-M    P1
_symmetry_Int_Tables_number       1
_space_group_crystal_system       triclinic
_cell_length_a                    18.769315
_cell_length_b                    18.792752
_cell_length_c                    18.609659
_cell_angle_alpha                 109.022769
_cell_angle_beta                  109.508355
_cell_angle_gamma                 109.703611
_cell_volume                      5064.05547446

loop_
_atom_site_label
_atom_site_type_symbol
_atom_type_description
_atom_site_fract_x
_atom_site_fract_y
_atom_site_fract_z
_atom_type_partial_charge
C1    C     C_R   0.620245 0.120641 0.999988 0.887943
C2    C     C_R   0.467706 0.737001 0.666523 -0.208153
C3    C     C_R   0.466060 0.800072 0.728768 -0.179511
C4    C     C_R   0.499635 0.118711 0.121001 0.933341
C5    C     C_R   0.498735 0.813173 0.814085 -0.042915
C6    C     C_R   0.335931 0.801653 0.074253 -0.219633
C7    C     C_R   0.273101 0.738617 0.076531 -0.006373
C8    C     C_R   0.188618 0.685733 0.002745 -0.044612
C9    C     C_R   0.167326 0.695839 0.928767 -0.206643
C10   C     C_R   0.229902 0.760010 0.927957 -0.177102
C11   C     C_R   0.314117 0.812802 0.000673 -0.041187
C12   C     C_R   0.831926 0.260955 0.026906 -0.176907
C13   C     C_R   0.620227 0.502301 0.622649 0.880241
C14   C     C_R   0.495160 0.384441 0.378457 0.935096
C15   C     C_R   0.380062 0.504123 0.383761 0.852773
C16   C     C_R   0.379757 0.879392 0.000036 0.865670
C17   C     C_R   0.500721 0.622110 0.623315 0.873208
C18   C     C_R   0.879729 0.500380 0.880211 0.844830
C19   C     C_R   0.879060 0.380212 0.999281 0.837550
C20   C     C_R   0.120095 0.499402 0.119892 0.874031
C21   C     C_R   0.121470 0.619875 0.001366 0.876332
C22   C     C_R   0.766040 0.578460 0.749646 -0.168325
C23   C     C_R   0.811422 0.314857 0.997928 -0.090106
C24   C     C_R   0.829570 0.578171 0.813760 -0.205501
C25   C     C_R   0.814031 0.500350 0.814102 -0.003403
C26   C     C_R   0.735454 0.422955 0.752049 -0.190819
C27   C     C_R   0.670808 0.423684 0.689406 -0.176552
C28   C     C_R   0.499557 0.880118 0.880055 0.874321
C29   C     C_R   0.686506 0.501393 0.688148 -0.007524
C30   C     C_R   0.314159 0.486928 0.238130 -0.203712
C31   C     C_R   0.248817 0.483619 0.172177 -0.167789
C32   C     C_R   0.185961 0.499524 0.186852 -0.003671
C33   C     C_R   0.186916 0.516767 0.266291 -0.186136
C34   C     C_R   0.727650 0.305807 0.968710 -0.011331
C35   C     C_R   0.250752 0.517498 0.331183 -0.203579
C36   C     C_R   0.314347 0.503414 0.316925 0.000377
C37   C     C_2   0.420100 0.240186 0.250701 -0.187702
C38   C     C_2   0.485248 0.322582 0.300117 -0.354122
C39   C     C_2   0.423456 0.179428 0.180268 -0.264372
C40   C     C_2   0.498032 0.178319 0.192941 -0.159305
C41   C     C_R   0.769395 0.197658 0.028488 -0.169538
C42   C     C_R   0.569879 0.647071 0.801566 0.081404
C43   C     C_R   0.659757 0.687286 0.859307 -0.177050
C44   C     C_R   0.694770 0.640172 0.887486 -0.143958
C45   C     C_R   0.664956 0.241100 0.969912 -0.143542
C46   C     C_R   0.640433 0.552672 0.858061 -0.074094
C47   C     C_R   0.550862 0.512329 0.800908 -0.123879
C48   C     C_R   0.515459 0.559462 0.773247 -0.114667
C49   C     C_R   0.298486 0.728241 0.155234 0.079512
C50   C     C_R   0.268278 0.753298 0.213398 -0.104057
C51   C     C_R   0.295336 0.746426 0.289349 -0.139051
C52   C     C_R   0.353901 0.716115 0.308529 -0.089965
C53   C     C_R   0.385293 0.692377 0.251644 -0.126216
C54   C     C_R   0.357604 0.698183 0.175125 -0.178353
C55   C     C_2   0.576285 0.225306 0.282454 0.413733
C56   C     C_R   0.685969 0.187603 0.999774 -0.075555
C57   C     C_2   0.704470 0.361195 0.934946 0.369290
C58   C     C_R   0.532226 0.762838 0.837180 -0.216653
C59   C     C_R   0.532690 0.698293 0.774830 -0.007183
C60   C     C_R   0.500495 0.686470 0.689470 -0.039155
H1    H     H_    0.365886 0.217178 0.262278 0.182780
H2    H     H_    0.534238 0.345964 0.281976 0.179188
H3    H     H_    0.609383 0.363861 0.641530 0.151886
H4    H     H_    0.363680 0.475660 0.227589 0.139563
H5    H     H_    0.248542 0.470962 0.110934 0.149973
H6    H     H_    0.137966 0.528638 0.277552 0.151200
H7    H     H_    0.251474 0.530165 0.392637 0.139052
H8    H     H_    0.363662 0.134450 0.117456 0.179503
H9    H     H_    0.785843 0.156041 0.051067 0.157487
H10   H     H_    0.896668 0.268627 0.049068 0.140528
H11   H     H_    0.599857 0.232404 0.947918 0.194416
H12   H     H_    0.443014 0.727089 0.600381 0.132416
H13   H     H_    0.557196 0.773058 0.903454 0.163305
H14   H     H_    0.702526 0.755051 0.882531 0.137822
H15   H     H_    0.764119 0.671372 0.931810 0.142195
H16   H     H_    0.667763 0.516146 0.879449 0.162050
H17   H     H_    0.508787 0.444665 0.778449 0.147089
H18   H     H_    0.445701 0.527962 0.730487 0.142765
H19   H     H_    0.224696 0.779042 0.200508 0.139464
H20   H     H_    0.271433 0.765242 0.333688 0.127630
H21   H     H_    0.374937 0.710984 0.367414 0.133102
H22   H     H_    0.430800 0.669095 0.266664 0.141125
H23   H     H_    0.440658 0.839267 0.710723 0.156198
H24   H     H_    0.382441 0.679660 0.131577 0.139250
H25   H     H_    0.569387 0.241276 0.340386 0.081992
H26   H     H_    0.751226 0.408791 0.929310 0.062176
H27   H     H_    0.401381 0.842935 0.130549 0.162116
H28   H     H_    0.102025 0.654701 0.872283 0.140315
H29   H     H_    0.212834 0.767786 0.870451 0.157964
H30   H     H_    0.778037 0.638868 0.749221 0.149724
H31   H     H_    0.890842 0.637969 0.862378 0.136362
H32   H     H_    0.723919 0.362948 0.753288 0.138877
O1    O     O_R   0.539900 0.091920 0.948590 -0.628582
O2    O     O_R   0.908310 0.551980 0.960300 -0.630401
O3    O     O_R   0.908280 0.357000 0.948510 -0.615571
O4    O     O_R   0.643340 0.091290 0.051390 -0.613336
O5    O     O_R   0.908310 0.459790 0.051330 -0.623231
O6    O     O_R   0.091510 0.448020 0.039520 -0.626919
O7    O     O_R   0.091540 0.550800 0.142340 -0.622359
O8    O     O_R   0.091520 0.540220 0.948490 -0.616056
O9    O     O_R   0.091540 0.643000 0.051310 -0.632255
O10   O     O_R   0.448270 0.091350 0.039630 -0.628840
O11   O     O_R   0.551710 0.090720 0.142430 -0.581622
O12   O     O_R   0.643360 0.554400 0.594170 -0.623498
O13   O     O_R   0.356660 0.908710 0.948610 -0.629597
O14   O     O_R   0.460100 0.908080 0.051410 -0.632355
O15   O     O_R   0.448290 0.909280 0.857570 -0.627340
O16   O     O_R   0.551730 0.908650 0.960370 -0.631429
O17   O     O_R   0.539910 0.450960 0.594180 -0.624637
O18   O     O_2   0.649305 0.246505 0.291998 -0.552153
O19   O     O_2   0.632256 0.354031 0.912430 -0.585777
O20   O     O_R   0.448310 0.360490 0.412110 -0.619894
O21   O     O_R   0.551750 0.463920 0.412090 -0.618529
O22   O     O_R   0.356690 0.452080 0.412090 -0.619196
O23   O     O_R   0.460130 0.555510 0.412070 -0.630717
O24   O     O_R   0.448290 0.542560 0.594160 -0.631092
O25   O     O_R   0.551730 0.645990 0.594150 -0.619941
O26   O     O_R   0.908290 0.449200 0.857490 -0.615933
Zn1   Zn    Zn3+2 0.430930 0.000420 0.931360 0.956568
Zn2   Zn    Zn3+2 0.569070 0.999580 0.068640 0.982269
Zn3   Zn    Zn3+2 0.430950 0.434180 0.503140 0.947036
Zn4   Zn    Zn3+2 0.569090 0.572300 0.503120 0.957912
Zn5   Zn    Zn3+2 0.999890 0.431370 0.931260 0.964475
Zn6   Zn    Zn3+2 0.999930 0.568630 0.068560 0.943735

loop_
_geom_bond_atom_site_label_1
_geom_bond_atom_site_label_2
_ccdc_geom_bond_type
C22   C29   A    
C30   H4    S    
C27   C29   A    
C39   H8    S    
O16   Zn2   S    
C35   C36   A    
C43   C44   A    
C50   H19   S    
C46   H16   S    
C19   O5    A    
C7    C8    A    
C53   C54   A    
C14   O20   A    
C12   C23   A    
C26   C27   A    
C37   C38   D    
C5    C58   A    
C13   C29   S    
C1    C56   S    
O5    Zn6   S    
C9    H28   S    
C30   C31   A    
C2    C60   A    
O12   Zn4   S    
C28   O15   A    
C26   H32   S    
C49   C54   A    
C4    O11   A    
C57   H26   S    
C48   H18   S    
C51   H20   S    
C13   O17   A    
O22   Zn3   S    
O21   Zn4   S    
C4    C40   S    
C10   H29   S    
C8    C9    A    
C4    O10   A    
C34   C57   S    
C9    C10   A    
C18   O26   A    
C45   C56   A    
C17   O25   A    
C21   O9    A    
C23   C34   A    
C43   H14   S    
C59   C60   A    
O23   Zn4   S    
C18   C25   S    
C2    H12   S    
C54   H24   S    
C44   C46   A    
C33   H6    S    
C8    C21   S    
O6    Zn5   S    
O9    Zn6   S    
O24   Zn3   S    
C51   C52   A    
C24   C25   A    
C7    C49   S    
C6    C11   A    
C21   O8    A    
C58   C59   A    
C6    H27   S    
C53   H22   S    
C55   H25   S    
C44   H15   S    
C19   C23   S    
O25   Zn4   S    
C41   C56   A    
C12   C41   A    
C14   C38   S    
C5    C28   S    
C11   C16   S    
C47   C48   A    
C35   H7    S    
C40   C55   S    
C50   C51   A    
C22   H30   S    
C15   O22   A    
C34   C45   A    
C42   C48   A    
C13   O12   A    
C27   H3    S    
C16   O13   A    
C55   O18   D    
C3    H23   S    
C18   O2    A    
C15   O23   A    
C42   C43   A    
C47   H17   S    
C24   H31   S    
C15   C36   S    
C39   C40   D    
C19   O3    A    
C52   C53   A    
C41   H9    S    
C20   C32   S    
O3    Zn5   S    
C31   H5    S    
C12   H10   S    
C46   C47   A    
O14   Zn2   S    
O4    Zn2   S    
C31   C32   A    
C3    C5    A    
C42   C59   S    
C37   H1    S    
C6    C7    A    
C16   O14   A    
C14   O21   A    
O15   Zn1   S    
C30   C36   A    
O8    Zn5   S    
C32   C33   A    
C2    C3    A    
C25   C26   A    
O20   Zn3   S    
C37   C39   S    
O17   Zn3   S    
C57   O19   D    
C20   O7    A    
C28   O16   A    
C1    O4    A    
C33   C35   A    
O11   Zn2   S    
C22   C24   A    
O26   Zn5   S    
C52   H21   S    
C10   C11   A    
C17   C60   S    
C20   O6    A    
C58   H13   S    
C1    O1    A    
C49   C50   A    
O13   Zn1   S    
C45   H11   S    
O1    Zn1   S    
O10   Zn1   S    
C17   O24   A    
O7    Zn6   S    
C38   H2    S    
O2    Zn6   S    
