data_mof_unit_31829.cif
_audit_creation_date              2012-12-10T16:36:43-0500
_audit_creation_method            fapswitch 2.2
_symmetry_space_group_name_H-M    P1
_symmetry_Int_Tables_number       1
_space_group_crystal_system       triclinic
_cell_length_a                    14.120995
_cell_length_b                    16.529772
_cell_length_c                    15.177881
_cell_angle_alpha                 90.543394
_cell_angle_beta                  91.863885
_cell_angle_gamma                 89.82173
_cell_volume                      3540.72524128

loop_
_atom_site_label
_atom_site_type_symbol
_atom_type_description
_atom_site_fract_x
_atom_site_fract_y
_atom_site_fract_z
_atom_type_partial_charge
C1    C     C_R   0.680916 0.846235 0.520080 0.917470
C2    C     C_R   0.950713 0.494002 0.107081 0.349023
C3    C     C_R   0.622265 0.006408 0.127614 0.364030
C4    C     C_R   0.122252 0.506567 0.127622 0.364011
C5    C     C_R   0.631418 0.017191 0.036230 -0.130256
C6    C     C_R   0.131381 0.517387 0.036240 -0.130276
C7    C     C_2   0.242902 0.215411 0.479126 -0.307249
C8    C     C_2   0.252733 0.777001 0.467741 -0.306810
C9    C     C_2   0.742902 0.715410 0.479125 -0.307227
C10   C     C_2   0.752728 0.277004 0.467744 -0.306739
C11   C     C_2   0.755593 0.787443 0.521421 -0.273793
C12   C     C_R   0.679575 0.155163 0.520715 0.932948
C13   C     C_2   0.746582 0.219669 0.531101 -0.262280
C14   C     C_2   0.255594 0.287444 0.521421 -0.273778
C15   C     C_2   0.246580 0.719672 0.531103 -0.262324
C16   C     C_R   0.319310 0.155601 0.481359 0.865260
C17   C     C_R   0.320777 0.843368 0.479540 0.864164
C18   C     C_R   0.819310 0.655600 0.481359 0.865270
C19   C     C_R   0.820777 0.343369 0.479540 0.864187
C20   C     C_R   0.521059 0.999602 0.260285 0.897460
C21   C     C_R   0.021059 0.499602 0.260286 0.897628
C22   C     C_R   0.478610 0.000307 0.738096 0.843298
C23   C     C_R   0.180918 0.346237 0.520082 0.917499
C24   C     C_R   0.978616 0.500307 0.738098 0.843279
C25   C     C_R   0.531340 0.000835 0.163681 -0.258641
C26   C     C_R   0.031340 0.500845 0.163684 -0.258602
C27   C     C_R   0.474454 0.000265 0.833120 -0.077572
C28   C     C_R   0.974455 0.500256 0.833123 -0.077643
C29   C     C_R   0.383969 0.971303 0.960063 -0.120768
C30   C     C_R   0.884044 0.471094 0.960059 -0.120891
C31   C     C_R   0.392299 0.971238 0.869723 -0.204519
C32   C     C_R   0.892372 0.471072 0.869720 -0.204463
C33   C     C_R   0.551982 0.026450 0.886800 -0.033997
C34   C     C_R   0.179575 0.655162 0.520715 0.932983
C35   C     C_R   0.051924 0.526555 0.886811 -0.034010
C36   C     C_3   0.313214 0.055895 0.145374 0.082588
C37   C     C_3   0.219422 0.042613 0.190592 -0.261220
C38   C     C_3   0.165014 0.121734 0.201760 -0.904196
C39   C     C_3   0.813029 0.555463 0.145356 0.082689
C40   C     C_3   0.719369 0.541997 0.190737 -0.261156
C41   C     C_3   0.664654 0.620979 0.201786 -0.904259
C42   C     C_3   0.749338 0.926818 0.172756 0.083706
C43   C     C_3   0.769775 0.889652 0.263351 -0.258659
C44   C     C_3   0.837368 0.817661 0.257445 -0.947850
C45   C     C_R   0.549460 0.013759 0.979235 -0.082025
C46   C     C_3   0.249533 0.427196 0.172741 0.083785
C47   C     C_3   0.269792 0.389906 0.263304 -0.258816
C48   C     C_3   0.337574 0.318041 0.257425 -0.948013
C49   C     C_2   0.728687 0.021580 0.002518 0.941758
C50   C     C_2   0.228641 0.521937 0.002533 0.941729
C51   C     C_2   0.629330 0.073046 0.846544 0.933737
C52   C     C_2   0.129181 0.573268 0.846565 0.933791
C53   C     C_2   0.651168 0.692519 0.433352 0.925583
C54   C     C_2   0.695149 0.273014 0.383128 0.949319
C55   C     C_2   0.151163 0.192521 0.433359 0.925544
C56   C     C_R   0.049431 0.513837 0.979244 -0.082013
C57   C     C_2   0.195168 0.773001 0.383118 0.949448
C58   C     C_2   0.349611 0.320390 0.551113 0.976196
C59   C     C_2   0.286436 0.727434 0.622868 0.975358
C60   C     C_2   0.849608 0.820388 0.551118 0.976229
C61   C     C_2   0.786460 0.227417 0.622859 0.975303
C62   C     C_R   0.461185 0.993291 0.015593 0.030323
C63   C     C_R   0.961203 0.493208 0.015595 0.030344
C64   C     C_R   0.450697 0.994125 0.107077 0.349091
H1    H     H_    0.317454 0.951720 0.986224 0.190156
H2    H     H_    0.095844 0.109320 0.231587 0.291402
H3    H     H_    0.151756 0.150937 0.136894 0.261950
H4    H     H_    0.797498 0.579167 0.077972 0.130928
H5    H     H_    0.855053 0.601482 0.183885 0.142404
H6    H     H_    0.675215 0.498778 0.150845 0.227423
H7    H     H_    0.733662 0.515278 0.256822 0.273454
H8    H     H_    0.705281 0.663069 0.245955 0.268103
H9    H     H_    0.595615 0.608426 0.231792 0.291437
H10   H     H_    0.651120 0.649983 0.136853 0.262016
H11   H     H_    0.817792 0.937652 0.140785 0.184735
H12   H     H_    0.817579 0.451378 0.986213 0.190137
H13   H     H_    0.708742 0.881642 0.131376 0.115937
H14   H     H_    0.801767 0.935883 0.308810 0.261749
H15   H     H_    0.702192 0.868844 0.290822 0.247414
H16   H     H_    0.809489 0.772370 0.208838 0.250616
H17   H     H_    0.845333 0.788483 0.322844 0.290371
H18   H     H_    0.908193 0.838125 0.237140 0.277133
H19   H     H_    0.318059 0.438208 0.140967 0.184774
H20   H     H_    0.209168 0.382021 0.131163 0.115920
H21   H     H_    0.301550 0.436113 0.308931 0.261832
H22   H     H_    0.202173 0.368929 0.290561 0.247245
H23   H     H_    0.332967 0.951349 0.827936 0.171456
H24   H     H_    0.309958 0.272799 0.208636 0.250661
H25   H     H_    0.345387 0.288744 0.322772 0.290395
H26   H     H_    0.408426 0.338670 0.237376 0.277214
H27   H     H_    0.826594 0.972840 0.923911 0.361241
H28   H     H_    0.326660 0.473363 0.923930 0.361206
H29   H     H_    0.708281 0.174560 0.849289 0.360495
H30   H     H_    0.207920 0.674901 0.849313 0.360527
H31   H     H_    0.536674 0.726946 0.359601 0.344849
H32   H     H_    0.571029 0.244850 0.320416 0.339036
H33   H     H_    0.036650 0.226953 0.359637 0.344829
H34   H     H_    0.833089 0.451086 0.827928 0.171547
H35   H     H_    0.071058 0.744828 0.320392 0.339076
H36   H     H_    0.486603 0.339657 0.523598 0.365510
H37   H     H_    0.352824 0.672229 0.725553 0.353596
H38   H     H_    0.986601 0.839657 0.523610 0.365511
H39   H     H_    0.852889 0.172199 0.725514 0.353540
H40   H     H_    0.297877 0.079711 0.078004 0.130903
H41   H     H_    0.355336 0.101766 0.184025 0.142440
H42   H     H_    0.175153 0.999601 0.150535 0.227357
H43   H     H_    0.233501 0.015721 0.256626 0.273391
H44   H     H_    0.205723 0.163594 0.246131 0.268110
O1    O     O_3   0.500000 0.000000 0.500000 -0.526136
O2    O     O_R   0.885830 0.337110 0.539910 -0.618738
O3    O     O_R   0.692160 0.095230 0.468550 -0.619947
O4    O     O_R   0.692160 0.904770 0.468550 -0.657068
O5    O     O_R   0.192160 0.595230 0.468550 -0.619992
O6    O     O_R   0.192160 0.404770 0.468550 -0.657050
O7    O     O_R   0.316720 0.904790 0.427870 -0.611885
O8    O     O_R   0.316720 0.095210 0.427870 -0.635966
O9    O     O_R   0.816720 0.404790 0.427870 -0.612003
O10   O     O_R   0.816720 0.595210 0.427870 -0.635999
O11   O     O_R   0.594900 0.000000 0.310900 -0.608607
O12   O     O_3   0.000000 0.500000 0.500000 -0.526096
O13   O     O_R   0.094900 0.500000 0.310900 -0.608677
O14   O     O_R   0.483090 0.932320 0.697550 -0.608975
O15   O     O_R   0.483090 0.067680 0.697550 -0.636413
O16   O     O_R   0.983090 0.432320 0.697550 -0.609049
O17   O     O_R   0.983090 0.567680 0.697550 -0.636363
O18   O     O_R   0.438930 1.000000 0.294000 -0.615790
O19   O     O_R   0.938930 0.500000 0.294000 -0.615945
O20   O     O_3   0.362149 0.981209 0.141138 -0.598931
O21   O     O_3   0.862206 0.480892 0.141145 -0.598963
O22   O     O_3   0.702749 0.002541 0.182648 -0.580036
O23   O     O_R   0.605310 0.837110 0.563680 -0.608685
O24   O     O_3   0.202744 0.502828 0.182658 -0.580054
O25   O     O_2   0.783319 0.073749 0.030574 -0.557053
O26   O     O_R   0.758674 0.964085 0.941206 -0.797672
O27   O     O_2   0.283155 0.574194 0.030594 -0.557071
O28   O     O_R   0.258759 0.464496 0.941222 -0.797682
O29   O     O_2   0.669845 0.045953 0.782577 -0.592225
O30   O     O_R   0.655073 0.148482 0.882053 -0.772933
O31   O     O_2   0.169770 0.546231 0.782613 -0.592217
O32   O     O_R   0.154758 0.648745 0.882069 -0.772917
O33   O     O_2   0.624550 0.622179 0.433903 -0.589864
O34   O     O_R   0.605310 0.162890 0.563680 -0.610613
O35   O     O_R   0.596571 0.750456 0.388046 -0.837065
O36   O     O_2   0.728979 0.296800 0.314894 -0.579584
O37   O     O_R   0.602143 0.243923 0.381557 -0.797911
O38   O     O_2   0.124554 0.122178 0.433898 -0.589772
O39   O     O_R   0.096553 0.250461 0.388072 -0.836999
O40   O     O_2   0.229010 0.796778 0.314886 -0.579410
O41   O     O_R   0.102161 0.743910 0.381538 -0.797888
O42   O     O_2   0.357455 0.356636 0.621576 -0.588870
O43   O     O_R   0.427250 0.314058 0.496432 -0.768034
O44   O     O_2   0.275155 0.789848 0.665304 -0.610289
O45   O     O_R   0.105310 0.337110 0.563680 -0.608702
O46   O     O_R   0.330825 0.660710 0.662438 -0.767322
O47   O     O_2   0.857448 0.856632 0.621584 -0.588811
O48   O     O_R   0.927249 0.814060 0.496439 -0.768028
O49   O     O_2   0.775182 0.289820 0.665313 -0.610286
O50   O     O_R   0.830870 0.160689 0.662403 -0.767366
O51   O     O_R   0.105310 0.662890 0.563680 -0.610588
O52   O     O_R   0.385830 0.162890 0.539910 -0.614286
O53   O     O_R   0.385830 0.837110 0.539910 -0.618762
O54   O     O_R   0.885830 0.662890 0.539910 -0.614284
Zn1   Zn    Zn3+2 0.493670 0.096680 0.574000 1.063311
Zn2   Zn    Zn3+2 0.493670 0.903320 0.574000 1.063365
Zn3   Zn    Zn3+2 0.993670 0.596680 0.574000 1.063354
Zn4   Zn    Zn3+2 0.993670 0.403320 0.574000 1.063328
Zn5   Zn    Zn3+2 0.617760 1.000000 0.438070 1.043710
Zn6   Zn    Zn3+2 0.117760 0.500000 0.438070 1.043645
Zn7   Zn    Zn3+2 0.394920 0.000000 0.413930 1.028155
Zn8   Zn    Zn3+2 0.894920 0.500000 0.413930 1.027993

loop_
_geom_bond_atom_site_label_1
_geom_bond_atom_site_label_2
_ccdc_geom_bond_type
C54   O36   D    
C49   O26   S    
H31   O35   S    
O2    Zn4   S    
C40   H7    S    
O11   Zn5   S    
O45   Zn4   S    
C16   O52   A    
C3    O22   S    
C33   C45   A    
C39   H4    S    
C1    C11   S    
C7    C55   S    
O7    Zn7   S    
C44   H16   S    
C2    O21   S    
O5    Zn6   S    
O12   Zn4   S    
C22   O15   A    
C4    O24   S    
H28   O28   S    
C59   O44   D    
C27   C33   A    
O19   Zn8   S    
H32   O37   S    
H35   O41   S    
O12   Zn6   S    
C42   H11   S    
C40   H6    S    
C47   H21   S    
C36   C37   S    
C37   H43   S    
C44   H18   S    
C50   O27   D    
C1    O4    A    
C46   O24   S    
C20   C25   S    
O10   Zn8   S    
C43   H15   S    
C45   C62   A    
C24   O16   A    
C52   O31   D    
O14   Zn2   S    
C62   C64   A    
H29   O30   S    
O1    Zn5   S    
C41   H10   S    
C29   C62   A    
O9    Zn8   S    
C7    C14   D    
C38   H2    S    
C28   C35   A    
C32   H34   S    
C64   O20   S    
C57   O41   S    
C48   H24   S    
C21   O19   A    
C18   O10   A    
C15   C34   S    
C34   O51   A    
C35   C56   A    
C48   H26   S    
C30   C63   A    
C21   O13   A    
H33   O39   S    
C5    C49   S    
C36   O20   S    
C16   O8    A    
C59   O46   S    
O1    Zn7   S    
O12   Zn3   S    
C22   O14   A    
H36   O43   S    
C14   C58   S    
C31   H23   S    
C27   C31   A    
O52   Zn1   S    
C28   C32   A    
C42   O22   S    
C44   H17   S    
O1    Zn1   S    
O34   Zn1   S    
C55   O38   D    
C39   O21   S    
C3    C5    A    
O4    Zn5   S    
C5    C45   A    
C10   C13   D    
O51   Zn3   S    
C34   O5    A    
C25   C64   A    
C14   C23   S    
O17   Zn3   S    
C43   C44   S    
C60   O48   S    
C20   O18   A    
C37   C38   S    
C20   O11   A    
C61   O49   D    
C8    C57   S    
O54   Zn3   S    
C30   H12   S    
C55   O39   S    
C47   C48   S    
C3    C25   A    
C10   C19   S    
C39   H5    S    
C56   C63   A    
C13   C61   S    
C2    C26   A    
C6    C50   S    
C9    C11   D    
C17   O53   A    
C54   O37   S    
O16   Zn4   S    
C58   O43   S    
C51   O29   D    
C4    C6    A    
C7    C16   S    
C8    C15   D    
C48   H25   S    
C41   H8    S    
C24   O17   A    
H37   O46   S    
C29   H1    S    
C9    C53   S    
C42   C43   S    
C11   C60   S    
H38   O48   S    
C39   C40   S    
O53   Zn2   S    
C2    C63   A    
C17   O7    A    
C19   O2    A    
C43   H14   S    
O13   Zn6   S    
C49   O25   D    
C46   C47   S    
C40   C41   S    
C36   H41   S    
C15   C59   S    
C24   C28   S    
C6    C56   A    
C1    O23   A    
O1    Zn2   S    
C4    C26   A    
H39   O50   S    
O6    Zn6   S    
C33   C51   S    
C8    C17   S    
C36   H40   S    
C22   C27   S    
C23   O45   A    
C47   H22   S    
C60   O47   D    
C53   O35   S    
C37   H42   S    
C29   C31   A    
O18   Zn7   S    
C50   O28   S    
C61   O50   S    
C23   O6    A    
C30   C32   A    
C18   O54   A    
O12   Zn8   S    
H27   O26   S    
O23   Zn2   S    
C21   C26   S    
C52   O32   S    
C12   O34   A    
O8    Zn7   S    
C46   H20   S    
C53   O33   D    
O15   Zn1   S    
C38   H44   S    
C10   C54   S    
C41   H9    S    
C46   H19   S    
C51   O30   S    
C9    C18   S    
O3    Zn5   S    
C38   H3    S    
C19   O9    A    
C42   H13   S    
C57   O40   D    
C35   C52   S    
H30   O32   S    
C12   C13   S    
C12   O3    A    
C58   O42   D    
