data_mof_unit_47875.cif
_audit_creation_date              2012-12-11T14:38:25-0500
_audit_creation_method            fapswitch 2.2
_symmetry_space_group_name_H-M    P1
_symmetry_Int_Tables_number       1
_space_group_crystal_system       triclinic
_cell_length_a                    19.489542
_cell_length_b                    11.206351
_cell_length_c                    19.615748
_cell_angle_alpha                 90.14493
_cell_angle_beta                  96.654302
_cell_angle_gamma                 90.258079
_cell_volume                      4255.28546915

loop_
_atom_site_label
_atom_site_type_symbol
_atom_type_description
_atom_site_fract_x
_atom_site_fract_y
_atom_site_fract_z
_atom_type_partial_charge
C1    C     C_R   0.724776 0.955029 0.360452 0.543461
C2    C     C_3   0.176010 0.472932 0.468531 -0.269468
C3    C     C_3   0.324747 0.973396 0.531996 -0.264290
C4    C     C_3   0.676010 0.972932 0.468531 -0.269468
C5    C     C_3   0.753955 0.293135 0.555605 0.067198
C6    C     C_3   0.245121 0.292692 0.443593 0.083665
C7    C     C_3   0.253955 0.793135 0.555605 0.067198
C8    C     C_3   0.745120 0.792692 0.443593 0.083665
C9    C     C_3   0.760850 0.427252 0.567212 0.057216
C10   C     C_3   0.239270 0.426839 0.432695 0.054557
C11   C     C_3   0.260850 0.927253 0.567212 0.057215
C12   C     C_R   0.275243 0.955048 0.639558 0.533336
C13   C     C_3   0.739270 0.926839 0.432695 0.054561
C14   C     C_3   0.744679 0.390707 0.435766 0.025829
C15   C     C_3   0.255897 0.389302 0.563859 0.068503
C16   C     C_3   0.244679 0.890707 0.435766 0.025830
C17   C     C_3   0.755897 0.889302 0.563859 0.068504
C18   C     C_3   0.809902 0.466458 0.453828 -0.315165
C19   C     C_3   0.192299 0.467941 0.546547 -0.327816
C20   C     C_3   0.309901 0.966459 0.453827 -0.315167
C21   C     C_3   0.692300 0.967942 0.546547 -0.327815
C22   C     C_3   0.755740 0.274003 0.478352 -0.155779
C23   C     C_R   0.224776 0.455030 0.360452 0.543453
C24   C     C_3   0.243083 0.273002 0.520753 -0.112454
C25   C     C_3   0.255740 0.774004 0.478352 -0.155778
C26   C     C_3   0.743083 0.773002 0.520753 -0.112456
C27   C     C_3   0.411511 0.250190 0.975701 0.104440
C28   C     C_3   0.435797 0.251752 0.054019 0.125925
C29   C     C_3   0.911501 0.750107 0.975707 0.104466
C30   C     C_3   0.935755 0.751587 0.054031 0.125929
C31   C     C_3   0.463473 0.043757 0.965416 -0.247807
C32   C     C_3   0.561060 0.218580 0.028473 -0.256159
C33   C     C_3   0.963558 0.543748 0.965399 -0.247875
C34   C     C_R   0.775243 0.455048 0.639558 0.533335
C35   C     C_3   0.061044 0.718742 0.028478 -0.256184
C36   C     C_3   0.536205 0.226404 0.952230 -0.272614
C37   C     C_3   0.483228 0.044068 0.043962 -0.285648
C38   C     C_3   0.036201 0.726498 0.952232 -0.272622
C39   C     C_3   0.983346 0.544040 0.043938 -0.285636
C40   C     C_R   0.535694 0.180213 0.338170 0.543810
C41   C     C_R   0.463779 0.180359 0.661463 0.555211
C42   C     C_R   0.035694 0.680213 0.338170 0.543842
C43   C     C_R   0.963779 0.680359 0.661463 0.555211
C44   C     C_3   0.462076 0.174280 0.937471 0.035419
C45   C     C_3   0.681034 0.460191 0.456940 0.111982
C46   C     C_3   0.502128 0.173227 0.069099 0.035179
C47   C     C_3   0.962097 0.674279 0.937470 0.035350
C48   C     C_3   0.002145 0.673220 0.069096 0.035121
C49   C     C_1   0.756897 0.413102 0.900369 -0.007750
C50   C     C_1   0.218741 0.475749 0.085055 -0.006211
C51   C     C_1   0.256897 0.913102 0.900369 -0.007734
C52   C     C_1   0.718746 0.975738 0.085057 -0.006140
C53   C     C_1   0.735170 0.362398 0.026366 -0.050608
C54   C     C_1   0.240378 0.438431 0.957444 -0.001004
C55   C     C_1   0.235167 0.862396 0.026365 -0.050610
C56   C     C_3   0.320964 0.454435 0.542731 0.126533
C57   C     C_1   0.740386 0.938415 0.957448 -0.001015
C58   C     C_1   0.744914 0.387439 0.957530 -0.047641
C59   C     C_1   0.228956 0.460290 0.026191 -0.019835
C60   C     C_1   0.244913 0.887438 0.957530 -0.047627
C61   C     C_1   0.728963 0.960276 0.026195 -0.019784
C62   C     C_1   0.728981 0.341282 0.085657 -0.019193
C63   C     C_1   0.250330 0.410755 0.899952 0.036301
C64   C     C_1   0.228979 0.841279 0.085657 -0.019199
C65   C     C_1   0.750336 0.910743 0.899956 0.036283
C66   C     C_R   0.737923 0.357939 0.362798 0.555546
C67   C     C_3   0.181034 0.960190 0.456940 0.111982
C68   C     C_R   0.262432 0.356908 0.636843 0.549138
C69   C     C_R   0.237923 0.857939 0.362798 0.555546
C70   C     C_R   0.762432 0.856908 0.636843 0.549139
C71   C     C_R   0.705241 0.996611 0.154528 0.537224
C72   C     C_R   0.277126 0.952833 0.836022 0.548755
C73   C     C_R   0.205240 0.496614 0.154528 0.537210
C74   C     C_R   0.777126 0.452833 0.836022 0.548764
C75   C     C_R   0.530321 0.178911 0.141937 0.547751
C76   C     C_R   0.440334 0.181779 0.863047 0.598520
C77   C     C_R   0.030331 0.678910 0.141932 0.547864
C78   C     C_3   0.820965 0.954433 0.542730 0.126528
C79   C     C_R   0.940347 0.681778 0.863051 0.598538
C80   C     C_R   0.722672 0.312013 0.155964 0.528988
C81   C     C_R   0.262810 0.361752 0.834850 0.569853
C82   C     C_R   0.222671 0.812011 0.155964 0.528992
C83   C     C_R   0.762812 0.861749 0.834851 0.569859
C84   C     C_1   0.484887 0.172422 0.594106 0.024911
C85   C     C_1   0.513122 0.172143 0.404897 0.007804
C86   C     C_1   0.984887 0.672422 0.594106 0.024913
C87   C     C_1   0.013122 0.672143 0.404897 0.007803
C88   C     C_1   0.502631 0.168556 0.464152 -0.010512
C89   C     C_3   0.824747 0.473396 0.531996 -0.264290
C90   C     C_1   0.494561 0.168750 0.534621 0.004554
C91   C     C_1   0.002631 0.668556 0.464152 -0.010520
C92   C     C_1   0.994561 0.668750 0.534622 0.004546
C93   C     C_3   0.691214 0.481853 0.534743 -0.164476
C94   C     C_3   0.309320 0.480683 0.465440 -0.147160
C95   C     C_3   0.191214 0.981852 0.534743 -0.164476
C96   C     C_3   0.809320 0.980682 0.465440 -0.147183
Cr1   Cr    Cr6+3 0.765780 0.160710 0.267420 1.030909
Cr2   Cr    Cr6+3 0.383970 0.323720 0.751490 1.038048
Cr3   Cr    Cr6+3 0.116030 0.823720 0.248510 1.069784
Cr4   Cr    Cr6+3 0.883970 0.823720 0.751490 1.038059
Cr5   Cr    Cr6+3 0.234220 0.160710 0.732580 1.025862
Cr6   Cr    Cr6+3 0.265780 0.660710 0.267420 1.030903
Cr7   Cr    Cr6+3 0.734220 0.660710 0.732580 1.025874
Cr8   Cr    Cr6+3 0.612200 0.009560 0.248850 1.011562
Cr9   Cr    Cr6+3 0.387800 0.009560 0.751150 1.014239
Cr10  Cr    Cr6+3 0.112200 0.509560 0.248850 1.011552
Cr11  Cr    Cr6+3 0.887800 0.509560 0.751150 1.014236
Cr12  Cr    Cr6+3 0.616030 0.323720 0.248510 1.069836
H1    H     H_    0.688471 0.574944 0.546715 0.083562
H2    H     H_    0.130952 0.412802 0.453920 0.138274
H3    H     H_    0.369672 0.914291 0.547541 0.134756
H4    H     H_    0.630952 0.912802 0.453921 0.138273
H5    H     H_    0.855494 0.428029 0.432375 0.146207
H6    H     H_    0.146390 0.433311 0.569311 0.142582
H7    H     H_    0.355494 0.928030 0.432374 0.146206
H8    H     H_    0.646390 0.933315 0.569312 0.142583
H9    H     H_    0.412882 0.998269 0.952222 0.145508
H10   H     H_    0.580719 0.307762 0.046733 0.142392
H11   H     H_    0.912982 0.498204 0.952219 0.145446
H12   H     H_    0.311495 0.574512 0.456007 0.067367
H13   H     H_    0.080614 0.807977 0.046733 0.142420
H14   H     H_    0.439406 0.009307 0.069875 0.119826
H15   H     H_    0.537628 0.321787 0.936658 0.140005
H16   H     H_    0.939571 0.509133 0.069864 0.119883
H17   H     H_    0.037591 0.821877 0.936647 0.140037
H18   H     H_    0.605806 0.156634 0.036268 0.105054
H19   H     H_    0.502351 0.990677 0.941196 0.147240
H20   H     H_    0.105848 0.656926 0.036289 0.105034
H21   H     H_    0.002442 0.490727 0.941154 0.147247
H22   H     H_    0.646730 0.445497 0.559031 0.192917
H23   H     H_    0.188471 0.074944 0.546715 0.083562
H24   H     H_    0.353219 0.446690 0.439486 0.200505
H25   H     H_    0.146730 0.945496 0.559031 0.192917
H26   H     H_    0.853218 0.946689 0.439485 0.200491
H27   H     H_    0.677883 0.547639 0.430483 0.143076
H28   H     H_    0.328819 0.539831 0.571933 0.086356
H29   H     H_    0.177882 0.047639 0.430483 0.143074
H30   H     H_    0.828822 0.039828 0.571933 0.086376
H31   H     H_    0.344144 0.062209 0.549178 0.150687
H32   H     H_    0.656113 0.060852 0.451210 0.134083
H33   H     H_    0.844144 0.562209 0.549178 0.150688
H34   H     H_    0.811495 0.074511 0.456008 0.067369
H35   H     H_    0.156113 0.560851 0.451211 0.134083
H36   H     H_    0.301401 0.054000 0.430957 0.188211
H37   H     H_    0.704139 0.055662 0.568486 0.186192
H38   H     H_    0.801402 0.553999 0.430957 0.188214
H39   H     H_    0.204136 0.555661 0.568486 0.186193
H40   H     H_    0.797946 0.244205 0.584289 0.113597
H41   H     H_    0.200783 0.244630 0.414425 0.106000
H42   H     H_    0.297947 0.744205 0.584289 0.113598
H43   H     H_    0.700782 0.744630 0.414425 0.106003
H44   H     H_    0.719502 0.205200 0.457711 0.138499
H45   H     H_    0.809413 0.247530 0.473102 0.092441
H46   H     H_    0.279117 0.204019 0.540673 0.166800
H47   H     H_    0.219503 0.705200 0.457711 0.138499
H48   H     H_    0.779116 0.704019 0.540673 0.166800
H49   H     H_    0.338003 0.132904 0.986263 0.318339
H50   H     H_    0.479282 0.409765 0.051712 0.323228
H51   H     H_    0.838018 0.632718 0.986153 0.318319
H52   H     H_    0.979112 0.909710 0.051848 0.323253
H53   H     H_    0.412128 0.343182 0.955905 0.182056
H54   H     H_    0.394995 0.212111 0.082323 0.169679
H55   H     H_    0.912114 0.843122 0.955947 0.182005
H56   H     H_    0.189085 0.247335 0.525968 0.070957
H57   H     H_    0.894975 0.711766 0.082292 0.169714
H58   H     H_    0.572344 0.176902 0.922515 0.139178
H59   H     H_    0.527650 0.982769 0.056585 0.158081
H60   H     H_    0.072364 0.677026 0.922531 0.139180
H61   H     H_    0.027826 0.482856 0.056529 0.158046
H62   H     H_    0.619699 0.322746 0.461648 0.354437
H63   H     H_    0.420559 0.435420 0.555742 0.320796
H64   H     H_    0.119700 0.822745 0.461648 0.354437
H65   H     H_    0.920560 0.935408 0.555714 0.320789
H66   H     H_    0.698026 0.246536 0.627015 0.320207
H67   H     H_    0.309413 0.747531 0.473102 0.092442
H68   H     H_    0.300793 0.245744 0.372141 0.321007
H69   H     H_    0.198027 0.746536 0.627016 0.320207
H70   H     H_    0.800791 0.745743 0.372141 0.321018
H71   H     H_    0.689084 0.747335 0.525968 0.070958
H72   H     H_    0.869672 0.414291 0.547541 0.134756
O1    O     O_R   0.783100 0.287550 0.345460 -0.535223
O2    O     O_R   0.454350 0.284910 0.836260 -0.536670
O3    O     O_R   0.045650 0.784910 0.163740 -0.474982
O4    O     O_R   0.954350 0.784910 0.836260 -0.536660
O5    O     O_R   0.677950 0.374280 0.185410 -0.489466
O6    O     O_R   0.322050 0.374280 0.814590 -0.505731
O7    O     O_R   0.177950 0.874280 0.185410 -0.489505
O8    O     O_R   0.822050 0.874280 0.814590 -0.505729
O9    O     O_3   0.664670 0.164660 0.254930 -0.312708
O10   O     O_3   0.335330 0.164660 0.745070 -0.270102
O11   O     O_3   0.164670 0.664660 0.254930 -0.312702
O12   O     O_R   0.216900 0.287550 0.654540 -0.546596
O13   O     O_3   0.835330 0.664660 0.745070 -0.270088
O14   O     O_R   0.760020 0.037400 0.337700 -0.509618
O15   O     O_R   0.239980 0.037400 0.662300 -0.519244
O16   O     O_R   0.260020 0.537400 0.337700 -0.509621
O17   O     O_R   0.739980 0.537400 0.662300 -0.519246
O18   O     O_R   0.666600 0.921990 0.332020 -0.523794
O19   O     O_R   0.333400 0.921990 0.667980 -0.534370
O20   O     O_R   0.166600 0.421990 0.332020 -0.523798
O21   O     O_R   0.833400 0.421990 0.667980 -0.534371
O22   O     O_R   0.557260 0.082670 0.312540 -0.509048
O23   O     O_R   0.283100 0.787550 0.345460 -0.535221
O24   O     O_R   0.442740 0.082670 0.687460 -0.508478
O25   O     O_R   0.057260 0.582670 0.312540 -0.509042
O26   O     O_R   0.942740 0.582670 0.687460 -0.508482
O27   O     O_R   0.548410 0.285740 0.316480 -0.453966
O28   O     O_R   0.451590 0.285740 0.683520 -0.477654
O29   O     O_R   0.048410 0.785740 0.316480 -0.453947
O30   O     O_R   0.951590 0.785740 0.683520 -0.477642
O31   O     O_R   0.680500 0.375040 0.327000 -0.449204
O32   O     O_R   0.319500 0.375040 0.673000 -0.468253
O33   O     O_R   0.180500 0.875040 0.327000 -0.449207
O34   O     O_R   0.716900 0.787550 0.654540 -0.546598
O35   O     O_R   0.819500 0.875040 0.673000 -0.468246
O36   O     O_R   0.780350 0.286720 0.192720 -0.499118
O37   O     O_R   0.219650 0.286720 0.807280 -0.503478
O38   O     O_R   0.280350 0.786720 0.192720 -0.499106
O39   O     O_R   0.719650 0.786720 0.807280 -0.503467
O40   O     O_R   0.757470 0.036630 0.196110 -0.484268
O41   O     O_R   0.242530 0.036630 0.803890 -0.483867
O42   O     O_R   0.257470 0.536630 0.196110 -0.484286
O43   O     O_R   0.742530 0.536630 0.803890 -0.483856
O44   O     O_R   0.663840 0.921160 0.179280 -0.494259
O45   O     O_R   0.554710 0.081900 0.170950 -0.534923
O46   O     O_R   0.336160 0.921160 0.820720 -0.519878
O47   O     O_R   0.163840 0.421160 0.179280 -0.494285
O48   O     O_R   0.836160 0.421160 0.820720 -0.519877
O49   O     O_3   0.342824 0.209081 0.961660 -0.725762
O50   O     O_3   0.445336 0.369961 0.078144 -0.673371
O51   O     O_3   0.842822 0.708982 0.961628 -0.725680
O52   O     O_3   0.945176 0.869765 0.078228 -0.673380
O53   O     O_3   0.618024 0.400597 0.437763 -0.672741
O54   O     O_3   0.379725 0.382447 0.556863 -0.657253
O55   O     O_3   0.118024 0.900596 0.437764 -0.672745
O56   O     O_R   0.445290 0.081900 0.829050 -0.509127
O57   O     O_3   0.879725 0.882443 0.556863 -0.657245
O58   O     O_3   0.691350 0.251765 0.576147 -0.772331
O59   O     O_3   0.307489 0.251260 0.423019 -0.725200
O60   O     O_3   0.191351 0.751764 0.576147 -0.772331
O61   O     O_3   0.807488 0.751259 0.423018 -0.725202
O62   O     O_R   0.054710 0.581900 0.170950 -0.534920
O63   O     O_R   0.945290 0.581900 0.829050 -0.509123
O64   O     O_R   0.545650 0.284910 0.163740 -0.474878

loop_
_geom_bond_atom_site_label_1
_geom_bond_atom_site_label_2
_ccdc_geom_bond_type
Cr1   O14   S    
C95   H23   S    
Cr4   O35   S    
C8    C13   S    
C49   C74   S    
C53   C58   S    
C87   C91   T    
C25   H47   S    
C8    C26   S    
C29   H55   S    
C26   H48   S    
C1    O18   A    
C47   C79   S    
Cr2   O10   S    
Cr5   O12   S    
C45   C93   S    
H50   O50   S    
Cr10  O25   S    
Cr3   O7    S    
C28   H54   S    
Cr8   O45   S    
C37   H59   S    
C26   H71   S    
C15   C19   S    
C28   C46   S    
C33   C39   S    
C73   O42   A    
C29   C47   S    
Cr6   O42   S    
C17   C26   S    
C32   C36   S    
C30   C48   S    
Cr4   O8    S    
C45   O53   S    
Cr11  O21   S    
C52   C61   T    
C21   H8    S    
H65   O57   S    
C65   C83   S    
C54   C63   T    
C10   C94   S    
C34   O21   A    
C32   H18   S    
C95   H25   S    
C79   O4    A    
C42   O25   A    
Cr7   O17   S    
C89   H72   S    
C30   O52   S    
C4    C13   S    
C44   C76   S    
C43   O30   A    
C14   C18   S    
C31   H9    S    
Cr11  O26   S    
C74   O48   A    
C75   O64   A    
Cr7   O43   S    
C6    H41   S    
C94   H12   S    
C27   C44   S    
C27   O49   S    
C5    C22   S    
C78   C96   S    
Cr1   O36   S    
Cr7   O39   S    
C23   O16   A    
Cr4   O4    S    
C80   O5    A    
H52   O52   S    
C31   H19   S    
Cr12  O31   S    
C67   O55   S    
Cr3   O3    S    
C50   C59   T    
H70   O61   S    
Cr1   O9    S    
C4    H4    S    
C40   O27   A    
C81   O37   A    
C17   C70   S    
C56   C94   S    
C5    H40   S    
C72   O46   A    
C55   C60   S    
Cr11  O48   S    
C43   O26   A    
C67   C95   S    
C2    H35   S    
C18   C89   S    
Cr11  O63   S    
C24   H56   S    
C84   C90   T    
Cr10  O11   S    
Cr10  O62   S    
Cr12  O27   S    
C76   O2    A    
C35   C48   S    
C78   H30   S    
C18   H5    S    
C46   C75   S    
C56   H28   S    
C24   H46   S    
C14   C45   S    
C54   C59   S    
H62   O53   S    
C22   H44   S    
C45   H27   S    
C31   C44   S    
C13   C96   S    
H49   O49   S    
C77   O62   A    
C70   O34   A    
H64   O55   S    
Cr12  O5    S    
C75   O45   A    
C8    H43   S    
C69   O33   A    
C29   O51   S    
C80   O36   A    
Cr5   O10   S    
C5    O58   S    
C50   C73   S    
C9    C89   S    
C91   C92   S    
C73   O47   A    
Cr6   O38   S    
C69   O23   A    
C3    H3    S    
Cr9   O24   S    
C96   H26   S    
Cr3   O33   S    
C19   H6    S    
Cr4   O13   S    
C41   C84   S    
Cr2   O32   S    
C74   O43   A    
C17   C21   S    
C49   C58   T    
C31   C37   S    
C21   H37   S    
C40   C85   S    
Cr2   O2    S    
C7    C11   S    
Cr6   O23   S    
C51   C60   T    
C5    C9    S    
C29   C30   S    
C19   H39   S    
C4    H32   S    
C7    H42   S    
C83   O39   A    
C53   C62   T    
C25   H67   S    
C82   O38   A    
C35   H13   S    
C16   C20   S    
C6    C24   S    
C55   C64   T    
C36   H15   S    
C48   C77   S    
C36   H58   S    
Cr6   O11   S    
C14   C66   S    
Cr1   O40   S    
C3    C20   S    
C76   O56   A    
C16   C67   S    
Cr9   O46   S    
C41   O24   A    
C57   C61   S    
Cr7   O34   S    
C64   C82   S    
C38   C47   S    
C42   O29   A    
H69   O60   S    
C15   C24   S    
C66   O1    A    
C88   C90   S    
C62   C80   S    
C78   O57   S    
C79   O63   A    
Cr2   O28   S    
C9    C34   S    
C33   C47   S    
Cr9   O56   S    
C33   H21   S    
Cr12  O9    S    
C36   C44   S    
C3    H31   S    
C51   C72   S    
C70   O35   A    
C93   H22   S    
C2    C10   S    
C9    C93   S    
C81   O6    A    
Cr11  O13   S    
C38   H17   S    
C56   O54   S    
Cr10  O20   S    
Cr3   O29   S    
C85   C88   T    
C11   C95   S    
C16   C25   S    
C22   H45   S    
C2    H2    S    
C71   O44   A    
C63   C81   S    
Cr12  O64   S    
C2    C19   S    
Cr10  O47   S    
C43   C86   S    
C32   C46   S    
Cr9   O10   S    
C16   C69   S    
C30   H57   S    
C32   H10   S    
C18   H38   S    
Cr6   O16   S    
C6    C10   S    
C20   H7    S    
C20   H36   S    
Cr1   O1    S    
Cr8   O22   S    
C10   C23   S    
C6    O59   S    
C15   C68   S    
C7    C25   S    
C82   O7    A    
C15   C56   S    
C14   C22   S    
C41   O28   A    
H66   O58   S    
C1    O14   A    
C66   O31   A    
Cr5   O15   S    
C39   H61   S    
C52   C71   S    
C39   H16   S    
C27   H53   S    
Cr3   O11   S    
C4    C21   S    
C34   O17   A    
C38   H60   S    
C8    O61   S    
C89   H33   S    
C72   O41   A    
C23   O20   A    
Cr4   O30   S    
C17   C78   S    
C12   O15   A    
C12   O19   A    
C28   O50   S    
Cr5   O41   S    
C35   H20   S    
C83   O8    A    
C94   H24   S    
C3    C11   S    
C71   O40   A    
Cr8   O18   S    
C96   H34   S    
C37   H14   S    
Cr5   O37   S    
Cr9   O19   S    
H68   O59   S    
C1    C13   S    
C7    O60   S    
C33   H11   S    
Cr2   O6    S    
C93   H1    S    
C27   C28   S    
C68   O12   A    
C35   C38   S    
C86   C92   T    
C42   C87   S    
Cr7   O13   S    
C37   C46   S    
C40   O22   A    
C67   H29   S    
Cr8   O9    S    
Cr8   O44   S    
C77   O3    A    
C11   C12   S    
H51   O51   S    
C39   C48   S    
C57   C65   T    
H63   O54   S    
C68   O32   A    
