data_mof_unit_33971.cif
_audit_creation_date              2012-12-11T15:35:36-0500
_audit_creation_method            fapswitch 2.2
_symmetry_space_group_name_H-M    P1
_symmetry_Int_Tables_number       1
_space_group_crystal_system       monoclinic
_cell_length_a                    17.307837
_cell_length_b                    24.154797
_cell_length_c                    14.806154
_cell_angle_alpha                 90.0
_cell_angle_beta                  124.638584
_cell_angle_gamma                 90.0
_cell_volume                      5092.82015477

loop_
_atom_site_label
_atom_site_type_symbol
_atom_type_description
_atom_site_fract_x
_atom_site_fract_y
_atom_site_fract_z
_atom_type_partial_charge
C1    C     C_R   0.349873 0.151754 0.907490 -0.134095
C2    C     C_R   0.598874 0.124069 0.907922 -0.126008
C3    C     C_R   0.251779 0.546090 0.305592 -0.156373
C4    C     C_3   0.109179 0.952205 0.485242 -1.038463
C5    C     C_3   0.098517 0.054982 0.482465 -1.037191
C6    C     C_3   0.598512 0.445008 0.482475 -1.037232
C7    C     C_3   0.609179 0.547782 0.485238 -1.038484
C8    C     C_R   0.098874 0.375931 0.907922 -0.126007
C9    C     C_R   0.098854 0.624072 0.907900 -0.125984
C10   C     C_R   0.432103 0.000001 0.630507 0.046971
C11   C     C_R   0.932105 0.499999 0.630509 0.046973
C12   C     C_R   0.797083 0.999892 0.369089 0.031908
C13   C     C_R   0.297083 0.500108 0.369089 0.031905
C14   C     C_R   0.688335 0.136136 0.999037 0.039187
C15   C     C_R   0.688309 0.863851 0.998998 0.039105
C16   C     C_R   0.188308 0.636149 0.998998 0.039105
C17   C     C_R   0.349834 0.848262 0.907468 -0.134249
C18   C     C_R   0.188335 0.363864 0.999037 0.039186
C19   C     C_3   0.025146 0.948258 0.627716 -0.458261
C20   C     C_3   0.024269 0.050938 0.629789 -0.448829
C21   C     C_3   0.524266 0.449066 0.629798 -0.448840
C22   C     C_3   0.525148 0.551746 0.627707 -0.458289
C23   C     C_3   0.919807 0.948646 0.536825 -0.412562
C24   C     C_3   0.920990 0.052870 0.532721 -0.418257
C25   C     C_3   0.420986 0.447135 0.532732 -0.418258
C26   C     C_3   0.419809 0.551358 0.536819 -0.412587
C27   C     C_3   0.059865 0.001250 0.501433 0.611539
C28   C     C_R   0.849834 0.651738 0.907468 -0.134247
C29   C     C_3   0.559865 0.498742 0.501436 0.611543
C30   C     C_3   0.073655 0.000207 0.617667 0.326829
C31   C     C_3   0.573655 0.499793 0.617669 0.326848
C32   C     C_3   0.895622 0.999831 0.462088 0.329595
C33   C     C_3   0.395622 0.500170 0.462090 0.329605
C34   C     C_R   0.442873 0.846792 0.090414 -0.143148
C35   C     C_R   0.442886 0.153207 0.090430 -0.143081
C36   C     C_R   0.942885 0.346793 0.090430 -0.143081
C37   C     C_R   0.942873 0.653208 0.090414 -0.143148
C38   C     C_3   0.953224 0.997721 0.411626 -0.437898
C39   C     C_R   0.849873 0.348247 0.907490 -0.134097
C40   C     C_3   0.453227 0.502273 0.411629 -0.437899
C41   C     C_R   0.290828 0.731038 0.898511 -0.174850
C42   C     C_R   0.290892 0.268986 0.898571 -0.174817
C43   C     C_R   0.790891 0.231014 0.898572 -0.174817
C44   C     C_R   0.790828 0.768962 0.898511 -0.174849
C45   C     C_R   0.743605 0.184846 0.898695 -0.170697
C46   C     C_R   0.743541 0.815130 0.898630 -0.170789
C47   C     C_R   0.243541 0.684870 0.898630 -0.170789
C48   C     C_R   0.243605 0.315154 0.898695 -0.170696
C49   C     C_R   0.761891 0.165334 0.998242 0.144503
C50   C     C_R   0.689518 0.123229 0.091271 -0.126608
C51   C     C_R   0.761854 0.834656 0.998181 0.144642
C52   C     C_R   0.261854 0.665344 0.998181 0.144642
C53   C     C_R   0.261891 0.334666 0.998241 0.144503
C54   C     C_R   0.841950 0.183964 0.097331 -0.171573
C55   C     C_R   0.841939 0.816044 0.097264 -0.171397
C56   C     C_R   0.341939 0.683956 0.097264 -0.171397
C57   C     C_R   0.341951 0.316036 0.097331 -0.171573
C58   C     C_R   0.389227 0.730156 0.097264 -0.172045
C59   C     C_R   0.389239 0.269837 0.097326 -0.171836
C60   C     C_R   0.889238 0.230164 0.097326 -0.171836
C61   C     C_R   0.689503 0.876751 0.091241 -0.126339
C62   C     C_R   0.889226 0.769844 0.097264 -0.172046
C63   C     C_R   0.357140 0.757240 0.998031 0.143290
C64   C     C_R   0.357178 0.242769 0.998084 0.143160
C65   C     C_R   0.857177 0.257232 0.998085 0.143161
C66   C     C_R   0.857139 0.742759 0.998031 0.143290
C67   C     C_R   0.386663 0.949876 0.461026 -0.172309
C68   C     C_R   0.386682 0.050128 0.461038 -0.171810
C69   C     C_R   0.886683 0.449872 0.461038 -0.171809
C70   C     C_R   0.886665 0.550124 0.461027 -0.172308
C71   C     C_R   0.388016 0.949902 0.368460 -0.170785
C72   C     C_R   0.189503 0.623249 0.091241 -0.126340
C73   C     C_R   0.388030 0.050101 0.368469 -0.170937
C74   C     C_R   0.888030 0.449899 0.368469 -0.170939
C75   C     C_R   0.888017 0.550098 0.368461 -0.170786
C76   C     C_R   0.400243 0.000001 0.330305 0.144286
C77   C     C_R   0.900243 0.499999 0.330305 0.144287
C78   C     C_R   0.478335 0.046048 0.247370 -0.126123
C79   C     C_R   0.478334 0.953952 0.247369 -0.126083
C80   C     C_R   0.978334 0.546048 0.247369 -0.126082
C81   C     C_R   0.978335 0.453952 0.247369 -0.126124
C82   C     C_R   0.396436 0.000002 0.514329 0.145036
C83   C     C_R   0.189519 0.376771 0.091271 -0.126607
C84   C     C_R   0.896438 0.499998 0.514331 0.145037
C85   C     C_R   0.230552 0.953320 0.741691 -0.140431
C86   C     C_R   0.230686 0.046821 0.741656 -0.142429
C87   C     C_R   0.730686 0.453179 0.741660 -0.142430
C88   C     C_R   0.730552 0.546681 0.741691 -0.140436
C89   C     C_R   0.380973 0.184627 0.998678 0.048572
C90   C     C_R   0.380941 0.815381 0.998648 0.048580
C91   C     C_R   0.880940 0.684618 0.998648 0.048580
C92   C     C_R   0.880972 0.315374 0.998678 0.048573
C93   C     C_R   0.445865 0.000000 0.272246 0.037534
C94   C     C_R   0.598854 0.875928 0.907900 -0.125984
C95   C     C_R   0.945865 0.500000 0.272246 0.037534
C96   C     C_R   0.174003 0.000143 0.707035 0.030670
C97   C     C_R   0.674003 0.499858 0.707038 0.030664
C98   C     C_R   0.449358 0.045680 0.695303 -0.143323
C99   C     C_R   0.449353 0.954321 0.695299 -0.144578
C100  C     C_R   0.949354 0.545679 0.695300 -0.144578
C101  C     C_R   0.949359 0.454320 0.695303 -0.143323
C102  C     C_R   0.751779 0.953910 0.305592 -0.156377
C103  C     C_R   0.751825 0.045966 0.305741 -0.158143
C104  C     C_R   0.251825 0.454035 0.305741 -0.158142
H1    H     H_    0.311749 0.165124 0.823034 0.082266
H2    H     H_    0.910560 0.090409 0.483537 0.154192
H3    H     H_    0.410551 0.409591 0.483556 0.154193
H4    H     H_    0.402676 0.590567 0.489906 0.151197
H5    H     H_    0.935390 0.958789 0.363089 0.157311
H6    H     H_    0.930142 0.031756 0.350484 0.159605
H7    H     H_    0.430145 0.468236 0.350493 0.159610
H8    H     H_    0.435397 0.541201 0.363090 0.157317
H9    H     H_    0.268348 0.748704 0.820134 0.105106
H10   H     H_    0.268430 0.251332 0.820192 0.105254
H11   H     H_    0.768429 0.248669 0.820192 0.105254
H12   H     H_    0.311662 0.834914 0.822993 0.082272
H13   H     H_    0.768347 0.751296 0.820134 0.105105
H14   H     H_    0.686459 0.168784 0.820478 0.107026
H15   H     H_    0.686374 0.831179 0.820413 0.107002
H16   H     H_    0.186374 0.668821 0.820413 0.107002
H17   H     H_    0.186459 0.331216 0.820478 0.107026
H18   H     H_    0.862325 0.167201 0.175646 0.105622
H19   H     H_    0.862339 0.832822 0.175578 0.105226
H20   H     H_    0.362339 0.667178 0.175578 0.105226
H21   H     H_    0.362326 0.332800 0.175646 0.105623
H22   H     H_    0.444216 0.747180 0.175682 0.105265
H23   H     H_    0.811662 0.665086 0.822993 0.082272
H24   H     H_    0.444204 0.252800 0.175743 0.105429
H25   H     H_    0.944203 0.247201 0.175743 0.105428
H26   H     H_    0.944215 0.752819 0.175682 0.105266
H27   H     H_    0.387861 0.910369 0.496021 0.105896
H28   H     H_    0.387898 0.089636 0.496042 0.105644
H29   H     H_    0.887898 0.410364 0.496042 0.105644
H30   H     H_    0.887863 0.589631 0.496022 0.105896
H31   H     H_    0.489669 0.832208 0.173739 0.084765
H32   H     H_    0.489683 0.167783 0.173761 0.084798
H33   H     H_    0.989682 0.332217 0.173761 0.084798
H34   H     H_    0.811749 0.334876 0.823034 0.082267
H35   H     H_    0.989668 0.667792 0.173739 0.084765
H36   H     H_    0.390259 0.910442 0.335608 0.107707
H37   H     H_    0.390283 0.089562 0.335625 0.107747
H38   H     H_    0.890283 0.410438 0.335625 0.107747
H39   H     H_    0.890260 0.589558 0.335609 0.107707
H40   H     H_    0.467967 0.089079 0.257072 0.093184
H41   H     H_    0.467965 0.910921 0.257071 0.093155
H42   H     H_    0.967965 0.589079 0.257071 0.093155
H43   H     H_    0.967967 0.410921 0.257072 0.093184
H44   H     H_    0.210049 0.910424 0.723734 0.100395
H45   H     H_    0.878686 0.949603 0.573407 0.169090
H46   H     H_    0.210481 0.089754 0.723700 0.100161
H47   H     H_    0.710479 0.410247 0.723707 0.100164
H48   H     H_    0.710050 0.589577 0.723733 0.100395
H49   H     H_    0.430911 0.088121 0.668466 0.084492
H50   H     H_    0.430896 0.911882 0.668457 0.085078
H51   H     H_    0.930897 0.588118 0.668458 0.085079
H52   H     H_    0.930912 0.411879 0.668467 0.084492
H53   H     H_    0.746974 0.127909 0.176181 0.090101
H54   H     H_    0.746960 0.872032 0.176128 0.089854
H55   H     H_    0.246960 0.627968 0.176128 0.089854
H56   H     H_    0.875380 0.056747 0.563129 0.166187
H57   H     H_    0.246974 0.372091 0.176181 0.090101
H58   H     H_    0.571949 0.870962 0.822434 0.093204
H59   H     H_    0.571981 0.129039 0.822460 0.093168
H60   H     H_    0.071981 0.370961 0.822460 0.093167
H61   H     H_    0.071948 0.629038 0.822434 0.093204
H62   H     H_    0.055111 0.908868 0.622427 0.156970
H63   H     H_    0.057215 0.091037 0.634034 0.157094
H64   H     H_    0.557210 0.408966 0.634047 0.157101
H65   H     H_    0.555112 0.591132 0.622407 0.156979
H66   H     H_    0.035532 0.947930 0.709163 0.175169
H67   H     H_    0.375378 0.443265 0.563143 0.166189
H68   H     H_    0.028866 0.047636 0.707733 0.176614
H69   H     H_    0.528865 0.452374 0.707741 0.176619
H70   H     H_    0.535536 0.552081 0.709154 0.175176
H71   H     H_    0.086905 0.911510 0.497465 0.229186
H72   H     H_    0.091240 0.952473 0.400225 0.257992
H73   H     H_    0.186778 0.955463 0.540885 0.262452
H74   H     H_    0.175933 0.057996 0.539740 0.257499
H75   H     H_    0.082731 0.055043 0.398419 0.256733
H76   H     H_    0.066050 0.092831 0.489380 0.232671
H77   H     H_    0.566042 0.407163 0.489390 0.232682
H78   H     H_    0.378691 0.550405 0.573404 0.169098
H79   H     H_    0.582730 0.444944 0.398430 0.256736
H80   H     H_    0.675925 0.441992 0.539751 0.257505
H81   H     H_    0.686776 0.544524 0.540888 0.262460
H82   H     H_    0.591244 0.547507 0.400222 0.257997
H83   H     H_    0.586904 0.588477 0.497449 0.229190
H84   H     H_    0.764110 0.911078 0.330936 0.086268
H85   H     H_    0.764180 0.088746 0.331542 0.087918
H86   H     H_    0.264182 0.411255 0.331542 0.087917
H87   H     H_    0.264110 0.588922 0.330935 0.086268
H88   H     H_    0.902673 0.909435 0.489916 0.151191
N1    N     N_R   0.392140 0.102630 0.941800 -0.036692
N2    N     N_R   0.525160 0.972040 0.206160 -0.038465
N3    N     N_R   0.025160 0.527960 0.206160 -0.038465
N4    N     N_R   0.025160 0.472040 0.206160 -0.038470
N5    N     N_R   0.317870 0.971120 0.792790 -0.037323
N6    N     N_R   0.317870 0.028880 0.792790 -0.037292
N7    N     N_R   0.817870 0.471120 0.792790 -0.037292
N8    N     N_R   0.817870 0.528880 0.792790 -0.037322
N9    N     N_R   0.473480 0.027920 0.793480 -0.036872
N10   N     N_R   0.473480 0.972080 0.793480 -0.036775
N11   N     N_R   0.973480 0.527920 0.793480 -0.036775
N12   N     N_R   0.392140 0.897370 0.941800 -0.036727
N13   N     N_R   0.973480 0.472080 0.793480 -0.036872
N14   N     N_R   0.681610 0.971120 0.207570 -0.033901
N15   N     N_R   0.681610 0.028880 0.207570 -0.034024
N16   N     N_R   0.181610 0.471120 0.207570 -0.034024
N17   N     N_R   0.181610 0.528880 0.207570 -0.033901
N18   N     N_R   0.605410 0.102620 0.056870 -0.039262
N19   N     N_R   0.605410 0.897380 0.056870 -0.039316
N20   N     N_R   0.105410 0.602620 0.056870 -0.039316
N21   N     N_R   0.105410 0.397380 0.056870 -0.039262
N22   N     N_R   0.549680 0.896430 0.944180 -0.040168
N23   N     N_R   0.892140 0.602630 0.941800 -0.036727
N24   N     N_R   0.549680 0.103570 0.944180 -0.040203
N25   N     N_R   0.049680 0.396430 0.944180 -0.040204
N26   N     N_R   0.049680 0.603570 0.944180 -0.040168
N27   N     N_R   0.892140 0.397370 0.941800 -0.036692
N28   N     N_R   0.450890 0.896450 0.057150 -0.037757
N29   N     N_R   0.450890 0.103550 0.057150 -0.037726
N30   N     N_R   0.950890 0.396450 0.057150 -0.037726
N31   N     N_R   0.950890 0.603550 0.057150 -0.037757
N32   N     N_R   0.525160 0.027960 0.206160 -0.038470
Ni1   Ni    Ni4+2 0.433410 0.064680 0.868830 0.207694
Ni2   Ni    Ni4+2 0.433410 0.935320 0.868830 0.207916
Ni3   Ni    Ni4+2 0.933410 0.564680 0.868830 0.207916
Ni4   Ni    Ni4+2 0.933410 0.435320 0.868830 0.207695
Ni5   Ni    Ni4+2 0.565650 0.934380 0.131170 0.209184
Ni6   Ni    Ni4+2 0.565650 0.065620 0.131170 0.209121
Ni7   Ni    Ni4+2 0.065650 0.434380 0.131170 0.209122
Ni8   Ni    Ni4+2 0.065650 0.565620 0.131170 0.209184

loop_
_geom_bond_atom_site_label_1
_geom_bond_atom_site_label_2
_ccdc_geom_bond_type
C45   H14   S    
C3    N17   A    
C65   C92   S    
C99   H50   S    
C2    N24   A    
C7    C29   S    
C42   C64   A    
N6    Ni1   S    
N9    N10   A    
C62   H26   S    
C98   N9    A    
C44   C66   A    
C16   C72   A    
C85   H44   S    
C87   N7    A    
C4    H73   S    
C80   N3    A    
C15   C94   A    
N11   Ni3   S    
N10   Ni2   S    
C20   C30   S    
N9    Ni1   S    
N11   N13   A    
C81   N4    A    
C59   C64   A    
C21   H64   S    
N28   Ni5   S    
N12   N28   A    
C53   C57   A    
C56   H20   S    
C39   N27   A    
C9    C16   A    
C103  N15   A    
C79   C93   A    
C3    H87   S    
C86   H46   S    
C57   H21   S    
C71   C76   A    
C81   C95   A    
C100  N11   A    
C34   N28   A    
C57   C59   A    
C14   C49   S    
C27   C38   S    
C49   C54   A    
C55   C62   A    
C63   C90   S    
N13   Ni4   S    
C10   C98   A    
C51   C55   A    
C61   N19   A    
C68   H28   S    
C78   H40   S    
C5    H75   S    
C30   C96   S    
C8    N25   A    
C7    H82   S    
C18   C53   S    
C43   H11   S    
C5    C27   S    
C42   H10   S    
C20   C24   S    
N16   N17   A    
C81   H43   S    
C74   C77   A    
N29   Ni6   S    
N3    Ni8   S    
C69   H29   S    
C19   H66   S    
C103  H85   S    
C19   H62   S    
C15   C51   S    
N27   Ni4   S    
C38   H6    S    
C80   H42   S    
C70   C84   A    
C36   H33   S    
C94   H58   S    
N23   Ni3   S    
C88   C97   A    
C3    C13   A    
C28   H23   S    
N5    Ni2   S    
C36   C92   A    
C28   N23   A    
N1    N29   A    
C74   H38   S    
C98   H49   S    
N7    N8    A    
C87   H47   S    
C12   C32   S    
N14   Ni5   S    
C22   H70   S    
C88   H48   S    
N2    Ni5   S    
N5    N6    A    
C64   C89   S    
C14   C50   A    
C2    C14   A    
C101  N13   A    
C12   C102  A    
C23   H88   S    
C83   N21   A    
C44   C46   A    
C40   H7    S    
C50   H53   S    
C15   C61   A    
C48   C53   A    
C55   H19   S    
C9    N26   A    
C94   N22   A    
C33   C40   S    
C22   C31   S    
C62   C66   A    
C6    H77   S    
C16   C52   S    
C41   C47   A    
C37   N31   A    
C12   C103  A    
C40   H8    S    
C8    H60   S    
C60   H25   S    
C26   H4    S    
C48   H17   S    
C102  N14   A    
N21   N25   A    
N14   N15   A    
N23   N31   A    
C73   H37   S    
N16   Ni7   S    
C101  H52   S    
C68   C73   A    
C46   C51   A    
C77   C95   S    
C102  H84   S    
C6    H80   S    
C11   C100  A    
C80   C95   A    
N17   Ni8   S    
C78   N32   A    
C35   H32   S    
C17   N12   A    
C19   C23   S    
C24   C32   S    
C5    H76   S    
C13   C33   S    
N32   Ni6   S    
C76   C93   S    
C21   C31   S    
C26   C33   S    
C34   C90   A    
N4    Ni7   S    
C45   C49   A    
C43   C65   A    
C104  H86   S    
N19   N22   A    
C18   C83   A    
N18   Ni6   S    
C69   C74   A    
C11   C101  A    
C42   C48   A    
C86   C96   A    
C13   C104  A    
C79   N2    A    
C66   C91   S    
C75   H39   S    
C86   N6    A    
C35   C89   A    
C100  H51   S    
C85   N5    A    
C47   H16   S    
C20   H68   S    
C60   C65   A    
C58   H22   S    
C32   C38   S    
C99   N10   A    
C37   H35   S    
C73   C76   A    
C24   H2    S    
C41   C63   A    
N12   Ni2   S    
C36   N30   A    
C39   C92   A    
C83   H57   S    
C4    C27   S    
N31   Ni8   S    
C25   H3    S    
N2    N32   A    
C4    H71   S    
N7    Ni4   S    
C7    H83   S    
C58   C63   A    
N18   N24   A    
C20   H63   S    
C21   C25   S    
C85   C96   A    
C1    C89   A    
N19   Ni5   S    
C37   C91   A    
C79   H41   S    
C7    H81   S    
C67   H27   S    
C17   C90   A    
C72   H55   S    
C38   H5    S    
N21   Ni7   S    
C2    H59   S    
N30   Ni7   S    
C10   C82   S    
C24   H56   S    
N15   Ni6   S    
C47   C52   A    
C31   C97   S    
C11   C84   S    
C21   H69   S    
N24   Ni1   S    
C6    H79   S    
C54   C60   A    
C68   C82   A    
C23   C32   S    
C88   N8    A    
C35   N29   A    
C9    H61   S    
C59   H24   S    
N1    Ni1   S    
C43   C45   A    
C69   C84   A    
C61   H54   S    
N27   N30   A    
C25   H67   S    
C71   H36   S    
C72   N20   A    
N20   N26   A    
C34   H31   S    
N20   Ni8   S    
C29   C40   S    
C41   H9    S    
C26   H78   S    
C56   C58   A    
C46   H15   S    
C28   C91   A    
C67   C71   A    
C104  N16   A    
C23   H45   S    
C10   C99   A    
N22   Ni2   S    
C8    C18   A    
C5    H74   S    
C39   H34   S    
C22   H65   S    
N25   Ni4   S    
C22   C26   S    
N3    N4    A    
C54   H18   S    
C6    C29   S    
C44   H13   S    
C50   N18   A    
C67   C82   A    
C29   C31   S    
C4    H72   S    
C75   C77   A    
C1    H1    S    
C70   C75   A    
C70   H30   S    
C1    N1    A    
N26   Ni3   S    
C78   C93   A    
C87   C97   A    
C19   C30   S    
N8    Ni3   S    
C52   C56   A    
C17   H12   S    
C25   C33   S    
C27   C30   S    
