data_mof_unit_5207.cif
_audit_creation_date              2013-03-05T16:33:33-0500
_audit_creation_method            fapswitch 2.2
_symmetry_space_group_name_H-M    P1
_symmetry_Int_Tables_number       1
_space_group_crystal_system       triclinic
_cell_length_a                    10.843111
_cell_length_b                    10.854213
_cell_length_c                    9.559256
_cell_angle_alpha                 89.949313
_cell_angle_beta                  89.536045
_cell_angle_gamma                 90.662507
_cell_volume                      1124.94905656

loop_
_atom_site_label
_atom_site_type_symbol
_atom_site_description
_atom_site_fract_x
_atom_site_fract_y
_atom_site_fract_z
_atom_type_partial_charge
O1    O     O_R   0.500000 0.319640 0.618810 -0.552176
O2    O     O_R   0.500010 0.319680 0.381230 -0.577349
C1    C     C_R   0.496949 0.262307 0.499942 0.812151
O3    O     O_R   0.319650 0.499970 0.618810 -0.579186
O4    O     O_R   0.319660 0.500010 0.381230 -0.598092
C2    C     C_R   0.262341 0.501032 0.500438 0.812218
Cu1   Cu    Cu3+1 0.499990 0.499980 0.640670 0.979976
Cu2   Cu    Cu3+1 0.500010 0.500020 0.359330 0.956563
O5    O     O_R   0.499990 0.680320 0.618770 -0.580342
O6    O     O_R   0.500000 0.680360 0.381190 -0.588142
O7    O     O_R   0.680340 0.499990 0.618770 -0.585054
O8    O     O_R   0.680350 0.500030 0.381190 -0.585818
C3    C     C_R   0.500228 0.737621 0.499670 0.809288
C4    C     C_R   0.737618 0.500918 0.499557 0.790696
C5    C     C_R   0.062172 0.505139 0.626140 0.112138
C6    C     C_R   0.129174 0.510415 0.500795 -0.091541
C7    C     C_R   0.065774 0.529401 0.374999 -0.201470
H1    H     H_    0.114780 0.539560 0.276400 0.161082
C8    C     C_R   0.937314 0.528432 0.374294 -0.207118
H2    H     H_    0.890782 0.536598 0.275383 0.155588
C9    C     C_R   0.870913 0.509750 0.499364 -0.089651
C10   C     C_R   0.934951 0.504587 0.625193 0.114736
C11   C     C_3   0.925891 0.410065 0.738535 -0.465208
C12   C     C_3   0.065550 0.410996 0.740220 -0.421870
H3    H     H_    0.884428 0.446922 0.836296 0.195375
H4    H     H_    0.885330 0.321277 0.701977 0.202604
H5    H     H_    0.103092 0.449297 0.838988 0.188897
H6    H     H_    0.106154 0.322523 0.705291 0.238741
C13   C     C_R   0.454149 0.061978 0.618273 0.104507
C14   C     C_R   0.485470 0.128938 0.497827 -0.170234
C15   C     C_R   0.502409 0.064482 0.371586 -0.179838
H7    H     H_    0.521464 0.112729 0.274703 0.206983
C16   C     C_R   0.504135 0.936087 0.371086 -0.184322
H8    H     H_    0.521718 0.889038 0.273232 0.171295
C17   C     C_R   0.491929 0.870679 0.497493 -0.098988
C18   C     C_R   0.461810 0.935352 0.618497 0.074049
C19   C     C_3   0.517230 0.932204 0.760719 -0.544230
C20   C     C_3   0.501032 0.071358 0.764496 0.322330
H9    H     H_    0.460335 0.878080 0.836293 0.245500
H10   H     H_    0.616055 0.906236 0.756482 0.157724
H11   H     H_    0.588831 0.124700 0.772914 0.085284
C21   C     C_R   0.605392 0.527103 0.072724 0.274914
N1    N     N_R   0.500790 0.500930 0.147930 -0.190280
C22   C     C_R   0.397790 0.466757 0.075123 -0.055633
H12   H     H_    0.314426 0.440003 0.130386 0.135807
C23   C     C_R   0.397647 0.467793 0.926874 0.029312
H13   H     H_    0.314100 0.443755 0.873004 0.163516
N2    N     N_R   0.500790 0.500890 0.852020 -0.194996
C24   C     C_R   0.605598 0.526219 0.925129 0.260912
C25   C     C_3   0.676597 0.644310 0.917981 -0.511490
C26   C     C_3   0.675458 0.646136 0.076306 -0.506268
H14   H     H_    0.770184 0.632919 0.872140 0.198779
H15   H     H_    0.622323 0.719321 0.871357 0.217835
H16   H     H_    0.768797 0.636568 0.120994 0.190835
H17   H     H_    0.620522 0.722709 0.120916 0.215376
S1    S     S_3+6 0.381960 0.120509 0.882828 -0.009133
O9    O     O_2   0.305424 0.216540 0.812695 -0.326023
O10   O     O_2   0.299330 0.014525 0.925467 -0.293576
O11   O     O_3   0.448181 0.181083 0.025668 -0.560541
H18   H     H_    0.378774 0.197176 0.090894 0.363560

loop_
_geom_bond_atom_site_label_1
_geom_bond_atom_site_label_2
_geom_bond_distance
_ccdc_geom_bond_type
C13   C20   1.494370 S    
C1    C14   1.451693 S    
C25   H14   1.110354 S    
C11   C12   1.514469 S    
Cu2   N1    2.020790 S    
C3    C17   1.448228 S    
C19   C20   1.523027 S    
O4    Cu2   1.965041 S    
C15   H7    1.080824 S    
C17   C18   1.392127 A    
S1    O11   1.678941 S    
Cu2   O8    1.968261 S    
C21   C26   1.491795 S    
N1    C22   1.368495 A    
C26   H16   1.107668 S    
Cu1   N2    2.020470 S    
C15   C16   1.393974 A    
C7    H1    1.083165 S    
O8    C4    1.295087 A    
O11   H18   0.990604 S    
C19   H9    1.109629 S    
O1    Cu1   1.968756 S    
C9    C10   1.395135 A    
C22   H12   1.080002 S    
Cu1   O7    1.965041 S    
C13   C18   1.377895 A    
C13   C14   1.398464 A    
C18   C19   1.491384 S    
O3    Cu1   1.968261 S    
C12   H5    1.110383 S    
C4    C9    1.447387 S    
O3    C2    1.295455 A    
N2    C24   1.364365 A    
C8    C9    1.403981 A    
C16   H8    1.082756 S    
C25   C26   1.513568 S    
C19   H10   1.111606 S    
C26   H17   1.111510 S    
C11   H3    1.110633 S    
O4    C2    1.293701 A    
O7    C4    1.293388 A    
C23   N2    1.367174 A    
C25   H15   1.105688 S    
C21   N1    1.364901 A    
C21   C24   1.410926 A    
C2    C6    1.448686 S    
C5    C6    1.396997 A    
C7    C8    1.392893 A    
C12   H6    1.111517 S    
Cu1   Cu2   2.689399 S    
C20   S1    1.795682 S    
S1    O9    1.500807 D    
C20   H11   1.112023 S    
Cu2   O6    1.968756 S    
C24   C25   1.488781 S    
C11   H4    1.112483 S    
O2    Cu2   1.968426 S    
Cu1   O5    1.968429 S    
O5    C3    1.296802 A    
C10   C11   1.493358 S    
C5    C12   1.494760 S    
O2    C1    1.293961 A    
C22   C23   1.417195 A    
C16   C17   1.405484 A    
C23   H13   1.075291 S    
C5    C10   1.379527 A    
C14   C15   1.407265 A    
C8    H2    1.079376 S    
S1    O10   1.503882 D    
C6    C7    1.406178 A    
O1    C1    1.296495 A    
O6    C3    1.292394 A    
