data_mof_unit_41800.cif
_audit_creation_date              2013-03-05T15:56:44-0500
_audit_creation_method            fapswitch 2.2
_symmetry_space_group_name_H-M    P1
_symmetry_Int_Tables_number       1
_space_group_crystal_system       triclinic
_cell_length_a                    21.069612
_cell_length_b                    21.69667
_cell_length_c                    13.906728
_cell_angle_alpha                 90.000789
_cell_angle_beta                  90.000287
_cell_angle_gamma                 89.963383
_cell_volume                      6357.32616021

loop_
_atom_site_label
_atom_site_type_symbol
_atom_site_description
_atom_site_fract_x
_atom_site_fract_y
_atom_site_fract_z
_atom_type_partial_charge
O1    O     O_R   0.064880 0.435140 0.582280 -0.599430
O2    O     O_R   0.935120 0.564860 0.417720 -0.536524
O3    O     O_R   0.935120 0.564860 0.582280 -0.599413
O4    O     O_R   0.064880 0.435140 0.417720 -0.536520
O5    O     O_R   0.935120 0.435140 0.417720 -0.604220
O6    O     O_R   0.064880 0.564860 0.582280 -0.536835
O7    O     O_R   0.064880 0.564860 0.417720 -0.604199
O8    O     O_R   0.935120 0.435140 0.582280 -0.536853
O9    O     O_R   0.564880 0.935140 0.582280 -0.602427
O10   O     O_R   0.435120 0.064860 0.417720 -0.539241
O11   O     O_R   0.435120 0.064860 0.582280 -0.602425
O12   O     O_R   0.564880 0.935140 0.417720 -0.539233
O13   O     O_R   0.435120 0.935140 0.417720 -0.599847
O14   O     O_R   0.564880 0.064860 0.582280 -0.537253
O15   O     O_R   0.564880 0.064860 0.417720 -0.599838
O16   O     O_R   0.435120 0.935140 0.582280 -0.537251
C1    C     C_R   0.085476 0.414101 0.500139 0.884041
C2    C     C_R   0.914523 0.585899 0.500140 0.884160
C3    C     C_R   0.913715 0.415264 0.499582 0.896163
C4    C     C_R   0.086287 0.584734 0.499584 0.896237
C5    C     C_R   0.586547 0.915277 0.499967 0.900028
C6    C     C_R   0.413456 0.084726 0.499968 0.900025
C7    C     C_R   0.412574 0.915943 0.499849 0.893484
C8    C     C_R   0.587424 0.084059 0.499850 0.893480
Cu1   Cu    Cu3+1 0.000000 0.500000 0.597420 0.992595
Cu2   Cu    Cu3+1 0.000000 0.500000 0.402580 1.009196
Cu3   Cu    Cu3+1 0.500000 0.000000 0.597420 1.018520
Cu4   Cu    Cu3+1 0.500000 0.000000 0.402580 0.996673
C9    C     C_R   0.121531 0.689611 0.452697 0.382795
C10   C     C_R   0.878460 0.310395 0.452654 0.382787
C11   C     C_R   0.879323 0.691627 0.455050 0.424629
C12   C     C_R   0.120685 0.308383 0.455006 0.424657
C13   C     C_R   0.622803 0.190450 0.536936 0.457015
C14   C     C_R   0.377200 0.809549 0.536915 0.457002
C15   C     C_R   0.379995 0.192522 0.532457 0.383871
C16   C     C_R   0.620006 0.807479 0.532435 0.383892
C17   C     C_R   0.134587 0.633271 0.498185 -0.283251
C18   C     C_R   0.865414 0.366728 0.498177 -0.283289
C19   C     C_R   0.865908 0.634848 0.499001 -0.299710
C20   C     C_R   0.134090 0.365152 0.498998 -0.299730
C21   C     C_R   0.637560 0.131759 0.501058 -0.305253
C22   C     C_R   0.362437 0.868243 0.501056 -0.305245
C23   C     C_R   0.364947 0.133524 0.498548 -0.281869
C24   C     C_R   0.635057 0.866479 0.498544 -0.281881
C25   C     C_R   0.193941 0.622729 0.540606 0.420386
C26   C     C_R   0.806065 0.377267 0.540612 0.420449
C27   C     C_R   0.806402 0.625664 0.541781 0.420629
C28   C     C_R   0.193589 0.374329 0.541808 0.420670
C29   C     C_R   0.698723 0.120427 0.464495 0.404437
C30   C     C_R   0.301267 0.879577 0.464519 0.404409
C31   C     C_R   0.304286 0.121371 0.460833 0.412295
C32   C     C_R   0.695720 0.878634 0.460835 0.412263
C33   C     C_R   0.236326 0.672263 0.554121 -0.103970
C34   C     C_R   0.763681 0.327732 0.554126 -0.103987
C35   C     C_R   0.756181 0.666619 0.522709 -0.111471
C36   C     C_R   0.243813 0.333378 0.522740 -0.111488
C37   C     C_R   0.747680 0.163865 0.479229 -0.115953
C38   C     C_R   0.252311 0.836140 0.479267 -0.115934
C39   C     C_R   0.261209 0.170244 0.443878 -0.094574
C40   C     C_R   0.738798 0.829760 0.443881 -0.094562
C41   C     C_R   0.221630 0.730343 0.514001 -0.153807
C42   C     C_R   0.778369 0.269657 0.513980 -0.153830
C43   C     C_R   0.769474 0.723467 0.477780 -0.162778
C44   C     C_R   0.230528 0.276535 0.477787 -0.162800
C45   C     C_R   0.732832 0.222178 0.517262 -0.167454
C46   C     C_R   0.267167 0.777822 0.517277 -0.167450
C47   C     C_R   0.276695 0.229664 0.478138 -0.154458
C48   C     C_R   0.723309 0.770339 0.478127 -0.154463
C49   C     C_R   0.162860 0.740173 0.466353 -0.123780
C50   C     C_R   0.837127 0.259834 0.466295 -0.123758
C51   C     C_R   0.830438 0.735245 0.440325 -0.131515
C52   C     C_R   0.169571 0.264762 0.440301 -0.131488
C53   C     C_R   0.671170 0.234324 0.552450 -0.115188
C54   C     C_R   0.328835 0.765673 0.552436 -0.115182
C55   C     C_R   0.337409 0.241695 0.517079 -0.124182
C56   C     C_R   0.662590 0.758307 0.517050 -0.124182
C57   C     C_R   0.292466 0.665351 0.608500 0.375207
C58   C     C_R   0.707548 0.334642 0.608523 0.375209
C59   C     C_R   0.693505 0.652389 0.550794 0.393032
C60   C     C_R   0.306485 0.347606 0.550852 0.393031
C61   C     C_R   0.810806 0.150800 0.452540 0.414044
C62   C     C_R   0.189177 0.849209 0.452622 0.414047
C63   C     C_R   0.203264 0.160685 0.394188 0.388202
C64   C     C_R   0.796747 0.839320 0.394202 0.388206
C65   C     C_R   0.853607 0.199588 0.435854 0.377040
C66   C     C_R   0.146365 0.800425 0.435963 0.376966
C67   C     C_R   0.158419 0.209358 0.389602 0.393008
C68   C     C_R   0.841596 0.790648 0.389633 0.392983
C69   C     C_R   0.341315 0.709763 0.600805 0.398309
C70   C     C_R   0.658698 0.290230 0.600834 0.398318
C71   C     C_R   0.645638 0.696986 0.538062 0.400971
C72   C     C_R   0.354356 0.303014 0.538116 0.400958
C73   C     C_R   0.046312 0.530904 0.796744 0.531680
C74   C     C_R   0.943310 0.497033 0.206082 0.570724
C75   C     C_R   0.953690 0.469094 0.796742 0.531684
C76   C     C_R   0.056690 0.502962 0.206085 0.570796
C77   C     C_R   0.556462 0.996769 0.794435 0.582636
C78   C     C_R   0.454177 0.031882 0.203390 0.532952
C79   C     C_R   0.443538 0.003231 0.794434 0.582631
C80   C     C_R   0.545822 0.968117 0.203389 0.532942
N1    N     N_R   1.000000 0.500000 0.743810 -0.282925
N2    N     N_R   0.000000 0.500000 0.256190 -0.274441
N3    N     N_R   0.500000 0.000000 0.743810 -0.272092
N4    N     N_R   0.500000 0.000000 0.256190 -0.281387
C81   C     C_R   0.951550 0.470732 0.900049 -0.201759
C82   C     C_R   0.055456 0.514739 0.104892 -0.185366
C83   C     C_R   0.048454 0.529263 0.900052 -0.201761
C84   C     C_R   0.944546 0.485256 0.104889 -0.185391
C85   C     C_R   0.444966 0.015644 0.895398 -0.177738
C86   C     C_R   0.548010 0.969836 0.100122 -0.201615
C87   C     C_R   0.555034 0.984356 0.895398 -0.177733
C88   C     C_R   0.451989 0.030164 0.100122 -0.201609
C89   C     C_R   0.000002 0.499997 0.950973 -0.139784
C90   C     C_R   0.000001 0.499998 0.053749 -0.132480
C91   C     C_R   0.500000 0.000001 0.946619 -0.133473
C92   C     C_R   0.500000 0.000001 0.049323 -0.135371
C93   C     C_R   0.901604 0.443812 0.954693 0.412235
C94   C     C_R   0.106989 0.539922 0.052581 0.404836
C95   C     C_R   0.098400 0.556182 0.954699 0.412219
C96   C     C_R   0.893014 0.460073 0.052574 0.404837
C97   C     C_R   0.393972 0.042131 0.947289 0.406458
C98   C     C_R   0.597175 0.941672 0.045160 0.406142
C99   C     C_R   0.606026 0.957866 0.947288 0.406461
C100  C     C_R   0.402822 0.058324 0.045162 0.406144
O17   O     O_3   0.066631 0.695469 0.398821 -0.499280
C101  C     C_3   0.080199 0.686831 0.300142 -0.141750
H1    H     H_    0.129784 0.698802 0.279091 0.094216
H2    H     H_    0.047779 0.716429 0.257605 0.172421
H3    H     H_    0.069371 0.638882 0.278898 0.153001
O18   O     O_3   0.933345 0.304543 0.398742 -0.499320
C102  C     C_3   0.919768 0.313274 0.300081 -0.141782
H4    H     H_    0.930835 0.361179 0.278869 0.153256
H5    H     H_    0.870112 0.301555 0.279064 0.094112
H6    H     H_    0.952018 0.283543 0.257480 0.172313
O19   O     O_3   0.941914 0.708899 0.443230 -0.487426
C103  C     C_3   0.962243 0.736287 0.530485 -0.155038
H7    H     H_    0.968845 0.700677 0.587152 0.116249
H8    H     H_    0.929110 0.772793 0.556271 0.097983
H9    H     H_    0.008451 0.759272 0.519319 0.233577
O20   O     O_3   0.058099 0.291117 0.443114 -0.487447
C104  C     C_3   0.037708 0.263762 0.530360 -0.155071
H10   H     H_    0.030902 0.299419 0.586896 0.116520
H11   H     H_    0.070901 0.227377 0.556388 0.097690
H12   H     H_    0.991592 0.240629 0.519064 0.233659
O21   O     O_3   0.559986 0.208460 0.538421 -0.484826
C105  C     C_3   0.544982 0.230685 0.445312 -0.199480
H13   H     H_    0.555439 0.196198 0.388119 0.114486
H14   H     H_    0.570450 0.274484 0.429926 0.111699
H15   H     H_    0.493633 0.240097 0.440598 0.228856
O22   O     O_3   0.440018 0.791541 0.538383 -0.484824
C106  C     C_3   0.455014 0.769325 0.445266 -0.199443
H16   H     H_    0.444544 0.803813 0.388082 0.114480
H17   H     H_    0.429552 0.725522 0.429878 0.111702
H18   H     H_    0.506365 0.759922 0.440537 0.228845
O23   O     O_3   0.436105 0.201131 0.582267 -0.502179
C107  C     C_3   0.423162 0.202815 0.681792 -0.142982
H19   H     H_    0.397649 0.160848 0.706047 0.110765
H20   H     H_    0.395652 0.244612 0.701780 0.122933
H21   H     H_    0.468930 0.204615 0.721109 0.200587
O24   O     O_3   0.563893 0.798867 0.582234 -0.502170
C108  C     C_3   0.576830 0.797177 0.681761 -0.142984
H22   H     H_    0.602335 0.839145 0.706028 0.110775
H23   H     H_    0.604344 0.755381 0.701743 0.122911
H24   H     H_    0.531059 0.795368 0.721070 0.200600
O25   O     O_3   0.212234 0.562477 0.558479 -0.559566
C109  C     C_3   0.256060 0.543322 0.487310 -0.224499
H25   H     H_    0.305381 0.552862 0.510931 0.197456
H26   H     H_    0.247919 0.564917 0.415574 0.070837
H27   H     H_    0.251625 0.492849 0.477512 0.214847
O26   O     O_3   0.787771 0.437518 0.558488 -0.559564
C110  C     C_3   0.743937 0.456669 0.487325 -0.224461
H28   H     H_    0.694619 0.447137 0.510964 0.197461
H29   H     H_    0.752066 0.435065 0.415592 0.070821
H30   H     H_    0.748377 0.507140 0.477511 0.214885
O27   O     O_3   0.799475 0.581638 0.612308 -0.535164
C111  C     C_3   0.806211 0.610976 0.702956 -0.333580
H31   H     H_    0.784286 0.657691 0.707041 0.138775
H32   H     H_    0.857234 0.614355 0.722430 0.160854
H33   H     H_    0.781603 0.582936 0.758059 0.166651
O28   O     O_3   0.200506 0.418349 0.612348 -0.535154
C112  C     C_3   0.193747 0.389006 0.702986 -0.333585
H34   H     H_    0.215660 0.342285 0.707068 0.138771
H35   H     H_    0.142720 0.385639 0.722440 0.160887
H36   H     H_    0.218354 0.417034 0.758105 0.166636
O29   O     O_3   0.708587 0.070991 0.403863 -0.523860
C113  C     C_3   0.710981 0.093038 0.307794 -0.280554
H37   H     H_    0.737735 0.136813 0.298219 0.131377
H38   H     H_    0.662105 0.099612 0.279526 0.136408
H39   H     H_    0.736034 0.058499 0.262987 0.181135
O30   O     O_3   0.291391 0.929020 0.403905 -0.523867
C114  C     C_3   0.288967 0.906982 0.307833 -0.280494
H40   H     H_    0.262185 0.863223 0.298260 0.131390
H41   H     H_    0.337834 0.900381 0.279543 0.136353
H42   H     H_    0.263927 0.941537 0.263043 0.181147
O31   O     O_3   0.284820 0.060695 0.453758 -0.538762
C115  C     C_3   0.246303 0.046821 0.534325 -0.242667
H43   H     H_    0.196297 0.059224 0.520392 0.165445
H44   H     H_    0.261354 0.070700 0.601476 0.076644
H45   H     H_    0.248350 0.996624 0.548009 0.208897
O32   O     O_3   0.715183 0.939311 0.453752 -0.538769
C116  C     C_3   0.753703 0.953192 0.534314 -0.242675
H46   H     H_    0.803710 0.940794 0.520377 0.165450
H47   H     H_    0.738657 0.929316 0.601468 0.076646
H48   H     H_    0.751652 0.003391 0.547992 0.208866
O33   O     O_3   0.299041 0.615578 0.669948 -0.564936
C117  C     C_3   0.287636 0.635785 0.764907 -0.307159
H49   H     H_    0.240249 0.658150 0.771722 0.173461
H50   H     H_    0.325357 0.667694 0.790162 0.185324
H51   H     H_    0.288139 0.595123 0.813272 0.178413
O34   O     O_3   0.700981 0.384412 0.669980 -0.564961
C118  C     C_3   0.712400 0.364200 0.764933 -0.307165
H52   H     H_    0.759793 0.341844 0.771729 0.173494
H53   H     H_    0.674689 0.332282 0.790191 0.185323
H54   H     H_    0.711895 0.404858 0.813306 0.178426
O35   O     O_3   0.678757 0.592675 0.579331 -0.554292
C119  C     C_3   0.648187 0.592571 0.669840 -0.229252
H55   H     H_    0.595918 0.594151 0.660548 0.175339
H56   H     H_    0.664041 0.630646 0.718032 0.110819
H57   H     H_    0.659596 0.548567 0.706644 0.184975
O36   O     O_3   0.321227 0.407317 0.579416 -0.554253
C120  C     C_3   0.351781 0.407409 0.669938 -0.229221
H58   H     H_    0.404052 0.405822 0.660669 0.175344
H59   H     H_    0.335912 0.369330 0.718112 0.110803
H60   H     H_    0.340371 0.451411 0.706749 0.184964
O37   O     O_3   0.829965 0.090318 0.439943 -0.542874
C121  C     C_3   0.866981 0.072828 0.520052 -0.354021
H61   H     H_    0.839392 0.076607 0.588095 0.140375
H62   H     H_    0.911355 0.100321 0.525332 0.188233
H63   H     H_    0.881346 0.024015 0.511313 0.161343
O38   O     O_3   0.170019 0.909693 0.440043 -0.542896
C122  C     C_3   0.133036 0.927189 0.520183 -0.354161
H64   H     H_    0.160652 0.923413 0.588202 0.140419
H65   H     H_    0.088664 0.899696 0.525508 0.188246
H66   H     H_    0.118667 0.976001 0.511450 0.161354
O39   O     O_3   0.196573 0.107224 0.339459 -0.558182
C123  C     C_3   0.136463 0.079179 0.350807 -0.213753
H67   H     H_    0.105532 0.090994 0.288903 0.183726
H68   H     H_    0.112279 0.091054 0.419659 0.128844
H69   H     H_    0.143064 0.028467 0.349672 0.200344
O40   O     O_3   0.803436 0.892777 0.339465 -0.558171
C124  C     C_3   0.863548 0.920821 0.350796 -0.213782
H70   H     H_    0.894477 0.908992 0.288896 0.183711
H71   H     H_    0.887732 0.908961 0.419653 0.128850
H72   H     H_    0.856950 0.971533 0.349635 0.200350
O41   O     O_3   0.913990 0.187641 0.400218 -0.541045
C125  C     C_3   0.910532 0.161044 0.307512 -0.239775
H73   H     H_    0.871238 0.180394 0.263065 0.104091
H74   H     H_    0.906470 0.110183 0.312163 0.190173
H75   H     H_    0.955624 0.170778 0.269289 0.178297
O42   O     O_3   0.085960 0.812374 0.400410 -0.541068
C126  C     C_3   0.089352 0.839048 0.307753 -0.239438
H76   H     H_    0.128702 0.819839 0.263268 0.104016
H77   H     H_    0.093272 0.889915 0.312513 0.190135
H78   H     H_    0.044290 0.829226 0.269503 0.178296
O43   O     O_3   0.103548 0.202468 0.336032 -0.539255
C127  C     C_3   0.113705 0.228374 0.244341 -0.263261
H79   H     H_    0.153310 0.204830 0.206078 0.153954
H80   H     H_    0.122926 0.278792 0.249048 0.173567
H81   H     H_    0.070077 0.221958 0.200844 0.159577
O44   O     O_3   0.896474 0.797536 0.336081 -0.539289
C128  C     C_3   0.886334 0.771620 0.244392 -0.263426
H82   H     H_    0.846727 0.795151 0.206114 0.153991
H83   H     H_    0.877124 0.721200 0.249106 0.173597
H84   H     H_    0.929965 0.778042 0.200905 0.159508
O45   O     O_3   0.398155 0.703274 0.650628 -0.543603
C129  C     C_3   0.428819 0.647452 0.626522 -0.197444
H85   H     H_    0.419904 0.632518 0.551038 0.108519
H86   H     H_    0.415224 0.610422 0.677453 0.175120
H87   H     H_    0.480559 0.654169 0.635160 0.220824
O46   O     O_3   0.601864 0.296717 0.650675 -0.543602
C130  C     C_3   0.571198 0.352540 0.626588 -0.197435
H88   H     H_    0.580108 0.367483 0.551109 0.108511
H89   H     H_    0.584794 0.389565 0.677530 0.175116
H90   H     H_    0.519458 0.345820 0.635229 0.220817
O47   O     O_3   0.582374 0.680464 0.543101 -0.553214
C131  C     C_3   0.566634 0.647812 0.458409 -0.366234
H91   H     H_    0.589115 0.601494 0.457125 0.192530
H92   H     H_    0.579666 0.674077 0.392433 0.145094
H93   H     H_    0.514661 0.640577 0.456418 0.164053
O48   O     O_3   0.417618 0.319539 0.543177 -0.553219
C132  C     C_3   0.433365 0.352204 0.458503 -0.366231
H94   H     H_    0.410887 0.398524 0.457239 0.192536
H95   H     H_    0.420335 0.325952 0.392512 0.145083
H96   H     H_    0.485339 0.359437 0.456522 0.164054
O49   O     O_3   0.091872 0.565124 0.750890 -0.555924
C133  C     C_3   0.146644 0.528690 0.740980 -0.077023
H97   H     H_    0.142134 0.501127 0.675266 0.248683
H98   H     H_    0.156718 0.498538 0.803974 0.072868
H99   H     H_    0.187895 0.559438 0.733187 0.233801
O50   O     O_3   0.890558 0.526968 0.243486 -0.572057
C134  C     C_3   0.847320 0.486342 0.287756 -0.161169
H100  H     H_    0.844917 0.496699 0.365460 0.163039
H101  H     H_    0.857354 0.436629 0.276691 0.152566
H102  H     H_    0.799075 0.496136 0.260126 0.151727
O51   O     O_3   0.908125 0.434881 0.750887 -0.555911
C135  C     C_3   0.853357 0.471323 0.740982 -0.077065
H103  H     H_    0.812101 0.440583 0.733190 0.233828
H104  H     H_    0.857871 0.498886 0.675270 0.248677
H105  H     H_    0.843291 0.501477 0.803980 0.072825
O52   O     O_3   0.109435 0.473011 0.243481 -0.572068
C136  C     C_3   0.152685 0.513622 0.287761 -0.161198
H106  H     H_    0.155076 0.503268 0.365465 0.163039
H107  H     H_    0.142673 0.563338 0.276692 0.152584
H108  H     H_    0.200928 0.503809 0.260140 0.151697
O53   O     O_3   0.608989 0.027457 0.758663 -0.570727
C137  C     C_3   0.651851 0.987300 0.713091 -0.168786
H109  H     H_    0.653485 0.998656 0.635834 0.169007
H110  H     H_    0.641562 0.937429 0.722572 0.158228
H111  H     H_    0.700216 0.996642 0.740610 0.148470
O54   O     O_3   0.410653 0.068837 0.249129 -0.555264
C138  C     C_3   0.353480 0.036052 0.260111 -0.087623
H112  H     H_    0.356523 0.007555 0.325340 0.232451
H113  H     H_    0.341014 0.006709 0.197165 0.080379
H114  H     H_    0.314308 0.069610 0.269375 0.235819
O55   O     O_3   0.391012 0.972541 0.758662 -0.570730
C139  C     C_3   0.348149 0.012696 0.713089 -0.168782
H115  H     H_    0.346518 0.001342 0.635831 0.169013
H116  H     H_    0.358435 0.062568 0.722575 0.158223
H117  H     H_    0.299783 0.003352 0.740603 0.148464
O56   O     O_3   0.589342 0.931156 0.249127 -0.555280
C140  C     C_3   0.646522 0.963930 0.260106 -0.087573
H118  H     H_    0.643488 0.992424 0.325340 0.232480
H119  H     H_    0.658989 0.993274 0.197162 0.080382
H120  H     H_    0.685688 0.930364 0.269358 0.235797
O57   O     O_3   0.858977 0.403307 0.913338 -0.566358
C141  C     C_3   0.881602 0.342872 0.927848 -0.267383
H121  H     H_    0.884070 0.331363 0.005783 0.151940
H122  H     H_    0.928790 0.336043 0.893368 0.157647
H123  H     H_    0.847991 0.310167 0.893796 0.166206
O58   O     O_3   0.161640 0.558465 0.099162 -0.585960
C142  C     C_3   0.213008 0.522300 0.066044 -0.322089
H124  H     H_    0.224506 0.531824 0.989525 0.187680
H125  H     H_    0.203727 0.472199 0.076426 0.159828
H126  H     H_    0.255749 0.534240 0.108701 0.163483
O59   O     O_3   0.141029 0.596685 0.913348 -0.566370
C143  C     C_3   0.118407 0.657121 0.927859 -0.267364
H127  H     H_    0.115942 0.668632 0.005794 0.151946
H128  H     H_    0.071219 0.663953 0.893380 0.157653
H129  H     H_    0.152020 0.689825 0.893806 0.166215
O60   O     O_3   0.838361 0.441530 0.099150 -0.585960
C144  C     C_3   0.786994 0.477695 0.066029 -0.322080
H130  H     H_    0.775503 0.468176 0.989506 0.187668
H131  H     H_    0.796273 0.527796 0.076424 0.159837
H132  H     H_    0.744250 0.465752 0.108675 0.163482
O61   O     O_3   0.340068 0.062150 0.900082 -0.586889
C145  C     C_3   0.287439 0.027850 0.933283 -0.316827
H133  H     H_    0.275685 0.038635 0.009291 0.197716
H134  H     H_    0.295302 0.977379 0.924533 0.159763
H135  H     H_    0.245390 0.040489 0.889511 0.162460
O62   O     O_3   0.638593 0.899744 0.085970 -0.557926
C146  C     C_3   0.613876 0.840092 0.071728 -0.240345
H136  H     H_    0.610993 0.828580 0.993834 0.149365
H137  H     H_    0.566488 0.834881 0.106253 0.154097
H138  H     H_    0.646377 0.806352 0.105931 0.173564
O63   O     O_3   0.659928 0.937841 0.900080 -0.586889
C147  C     C_3   0.712562 0.972133 0.933286 -0.316835
H139  H     H_    0.724316 0.961341 0.009292 0.197724
H140  H     H_    0.704705 0.022606 0.924547 0.159754
H141  H     H_    0.754609 0.959491 0.889510 0.162460
O64   O     O_3   0.361398 0.100245 0.085977 -0.557915
C148  C     C_3   0.386105 0.159901 0.071738 -0.240341
H142  H     H_    0.388984 0.171414 0.993845 0.149363
H143  H     H_    0.433493 0.165118 0.106261 0.154093
H144  H     H_    0.353599 0.193636 0.105946 0.173564

loop_
_geom_bond_atom_site_label_1
_geom_bond_atom_site_label_2
_geom_bond_distance
_ccdc_geom_bond_type
C79   N3    1.384078 A    
C101  H1    1.115789 S    
C76   N2    1.384365 A    
C74   O50   1.388109 S    
C134  H100  1.104871 S    
C14   C22   1.402374 A    
C119  H57   1.109498 S    
O21   C105  1.417350 S    
C136  H106  1.104868 S    
C132  H96   1.106698 S    
C110  H29   1.115389 S    
C57   C69   1.414404 A    
C88   C100  1.424729 A    
C38   C62   1.409505 A    
O6    Cu1   1.973782 S    
C130  H88   1.114569 S    
C127  H81   1.109234 S    
C80   N4    1.396051 A    
C10   C18   1.403479 A    
C98   O62   1.382083 S    
C84   C96   1.416842 A    
C83   C89   1.395593 A    
C111  H33   1.107513 S    
C78   O54   1.373866 S    
C141  H121  1.113420 S    
O41   C125  1.414379 S    
C82   C94   1.416839 A    
C8    C21   1.479401 S    
C70   O46   1.390670 S    
C21   C29   1.406859 A    
C108  H23   1.111280 S    
C9    C49   1.413877 A    
C112  H35   1.111075 S    
C148  H144  1.109250 S    
C95   O59   1.382286 S    
O58   C142  1.413541 S    
C114  H40   1.112750 S    
C126  H76   1.115049 S    
O20   C104  1.417502 S    
C104  H12   1.105130 S    
C73   N1    1.394431 A    
C117  H49   1.113870 S    
C115  H43   1.104391 S    
C101  H3    1.105416 S    
C147  H141  1.109215 S    
O10   C6    1.304671 A    
C139  H115  1.102819 S    
C60   C72   1.408361 A    
O35   C119  1.413930 S    
C57   O33   1.383997 S    
Cu4   N4    2.035806 S    
O63   C147  1.413394 S    
O11   Cu3   1.972536 S    
C141  H123  1.109028 S    
C137  H109  1.102822 S    
O2    Cu2   1.972533 S    
C77   N3    1.384074 A    
C13   C53   1.411543 A    
C135  H103  1.101329 S    
C63   O39   1.394535 S    
C16   C24   1.400690 A    
C17   C25   1.401385 A    
C86   C92   1.396346 A    
C12   C20   1.404121 A    
O52   C136  1.409597 S    
C19   C27   1.402113 A    
C105  H13   1.113914 S    
C136  H108  1.107162 S    
C20   C28   1.402114 A    
C133  H99   1.101335 S    
C64   C68   1.418056 A    
C143  H127  1.113419 S    
C107  H20   1.111279 S    
O18   C102  1.414264 S    
C114  H42   1.108130 S    
C31   O31   1.382639 S    
Cu2   N2    2.035806 S    
C133  H98   1.113702 S    
C85   C97   1.415828 A    
C122  H66   1.107976 S    
C106  H17   1.112407 S    
O62   C146  1.409391 S    
O59   C143  1.409437 S    
C74   N2    1.384369 A    
C140  H118  1.099645 S    
O64   C148  1.409390 S    
O23   C107  1.411149 S    
C113  H37   1.112754 S    
C97   O61   1.381635 S    
O30   C114  1.419961 S    
C9    O17   1.383952 S    
C146  H136  1.113332 S    
C28   C36   1.406545 A    
O9    C5    1.305457 A    
O15   Cu4   1.973776 S    
C146  H138  1.109250 S    
C42   C50   1.420397 A    
O7    Cu2   1.973776 S    
C139  H117  1.107354 S    
C81   C89   1.395591 A    
C134  H101  1.109714 S    
C15   O23   1.382970 S    
C53   C70   1.411622 A    
C128  H82   1.113498 S    
O26   C110  1.415807 S    
C91   C92   1.428290 A    
C46   C54   1.412929 A    
C29   C37   1.412597 A    
C123  H67   1.109665 S    
O13   C7    1.305338 A    
C124  H70   1.109663 S    
O14   C8    1.309006 A    
C32   C40   1.415126 A    
C39   C47   1.412818 A    
C33   C41   1.412317 A    
C135  H105  1.113707 S    
C127  H80   1.113081 S    
C36   C44   1.410892 A    
C32   O32   1.382643 S    
C15   C23   1.400694 A    
C58   O34   1.383998 S    
C59   C71   1.408361 A    
C24   C32   1.406646 A    
O16   Cu3   1.973779 S    
C11   C51   1.413215 A    
C25   C33   1.410350 A    
C65   O41   1.389595 S    
C116  H47   1.114114 S    
O38   C122  1.411737 S    
C143  H129  1.109028 S    
O36   C120  1.413928 S    
C144  H131  1.114003 S    
O8    C3    1.308521 A    
C78   C88   1.437330 A    
O48   C132  1.413966 S    
C126  H78   1.109091 S    
Cu1   Cu2   2.709585 S    
C26   O26   1.385146 S    
C72   O48   1.382310 S    
C120  H58   1.109355 S    
C5    C24   1.471260 S    
C145  H134  1.114077 S    
C6    C23   1.471255 S    
O39   C123  1.414260 S    
C140  H120  1.107769 S    
C37   C45   1.406365 A    
C147  H140  1.114076 S    
C94   O58   1.381311 S    
C129  H86   1.108836 S    
C22   C30   1.406871 A    
O15   C8    1.305331 A    
O7    C4    1.298352 A    
O16   C7    1.309008 A    
C138  H113  1.113905 S    
C47   C55   1.413590 A    
C28   O28   1.376915 S    
C52   C67   1.413376 A    
C145  H135  1.109213 S    
C43   C48   1.406803 A    
C101  H2    1.108315 S    
C115  H45   1.106434 S    
O44   C128  1.409908 S    
C129  H87   1.106486 S    
C96   O60   1.381310 S    
C128  H84   1.109235 S    
C132  H95   1.114540 S    
C77   O53   1.384410 S    
C36   C60   1.411486 A    
C123  H69   1.109068 S    
C124  H72   1.109065 S    
C79   O55   1.384410 S    
C73   O49   1.371226 S    
C4    C17   1.465053 S    
C67   O43   1.383522 S    
O40   C124  1.414255 S    
C69   O45   1.390670 S    
C142  H126  1.109175 S    
C18   C26   1.401376 A    
C99   O63   1.381639 S    
C56   C71   1.408433 A    
C118  H54   1.109415 S    
C93   O57   1.382287 S    
C131  H91   1.110855 S    
C121  H61   1.113537 S    
O22   C106  1.417347 S    
C141  H122  1.113639 S    
C50   C65   1.416965 A    
C27   O27   1.376920 S    
C75   N1    1.394425 A    
C125  H75   1.109093 S    
C130  H90   1.106493 S    
C63   C67   1.418040 A    
C80   C86   1.437335 A    
O47   C131  1.413966 S    
C88   C92   1.396349 A    
C138  H112  1.099648 S    
C102  H6    1.108279 S    
C108  H22   1.110155 S    
C14   O22   1.379927 S    
O19   C103  1.417491 S    
C12   C52   1.413214 A    
C112  H34   1.115059 S    
C58   C70   1.414402 A    
C148  H143  1.113707 S    
O12   Cu4   1.972536 S    
C39   C63   1.418237 A    
C12   O20   1.381009 S    
C120  H60   1.109498 S    
C104  H11   1.114742 S    
C77   C87   1.429994 A    
C117  H50   1.111313 S    
C79   C85   1.429994 A    
C139  H116  1.111529 S    
O50   C134  1.409598 S    
C84   C90   1.404919 A    
C125  H73   1.115039 S    
C137  H110  1.111533 S    
C106  H16   1.113914 S    
O13   Cu4   1.973785 S    
O14   Cu3   1.973782 S    
C135  H104  1.096296 S    
C62   O38   1.383823 S    
O55   C139  1.405464 S    
O8    Cu1   1.973779 S    
C81   C93   1.423662 A    
C100  O64   1.382086 S    
C103  H9    1.105127 S    
C83   C95   1.423673 A    
C10   C50   1.413870 A    
C105  H14   1.112410 S    
C136  H107  1.109690 S    
C110  H30   1.107534 S    
C137  H111  1.107353 S    
C87   C99   1.415824 A    
C30   C38   1.412613 A    
O3    Cu1   1.972536 S    
C109  H26   1.115386 S    
C143  H128  1.113639 S    
C93   C96   1.417746 A    
O51   C135  1.405182 S    
C103  H7    1.112280 S    
O31   C115  1.415949 S    
C34   C42   1.412316 A    
O42   C126  1.414385 S    
C144  H130  1.110765 S    
C1    C20   1.475104 S    
C75   O51   1.371222 S    
C33   C57   1.411841 A    
C142  H124  1.110764 S    
C114  H41   1.111388 S    
O49   C133  1.405184 S    
C3    C18   1.465055 S    
C105  H15   1.102834 S    
C35   C59   1.411486 A    
C118  H52   1.113867 S    
C131  H93   1.106701 S    
C15   C55   1.409901 A    
C26   C34   1.410343 A    
C122  H65   1.111780 S    
O60   C144  1.413541 S    
C14   C54   1.411543 A    
O4    C1    1.307741 A    
C115  H44   1.114115 S    
O17   C101  1.414220 S    
C48   C56   1.413584 A    
C113  H38   1.111387 S    
C102  H4    1.105451 S    
C108  H24   1.109258 S    
O28   C112  1.419343 S    
O9    Cu3   1.972533 S    
C89   C90   1.429278 A    
C112  H36   1.107510 S    
O10   Cu4   1.972533 S    
O54   C138  1.407659 S    
O1    C1    1.304338 A    
C119  H56   1.115144 S    
O4    Cu2   1.972536 S    
C146  H137  1.113706 S    
O5    C3    1.298341 A    
O6    C4    1.308512 A    
C13   C21   1.402375 A    
C113  H39   1.108130 S    
C71   O47   1.382308 S    
C10   O18   1.383958 S    
C86   C98   1.424733 A    
C62   C66   1.410271 A    
Cu1   N1    2.035806 S    
O29   C113  1.419964 S    
C23   C31   1.406631 A    
Cu3   N3    2.035806 S    
C123  H68   1.114745 S    
O57   C141  1.409437 S    
C30   O30   1.379994 S    
C68   O44   1.383523 S    
O5    Cu2   1.973785 S    
C40   C48   1.412817 A    
O53   C137  1.405465 S    
C9    C17   1.403458 A    
O46   C130  1.412688 S    
C25   O25   1.385147 S    
C34   C58   1.411841 A    
C66   O42   1.389624 S    
C110  H28   1.109456 S    
O25   C109  1.415804 S    
O2    C2    1.307748 A    
C116  H46   1.104389 S    
C2    C19   1.475115 S    
O33   C117  1.411991 S    
C74   C84   1.430514 A    
C7    C22   1.479421 S    
C61   O37   1.383829 S    
C82   C90   1.404917 A    
C54   C69   1.411628 A    
C107  H19   1.110150 S    
C133  H97   1.096296 S    
C126  H77   1.108779 S    
C45   C53   1.412928 A    
O3    C2    1.304338 A    
C76   O52   1.388110 S    
C106  H18   1.102838 S    
C94   C95   1.417754 A    
C97   C100  1.418054 A    
C75   C81   1.437812 A    
C41   C46   1.408917 A    
C38   C46   1.406367 A    
O27   C111  1.419344 S    
O32   C116  1.415947 S    
C140  H119  1.113909 S    
C16   C56   1.409891 A    
O45   C129  1.412687 S    
C59   O35   1.390378 S    
O1    Cu1   1.972533 S    
C64   O40   1.394538 S    
C125  H74   1.108773 S    
C44   C47   1.406803 A    
C134  H102  1.107160 S    
C119  H55   1.109353 S    
C103  H8    1.114715 S    
C128  H83   1.113079 S    
C85   C91   1.402367 A    
C132  H94   1.110857 S    
O12   C5    1.304667 A    
C35   C43   1.410889 A    
C124  H71   1.114745 S    
C127  H79   1.113499 S    
O37   C121  1.411734 S    
C29   O29   1.379991 S    
C51   C68   1.413366 A    
C142  H125  1.114004 S    
C80   O56   1.373869 S    
C13   O21   1.379931 S    
C55   C72   1.408436 A    
C111  H31   1.115056 S    
C118  H53   1.111312 S    
C131  H92   1.114540 S    
C121  H62   1.111783 S    
C109  H25   1.109453 S    
C116  H48   1.106440 S    
C37   C61   1.409479 A    
C31   C39   1.415112 A    
O43   C127  1.409907 S    
C122  H64   1.113534 S    
C27   C35   1.406553 A    
C144  H132  1.109178 S    
C41   C49   1.420385 A    
C130  H89   1.108835 S    
C76   C82   1.430511 A    
C42   C45   1.408920 A    
C107  H21   1.109258 S    
C43   C51   1.409583 A    
C102  H5    1.115802 S    
C60   O36   1.390380 S    
C121  H63   1.107973 S    
C148  H142  1.113331 S    
O11   C6    1.305449 A    
O56   C140  1.407660 S    
C98   C99   1.418053 A    
C120  H59   1.115142 S    
C104  H10   1.112248 S    
C73   C83   1.437824 A    
C40   C64   1.418246 A    
C117  H51   1.109415 S    
C145  H133  1.110553 S    
C78   N4    1.396048 A    
C111  H32   1.111080 S    
C147  H139  1.110553 S    
C11   C19   1.404112 A    
C44   C52   1.409592 A    
O24   C108  1.411147 S    
C61   C65   1.410248 A    
C11   O19   1.381011 S    
C129  H85   1.114569 S    
C16   O24   1.382968 S    
C109  H27   1.107540 S    
O34   C118  1.411990 S    
C138  H114  1.107769 S    
Cu3   Cu4   2.709585 S    
C87   C91   1.402371 A    
O61   C145  1.413394 S    
C49   C66   1.416960 A    
