data_mof_unit_49511.cif
_audit_creation_date              2012-12-10T18:38:02-0500
_audit_creation_method            fapswitch 2.2
_symmetry_space_group_name_H-M    P1
_symmetry_Int_Tables_number       1
_space_group_crystal_system       triclinic
_cell_length_a                    14.94576
_cell_length_b                    15.279909
_cell_length_c                    27.649042
_cell_angle_alpha                 90.988971
_cell_angle_beta                  106.672785
_cell_angle_gamma                 78.624771
_cell_volume                      5924.73123613

loop_
_atom_site_label
_atom_site_type_symbol
_atom_type_description
_atom_site_fract_x
_atom_site_fract_y
_atom_site_fract_z
_atom_type_partial_charge
C1    C     C_R   0.438074 0.663569 0.491819 0.984298
C2    C     C_R   0.561641 0.336302 0.507843 0.962520
C3    C     C_R   0.525719 0.494540 0.902898 -0.055407
C4    C     C_R   0.475713 0.500345 0.097215 -0.053022
C5    C     C_R   0.524855 0.574655 0.878236 -0.023336
C6    C     C_R   0.476897 0.420221 0.121972 -0.018655
C7    C     C_R   0.525253 0.653085 0.904856 -0.089454
C8    C     C_R   0.476663 0.341720 0.095410 -0.089554
C9    C     C_R   0.536900 0.413802 0.878239 -0.082875
C10   C     C_R   0.464173 0.581151 0.121778 -0.104922
C11   C     C_R   0.509324 0.499684 0.648097 -0.039915
C12   C     C_R   0.491444 0.498415 0.351995 -0.049134
C13   C     C_R   0.478045 0.581575 0.022112 -0.090956
C14   C     C_R   0.523322 0.413243 0.977970 -0.075829
C15   C     C_R   0.500832 0.416693 0.024488 0.079993
C16   C     C_R   0.500682 0.578117 0.975647 0.082579
C17   C     C_R   0.485696 0.499606 0.047880 0.051360
C18   C     C_R   0.515733 0.495228 0.952228 0.052350
C19   C     C_R   0.444380 0.662787 0.043714 0.374037
C20   C     C_R   0.556805 0.332035 0.956294 0.345404
C21   C     C_R   0.447177 0.661736 0.094568 -0.134262
C22   C     C_R   0.553637 0.333176 0.905377 -0.165681
C23   C     C_R   0.502587 0.500276 0.594243 0.906325
C24   C     C_R   0.497560 0.499372 0.405775 0.895257
C25   C     C_R   0.517308 0.653565 0.953650 -0.095312
C26   C     C_R   0.484422 0.341216 0.046571 -0.100012
C27   C     C_R   0.394020 0.759867 0.486832 -0.350324
C28   C     C_R   0.604513 0.239570 0.513216 -0.345414
C29   C     C_R   0.289790 0.887006 0.511109 0.366840
C30   C     C_R   0.701921 0.109180 0.487067 0.389517
C31   C     C_R   0.307527 0.795846 0.498576 0.296857
C32   C     C_R   0.685547 0.201612 0.496876 0.196528
C33   C     C_R   0.448757 0.817270 0.476769 0.351924
C34   C     C_R   0.552473 0.183648 0.527963 0.364045
C35   C     C_R   0.437745 0.903940 0.494580 -0.124355
C36   C     C_R   0.562725 0.094785 0.513230 -0.136258
C37   C     C_R   0.350556 0.943247 0.503929 -0.160215
C38   C     C_R   0.647085 0.054303 0.501401 -0.154802
C39   C     C_R   0.511093 0.952905 0.502771 0.107184
C40   C     C_R   0.489986 0.045486 0.507926 0.098805
C41   C     C_R   0.394730 0.087472 0.502017 -0.244673
C42   C     C_R   0.606321 0.910643 0.508874 -0.222683
C43   C     C_R   0.324804 0.037831 0.502660 0.587259
C44   C     C_R   0.674256 0.959971 0.504958 0.576836
C45   C     C_R   0.526164 0.573572 0.827852 0.539655
C46   C     C_R   0.475724 0.421378 0.172389 0.537713
C47   C     C_R   0.852283 0.611477 0.588234 0.351828
C48   C     C_R   0.140212 0.419430 0.402962 0.363979
C49   C     C_R   0.758083 0.601807 0.569275 -0.063269
C50   C     C_R   0.235377 0.423496 0.423430 -0.063314
C51   C     C_R   0.791663 0.518254 0.501751 0.070486
C52   C     C_R   0.212089 0.466801 0.502103 0.007978
C53   C     C_R   0.889420 0.518950 0.520543 -0.080269
C54   C     C_R   0.116395 0.457359 0.485381 -0.097375
C55   C     C_R   0.921496 0.559659 0.567596 -0.141355
C56   C     C_R   0.082217 0.425841 0.435905 -0.131092
C57   C     C_R   0.955513 0.479798 0.494364 0.058112
C58   C     C_R   0.052827 0.483521 0.514932 0.034777
C59   C     C_R   0.084000 0.510459 0.564962 -0.230128
C60   C     C_R   0.928379 0.434014 0.449341 -0.249596
C61   C     C_R   0.020501 0.543154 0.592334 0.482666
C62   C     C_R   0.991762 0.402770 0.421720 0.407382
C63   C     C_R   0.537412 0.415584 0.827710 0.557002
C64   C     C_R   0.463630 0.579470 0.172295 0.565438
C65   C     C_R   0.598438 0.514982 0.734982 -0.057432
C66   C     C_R   0.403688 0.479533 0.265324 -0.060239
C67   C     C_R   0.591599 0.516767 0.683776 -0.165873
C68   C     C_R   0.410200 0.479011 0.316491 -0.168862
C69   C     C_R   0.434029 0.480954 0.664384 -0.135059
C70   C     C_R   0.566462 0.517481 0.335610 -0.145454
C71   C     C_R   0.441102 0.479268 0.715590 -0.059120
C72   C     C_R   0.559830 0.517782 0.284440 -0.078715
C73   C     C_R   0.523250 0.496207 0.750901 0.269296
C74   C     C_R   0.478390 0.499098 0.249263 0.275250
H1    H     H_    0.369822 0.467521 0.637706 0.167577
H2    H     H_    0.630040 0.532362 0.362184 0.178921
H3    H     H_    0.374917 0.158765 0.495189 0.178611
H4    H     H_    0.626590 0.839393 0.516275 0.181286
H5    H     H_    0.243006 0.493367 0.537821 0.168642
H6    H     H_    0.761012 0.488287 0.467289 0.177859
H7    H     H_    0.281546 0.417076 0.399331 0.184114
H8    H     H_    0.704578 0.634583 0.586541 0.181282
H9    H     H_    0.158593 0.500557 0.585245 0.181350
H10   H     H_    0.859224 0.417473 0.435664 0.200958
H11   H     H_    0.382719 0.465095 0.727935 0.160826
H12   H     H_    0.617900 0.532500 0.272007 0.167503
H13   H     H_    0.532327 0.714161 0.888282 0.209947
H14   H     H_    0.469806 0.280618 0.112054 0.210658
H15   H     H_    0.351697 0.463585 0.328162 0.202420
H16   H     H_    0.650707 0.531281 0.672231 0.183975
H17   H     H_    0.340619 0.465069 0.238118 0.165278
H18   H     H_    0.662068 0.528005 0.762334 0.168513
H19   H     H_    0.427663 0.724304 0.111619 0.240209
H20   H     H_    0.572683 0.270676 0.888185 0.212673
H21   H     H_    0.525529 0.713427 0.974042 0.206266
H22   H     H_    0.476264 0.281305 0.026222 0.206817
N1    N     N_R   0.529600 0.495055 0.803373 -0.361856
N2    N     N_R   0.471969 0.499998 0.196772 -0.360612
N3    N     N_R   0.731710 0.552720 0.528410 -0.120706
N4    N     N_R   0.268290 0.447280 0.471590 -0.117427
O1    O     O_R   0.383110 0.605620 0.485680 -0.528730
O2    O     O_R   0.616890 0.394380 0.514320 -0.531537
O3    O     O_R   0.531900 0.639510 0.503910 -0.586487
O4    O     O_R   0.468100 0.360490 0.496090 -0.573832
O5    O     O_R   0.425620 0.483050 0.562130 -0.602818
O6    O     O_R   0.574380 0.516950 0.437870 -0.590990
O7    O     O_R   0.574410 0.516930 0.580360 -0.634742
O8    O     O_R   0.425590 0.483070 0.419640 -0.638212
O9    O     O_2   0.522078 0.650380 0.803180 -0.512544
O10   O     O_2   0.480257 0.344558 0.197175 -0.519038
O11   O     O_2   0.454680 0.656419 0.196811 -0.503796
O12   O     O_2   0.545833 0.338751 0.803054 -0.507239
Zn1   Zn    Zn3+2 0.400660 0.477380 0.487830 1.044108
Zn2   Zn    Zn3+2 0.599340 0.522620 0.512170 1.057151
S1    S     S_3+6 0.501744 0.216845 0.578438 0.041084
O13   O     O_2   0.497348 0.135975 0.607223 -0.247845
O14   O     O_2   0.563400 0.271403 0.613882 -0.276466
O15   O     O_3   0.391253 0.279270 0.556282 -0.602104
H23   H     H_    0.372854 0.300910 0.586732 0.377538
S2    S     S_3+6 0.502177 0.790936 0.426647 0.038114
O16   O     O_2   0.600320 0.734015 0.446345 -0.364883
O17   O     O_2   0.441636 0.740196 0.387873 -0.246160
O18   O     O_3   0.509330 0.885295 0.398751 -0.517908
H24   H     H_    0.550522 0.865362 0.376642 0.399592
S3    S     S_3+6 0.770493 0.267168 0.493586 0.100047
O19   O     O_2   0.793796 0.318945 0.540731 -0.243464
O20   O     O_2   0.862487 0.210992 0.489808 -0.166540
O21   O     O_3   0.723190 0.338702 0.443029 -0.587172
H25   H     H_    0.670114 0.314135 0.420681 0.347804
S4    S     S_3+6 0.215821 0.732245 0.489293 0.102370
O22   O     O_2   0.239475 0.667934 0.533771 -0.299727
O23   O     O_2   0.119744 0.790878 0.483535 -0.224293
O24   O     O_3   0.208247 0.675231 0.436101 -0.492634
H26   H     H_    0.159721 0.638789 0.434850 0.376493
S5    S     S_3+6 0.211244 0.923557 0.548809 0.129683
O25   O     O_2   0.248666 0.991550 0.584889 -0.274780
O26   O     O_2   0.114017 0.964878 0.515072 -0.189788
O27   O     O_3   0.202720 0.837399 0.583165 -0.465599
H27   H     H_    0.148934 0.860776 0.597078 0.404514
S6    S     S_3+6 0.764764 0.068529 0.442437 0.115905
O28   O     O_2   0.868135 0.033618 0.469662 -0.178275
O29   O     O_2   0.723049 0.994803 0.413425 -0.307736
O30   O     O_3   0.755299 0.150321 0.400347 -0.514267
H28   H     H_    0.788046 0.121141 0.376066 0.413625
S7    S     S_3+6 0.068823 0.534514 0.659147 0.094117
O31   O     O_2   0.095371 0.620961 0.678843 -0.190667
O32   O     O_2   0.998308 0.510013 0.683180 -0.231827
O33   O     O_3   0.167936 0.453798 0.674880 -0.578420
H29   H     H_    0.193034 0.454983 0.712113 0.390750
S8    S     S_3+6 0.963011 0.317719 0.378727 0.090554
O34   O     O_2   0.909902 0.357383 0.326598 -0.211701
O35   O     O_2   0.052076 0.253417 0.377019 -0.221025
O36   O     O_3   0.893435 0.260351 0.397815 -0.478213
H30   H     H_    0.827368 0.288107 0.378461 0.392936
S9    S     S_3+6 0.872135 0.703953 0.626707 0.066886
O37   O     O_2   0.896269 0.676811 0.681616 -0.168376
O38   O     O_2   0.951215 0.742083 0.617249 -0.264626
O39   O     O_3   0.771885 0.783321 0.612249 -0.598087
H31   H     H_    0.791523 0.837676 0.628271 0.411309
S10   S     S_3+6 0.093838 0.441068 0.336654 0.086040
O40   O     O_2   0.094676 0.355021 0.309505 -0.188158
O41   O     O_2   0.994203 0.495824 0.323733 -0.234882
O42   O     O_3   0.162438 0.499465 0.317209 -0.576429
H32   H     H_    0.135654 0.505612 0.279971 0.397443
S11   S     S_3+6 0.373299 0.760853 0.008021 0.046326
O43   O     O_2   0.432618 0.830713 0.011039 -0.275810
O44   O     O_2   0.330868 0.740962 0.953749 -0.256687
O45   O     O_3   0.283919 0.801283 0.032975 -0.506479
H33   H     H_    0.249064 0.856894 0.012728 0.409442
S12   S     S_3+6 0.628286 0.234065 0.992014 0.062632
O46   O     O_2   0.670664 0.253950 0.046274 -0.213993
O47   O     O_2   0.569440 0.163896 0.989500 -0.290443
O48   O     O_3   0.718449 0.193654 0.967535 -0.477669
H34   H     H_    0.695247 0.148990 0.943233 0.379044
O49   O     O_3   0.228414 0.077497 0.493194 -0.553708
C75   C     C_3   0.212833 0.165374 0.510465 0.097362
H35   H     H_    0.220641 0.213559 0.482988 0.155397
H36   H     H_    0.262155 0.170829 0.548694 0.190064
C76   C     C_3   0.111232 0.190931 0.513914 -0.522962
H37   H     H_    0.101088 0.147316 0.542793 0.286361
H38   H     H_    0.096674 0.261522 0.524743 0.180736
H39   H     H_    0.059891 0.183556 0.476820 0.308851
O50   O     O_3   0.770041 0.920638 0.511900 -0.565188
C77   C     C_3   0.782667 0.834862 0.491603 0.128070
H40   H     H_    0.731267 0.833387 0.453542 0.191414
H41   H     H_    0.775160 0.783912 0.517473 0.174824
C78   C     C_3   0.883039 0.809224 0.486349 -0.550030
H42   H     H_    0.936481 0.813950 0.523160 0.289214
H43   H     H_    0.895671 0.739466 0.473963 0.181247
H44   H     H_    0.892129 0.854319 0.457844 0.293587

loop_
_geom_bond_atom_site_label_1
_geom_bond_atom_site_label_2
_ccdc_geom_bond_type
C49   H8    S    
S5    O27   S    
C66   C68   A    
S11   O43   D    
C65   H18   S    
C72   C74   A    
O1    Zn1   S    
C14   C18   A    
C20   S12   S    
O42   H32   S    
S6    O30   S    
C48   C56   A    
O21   H25   S    
S7    O33   S    
N3    Zn2   S    
S7    O31   D    
O18   H24   S    
C47   C49   A    
O48   H34   S    
C27   C33   A    
C73   N1    S    
C48   S10   S    
C21   H19   S    
O6    Zn2   S    
O2    Zn2   S    
O5    Zn1   S    
C35   C37   A    
C59   H9    S    
C31   S4    S    
C41   H3    S    
C45   O9    S    
C9    C22   A    
S9    O38   D    
S12   O46   D    
C2    O2    A    
O30   H28   S    
C23   O5    A    
C65   C73   A    
C77   H40   S    
C30   C38   A    
C3    C18   A    
C60   C62   A    
C22   H20   S    
C11   C23   S    
C63   O12   S    
C69   C71   A    
C61   S7    S    
O15   H23   S    
C78   H44   S    
C51   H6    S    
O45   H33   S    
C43   O49   S    
C75   C76   S    
C7    H13   S    
C52   C54   A    
S1    O14   D    
S8    O36   S    
S3    O21   S    
S4    O23   D    
C24   O8    A    
C52   H5    S    
S5    O25   D    
C1    O3    A    
S2    O18   S    
C3    C5    A    
C76   H39   S    
C64   N2    A    
C46   N2    A    
C28   C34   A    
S11   O44   D    
C71   H11   S    
S9    O39   S    
C51   N3    A    
C41   C43   A    
C6    C46   A    
C42   C44   A    
S7    O32   D    
C11   C67   A    
C39   C42   A    
C5    C7    A    
C53   C55   A    
C10   C21   A    
C26   H22   S    
C8    C26   A    
C54   C56   A    
C59   C61   A    
C30   S6    S    
C13   C19   A    
C27   C31   A    
S10   O42   S    
C14   C20   A    
C28   C32   A    
O3    Zn2   S    
S6    O28   D    
C74   N2    S    
C39   C40   A    
C71   C73   A    
C53   C57   A    
C64   O11   S    
C6    C8    A    
C65   C67   A    
C58   C59   A    
C5    C45   A    
C52   N4    A    
C67   H16   S    
C76   H37   S    
C51   C53   A    
S10   O41   D    
C32   S3    S    
C37   C43   A    
C35   C39   A    
O50   C77   S    
O7    Zn2   S    
C38   C44   A    
C3    C9    A    
S8    O35   D    
C49   N3    A    
O24   H26   S    
C12   C68   A    
O49   C75   S    
C14   C15   A    
C2    O4    A    
S1    O15   S    
C23   O7    A    
C68   H15   S    
C16   C18   A    
O33   H29   S    
S3    O20   D    
C44   O50   S    
C4    C17   A    
C4    C6    A    
C40   C41   A    
C29   S5    S    
C20   C22   A    
C25   H21   S    
S11   O45   S    
C46   O10   S    
C70   H2    S    
S3    O19   D    
C56   C62   A    
S4    O24   S    
C24   O6    A    
C4    C10   A    
C1    O1    A    
C36   C40   A    
S2    O16   D    
S2    O17   D    
C47   C55   A    
C54   C58   A    
C16   C25   A    
S5    O26   D    
C12   C70   A    
C75   H35   S    
C62   S8    S    
C19   C21   A    
C9    C63   A    
C10   C64   A    
N4    Zn1   S    
S6    O29   D    
C15   C26   A    
C72   H12   S    
C11   C69   A    
C42   H4    S    
C66   H17   S    
O8    Zn1   S    
C19   S11   S    
C12   C24   S    
C50   N4    A    
C7    C25   A    
C77   C78   S    
C13   C17   A    
S10   O40   D    
C36   C38   A    
S4    O22   D    
C34   S1    S    
C78   H42   S    
C63   N1    A    
C45   N1    A    
C30   C32   A    
C60   H10   S    
C57   C58   A    
O39   H31   S    
C47   S9    S    
C55   C61   A    
C48   C50   A    
C33   C35   A    
C77   H41   S    
C69   H1    S    
C34   C36   A    
C78   H43   S    
O27   H27   S    
O4    Zn1   S    
C57   C60   A    
C70   C72   A    
C33   S2    S    
C29   C31   A    
C13   C16   A    
C29   C37   A    
S9    O37   D    
C1    C27   S    
S8    O34   D    
C2    C28   S    
S12   O47   D    
C8    H14   S    
O36   H30   S    
C15   C17   A    
S1    O13   D    
C50   H7    S    
C75   H36   S    
C76   H38   S    
S12   O48   S    
C66   C74   A    
