data_mof_unit_63376.cif
_audit_creation_date              2012-12-10T19:27:33-0500
_audit_creation_method            fapswitch 2.2
_symmetry_space_group_name_H-M    P1
_symmetry_Int_Tables_number       1
_space_group_crystal_system       triclinic
_cell_length_a                    18.722312
_cell_length_b                    18.703505
_cell_length_c                    18.919573
_cell_angle_alpha                 109.839208
_cell_angle_beta                  109.612436
_cell_angle_gamma                 109.268671
_cell_volume                      5080.53211271

loop_
_atom_site_label
_atom_site_type_symbol
_atom_type_description
_atom_site_fract_x
_atom_site_fract_y
_atom_site_fract_z
_atom_type_partial_charge
C1    C     C_R   0.380930 0.379923 0.500463 0.948000
C2    C     C_R   0.598232 0.337671 0.611900 -0.318073
C3    C     C_R   0.237747 0.252879 0.428644 -0.261105
C4    C     C_R   0.620426 0.500402 0.620137 0.848956
C5    C     C_R   0.318349 0.314272 0.502732 -0.105787
C6    C     C_R   0.335158 0.311286 0.579937 0.379601
C7    C     C_R   0.269587 0.246643 0.579256 -0.125204
C8    C     C_R   0.187392 0.186676 0.502539 -0.085179
C9    C     C_R   0.174284 0.192693 0.428868 -0.200857
C10   C     C_3   0.110327 0.153695 0.335355 1.081595
C11   C     C_3   0.182959 0.223259 0.335457 1.087519
C12   C     C_R   0.757989 0.581164 0.760584 0.001400
C13   C     C_R   0.243679 0.423042 0.241417 0.040213
C14   C     C_R   0.313352 0.501455 0.315705 -0.208252
C15   C     C_R   0.313332 0.580439 0.331494 -0.173396
C16   C     C_R   0.619995 0.620445 0.500362 0.938130
C17   C     C_R   0.250048 0.581825 0.267643 0.420245
C18   C     C_R   0.185449 0.502915 0.188862 -0.166449
C19   C     C_R   0.180076 0.423752 0.179091 -0.056057
C20   C     C_3   0.171275 0.349811 0.106266 0.495540
C21   C     C_3   0.242519 0.349754 0.175625 0.502990
C22   C     C_R   0.667664 0.696020 0.428518 -0.237281
C23   C     C_R   0.813738 0.498626 0.813029 -0.049664
C24   C     C_R   0.685179 0.688429 0.502108 -0.186067
C25   C     C_R   0.761372 0.755583 0.581429 0.612506
C26   C     C_R   0.826063 0.821350 0.583299 0.341226
C27   C     C_R   0.812494 0.820237 0.504767 -0.246533
C28   C     C_R   0.380398 0.500887 0.380075 0.917934
C29   C     C_R   0.730160 0.761343 0.429914 -0.059895
C30   C     C_3   0.701857 0.703997 0.336927 0.847633
C31   C     C_3   0.632818 0.631242 0.336002 0.450387
C32   C     C_R   0.000566 0.379482 0.880402 1.014649
C33   C     C_R   0.879891 0.498831 0.879173 0.927405
C34   C     C_R   0.745228 0.418000 0.736528 -0.158328
C35   C     C_R   0.000209 0.620290 0.119958 0.921013
C36   C     C_R   0.120147 0.500803 0.120639 0.967787
C37   C     C_R   0.998846 0.118951 0.619602 0.955628
C38   C     C_R   0.120351 0.120309 0.500608 0.931106
C39   C     C_R   0.001309 0.880885 0.380131 0.930897
C40   C     C_R   0.771142 0.663777 0.769807 -0.241144
C41   C     C_R   0.879608 0.881197 0.501045 0.953895
C42   C     C_R   0.927747 0.227871 0.760960 0.118085
C43   C     C_R   0.998198 0.313739 0.811180 -0.222388
C44   C     C_R   0.064355 0.337252 0.790014 -0.200763
C45   C     C_R   0.675808 0.418709 0.678170 -0.067333
C46   C     C_R   0.064727 0.272897 0.726301 0.655435
C47   C     C_R   0.998530 0.185581 0.683583 -0.251213
C48   C     C_R   0.927548 0.164456 0.696889 -0.055050
C49   C     C_3   0.889291 0.095835 0.717336 0.162957
C50   C     C_3   0.889820 0.166192 0.788820 0.242118
C51   C     C_R   0.032960 0.698850 0.269047 -0.029882
C52   C     C_R   0.837170 0.742369 0.846533 0.435725
C53   C     C_R   0.002092 0.687508 0.185986 -0.148409
C54   C     C_R   0.985875 0.750314 0.170939 -0.234318
C55   C     C_R   0.987308 0.816079 0.235235 0.744182
C56   C     C_R   0.685795 0.500140 0.687135 -0.005444
C57   C     C_R   0.008015 0.820095 0.315652 -0.283057
C58   C     C_R   0.038459 0.766129 0.333990 -0.060864
C59   C     C_3   0.015975 0.713575 0.375457 0.464876
C60   C     C_3   0.006845 0.637631 0.301701 0.556053
C61   C     C_R   0.892268 0.740422 0.915942 0.367112
C62   C     C_R   0.882729 0.660099 0.906635 -0.297698
C63   C     C_R   0.818413 0.579812 0.827341 0.025062
C64   C     C_R   0.743103 0.336339 0.715923 0.453292
C65   C     C_R   0.668028 0.257552 0.646890 0.575279
C66   C     C_R   0.594595 0.258118 0.597051 0.543946
Cl1   Cl    Cl    0.255066 0.682998 0.287605 -0.459532
Cl2   Cl    Cl    0.896575 0.548131 0.231552 -0.450528
Cl3   Cl    Cl    0.975375 0.837989 0.014534 -0.368640
Cl4   Cl    Cl    0.437276 0.384814 0.676706 -0.537712
Cl5   Cl    Cl    0.065385 0.254270 0.047035 -0.369233
Cl6   Cl    Cl    0.203617 0.379564 0.036986 -0.600994
Cl7   Cl    Cl    0.922511 0.901614 0.684431 -0.427577
Cl8   Cl    Cl    0.783125 0.682194 0.321316 -0.509520
Cl9   Cl    Cl    0.784297 0.007615 0.626767 -0.396145
Cl10  Cl    Cl    0.847965 0.842453 0.854857 -0.304932
Cl11  Cl    Cl    0.785088 0.150577 0.773629 -0.283835
Cl12  Cl    Cl    0.084403 0.603191 0.334222 -0.375176
F1    F     F_    0.520403 0.181432 0.532091 -0.546430
F2    F     F_    0.130824 0.294972 0.708726 -0.632069
F3    F     F_    0.965910 0.873215 0.217845 -0.542605
F4    F     F_    0.086825 0.747190 0.455956 -0.543125
F5    F     F_    0.814295 0.331686 0.758340 -0.616603
F6    F     F_    0.666469 0.180185 0.628533 -0.502459
F7    F     F_    0.088848 0.068212 0.284470 -0.551773
F8    F     F_    0.038395 0.164685 0.323188 -0.571075
F9    F     F_    0.214683 0.188938 0.284367 -0.537992
F10   F     F_    0.164905 0.285890 0.324088 -0.587750
F11   F     F_    0.212993 0.275150 0.181943 -0.493817
F12   F     F_    0.775112 0.754552 0.655893 -0.621780
F13   F     F_    0.665611 0.733137 0.284100 -0.605099
F14   F     F_    0.647531 0.561768 0.328302 -0.570906
H1    H     H_    0.282525 0.243967 0.638319 0.209981
H2    H     H_    0.954694 0.703128 0.376862 0.128928
H3    H     H_    0.926230 0.661922 0.962539 0.172621
H4    H     H_    0.539364 0.334607 0.571314 0.224971
H5    H     H_    0.364591 0.641361 0.391346 0.207951
H6    H     H_    0.730964 0.669111 0.718145 0.244640
H7    H     H_    0.305226 0.369219 0.175228 0.097075
H8    H     H_    0.564052 0.610915 0.292243 0.107622
H9    H     H_    0.117706 0.404275 0.825149 0.219135
H10   H     H_    0.935391 0.073970 0.743006 0.150538
H11   H     H_    0.936316 0.184799 0.855514 0.134171
H12   H     H_    0.967802 0.745699 0.108390 0.191893
O1    O     O_R   0.408400 0.356680 0.448290 -0.585477
O2    O     O_R   0.948300 0.091670 0.539990 -0.594549
O3    O     O_R   0.143340 0.091640 0.551750 -0.626198
O4    O     O_R   0.408370 0.460100 0.551700 -0.578464
O5    O     O_R   0.039900 0.091690 0.448360 -0.566042
O6    O     O_R   0.051700 0.908430 0.460110 -0.593716
O7    O     O_R   0.948260 0.908480 0.356720 -0.542298
O8    O     O_R   0.960100 0.908410 0.551740 -0.582416
O9    O     O_R   0.856660 0.908460 0.448350 -0.580023
O10   O     O_R   0.591630 0.448290 0.539910 -0.620194
O11   O     O_R   0.591590 0.551710 0.643320 -0.608167
O12   O     O_R   0.051700 0.460090 0.908430 -0.624905
O13   O     O_R   0.591630 0.539900 0.448300 -0.568150
O14   O     O_R   0.591600 0.643320 0.551710 -0.598148
O15   O     O_R   0.408410 0.448290 0.356680 -0.608129
O16   O     O_R   0.408370 0.551710 0.460090 -0.606740
O17   O     O_R   0.948260 0.356680 0.908450 -0.564638
O18   O     O_R   0.856640 0.448300 0.908430 -0.571092
O19   O     O_R   0.960090 0.551710 0.908400 -0.632353
O20   O     O_R   0.948250 0.539920 0.091630 -0.578253
O21   O     O_R   0.051690 0.643330 0.091610 -0.604101
O22   O     O_R   0.039870 0.448310 0.091660 -0.581120
O23   O     O_R   0.143310 0.551720 0.091640 -0.580837
O24   O     O_R   0.051740 0.091620 0.643380 -0.597583
Zn1   Zn    Zn3+2 0.500020 0.430950 0.430950 1.155304
Zn2   Zn    Zn3+2 0.499980 0.569050 0.569050 1.133820
Zn3   Zn    Zn3+2 0.930910 0.430960 0.000050 1.199382
Zn4   Zn    Zn3+2 0.069050 0.569060 0.000020 1.117819
Zn5   Zn    Zn3+2 0.069070 0.000020 0.569080 1.158091
Zn6   Zn    Zn3+2 0.930930 0.000080 0.431020 1.222271

loop_
_geom_bond_atom_site_label_1
_geom_bond_atom_site_label_2
_ccdc_geom_bond_type
C59   C60   S    
C10   F7    S    
C22   C29   A    
O19   Zn4   S    
C35   C53   S    
C4    O11   A    
C19   C20   S    
C59   F4    S    
O8    Zn5   S    
C49   C50   S    
C7    C8    A    
C21   F11   S    
C53   C54   A    
C66   F1    S    
C60   Cl12  S    
C26   C27   A    
C29   C30   S    
O14   Zn2   S    
C4    O10   A    
C35   O20   A    
C15   H5    S    
C52   C61   A    
C40   H6    S    
C30   C31   S    
C30   Cl8   S    
C27   C29   A    
C39   C57   S    
C26   Cl7   S    
C6    Cl4   S    
C18   C19   A    
C38   O3    A    
C35   O21   A    
O23   Zn4   S    
C46   C47   A    
C39   O6    A    
C45   C56   A    
C11   F9    S    
C8    C9    A    
C23   C33   S    
C41   O8    A    
C49   Cl9   S    
C20   Cl5   S    
C59   H2    S    
C37   C47   S    
O13   Zn1   S    
C9    C10   S    
O4    Zn2   S    
C37   O24   A    
C23   C63   A    
C50   H11   S    
C16   C24   S    
C13   C14   A    
C4    C56   S    
C8    C38   S    
O17   Zn3   S    
C44   C46   A    
C2    C45   A    
C7    H1    S    
C17   Cl1   S    
C22   C31   S    
C13   C19   A    
C24   C25   A    
C28   O16   A    
C49   H10   S    
C51   C58   A    
C12   C63   A    
C65   F6    S    
O1    Zn1   S    
C52   Cl10  S    
C25   C26   A    
C40   C52   A    
O20   Zn3   S    
C51   C53   A    
C12   C40   A    
C43   C44   A    
C64   F5    S    
C62   C63   A    
C3    C9    A    
C16   O14   A    
C27   C41   S    
C47   C48   A    
O12   Zn4   S    
C11   F10   S    
C23   C34   A    
C34   C64   A    
C17   C18   A    
C25   F12   S    
C13   C21   S    
C34   C45   A    
C42   C48   A    
C31   H8    S    
C32   O12   A    
C38   O5    A    
C12   C56   A    
C42   C50   S    
C48   C49   S    
C65   C66   A    
O9    Zn6   S    
C55   C57   A    
C33   O18   A    
O10   Zn1   S    
O16   Zn2   S    
C36   O23   A    
C55   F3    S    
C42   C43   A    
C50   Cl11  S    
O18   Zn3   S    
C1    C5    S    
C61   Cl3   S    
C15   C17   A    
C54   C55   A    
C10   F8    S    
C62   H3    S    
O5    Zn6   S    
C32   O17   A    
C36   O22   A    
C41   O9    A    
C30   F13   S    
C3    C5    A    
C28   O15   A    
C44   H9    S    
O7    Zn6   S    
C2    C66   A    
C6    C7    A    
C54   H12   S    
C64   C65   A    
C2    H4    S    
C58   C59   S    
C37   O2    A    
O3    Zn5   S    
C16   O13   A    
C46   F2    S    
O21   Zn4   S    
C57   C58   A    
C5    C6    A    
O22   Zn3   S    
C21   H7    S    
C39   O7    A    
O15   Zn1   S    
C32   C43   S    
C22   C24   A    
C61   C62   A    
C3    C11   S    
C10   C11   S    
C1    O4    A    
O2    Zn6   S    
C20   C21   S    
C60   Cl2   S    
C31   F14   S    
C33   O19   A    
C14   C15   A    
C20   Cl6   S    
O6    Zn5   S    
C51   C60   S    
C14   C28   S    
O24   Zn5   S    
C18   C36   S    
C1    O1    A    
O11   Zn2   S    
