data_mof_unit_21124.cif
_audit_creation_date              2013-03-05T16:48:17-0500
_audit_creation_method            fapswitch 2.2
_symmetry_space_group_name_H-M    P1
_symmetry_Int_Tables_number       1
_space_group_crystal_system       triclinic
_cell_length_a                    23.424545
_cell_length_b                    8.919544
_cell_length_c                    8.098854
_cell_angle_alpha                 89.909363
_cell_angle_beta                  90.083865
_cell_angle_gamma                 90.24273
_cell_volume                      1692.12516533

loop_
_atom_site_label
_atom_site_type_symbol
_atom_site_description
_atom_site_fract_x
_atom_site_fract_y
_atom_site_fract_z
_atom_type_partial_charge
O1    O     O_R   0.500000 0.285350 0.636850 -0.603721
O2    O     O_R   0.500000 0.714650 0.363150 -0.595214
O3    O     O_R   0.500000 0.714650 0.636850 -0.619710
O4    O     O_R   0.500000 0.285350 0.363150 -0.618844
H1    H     H_    0.945677 0.384460 0.127423 0.208914
H2    H     H_    0.053818 0.642333 0.909608 0.197818
H3    H     H_    0.950170 0.631806 0.917744 0.198855
H4    H     H_    0.049318 0.389216 0.121523 0.197828
C1    C     C_R   0.500244 0.217989 0.500072 0.970833
C2    C     C_R   0.499884 0.782015 0.499931 0.949228
O5    O     O_R   0.416160 0.500000 0.636910 -0.610048
O6    O     O_R   0.583840 0.500000 0.363090 -0.575530
O7    O     O_R   0.583840 0.500000 0.636910 -0.618461
O8    O     O_R   0.416160 0.500000 0.363090 -0.619084
C3    C     C_R   0.208247 0.514593 0.509103 0.132515
C4    C     C_R   0.791247 0.502637 0.529637 0.188030
C5    C     C_R   0.389235 0.500010 0.499903 0.903667
C6    C     C_R   0.610665 0.502322 0.500136 0.901513
Zn1   Zn    Zn3+2 0.500000 0.500000 0.682780 1.046070
Zn2   Zn    Zn3+2 0.500000 0.500000 0.317220 1.060798
C7    C     C_R   0.298697 0.626210 0.427299 -0.116820
C8    C     C_R   0.700992 0.368038 0.547305 -0.137639
C9    C     C_R   0.296283 0.384324 0.575365 -0.055505
C10   C     C_R   0.703105 0.636000 0.471029 -0.041006
C11   C     C_R   0.327030 0.502885 0.499908 -0.173054
C12   C     C_R   0.672703 0.501327 0.501171 -0.135514
C13   C     C_R   0.881100 0.545535 0.667231 0.565170
C14   C     C_R   0.118335 0.471373 0.373465 0.491902
C15   C     C_R   0.879597 0.460240 0.387069 0.539369
C16   C     C_R   0.119963 0.566325 0.649789 0.481335
N1    N     N_R   0.852179 0.501158 0.528804 -0.352974
N2    N     N_R   0.147326 0.518931 0.510434 -0.381463
C17   C     C_R   0.939103 0.462705 0.380507 -0.016824
C18   C     C_R   0.060410 0.562901 0.657006 -0.011338
C19   C     C_R   0.940689 0.551466 0.666147 -0.019958
C20   C     C_R   0.058774 0.469525 0.373178 -0.014077
C21   C     C_R   0.969780 0.509444 0.521274 -0.014354
C22   C     C_R   0.029703 0.514120 0.517108 -0.016059
C23   C     C_R   0.968441 0.420393 0.237064 -0.153014
C24   C     C_R   0.031048 0.605214 0.800457 -0.156024
C25   C     C_R   0.971666 0.598951 0.805214 -0.162142
C26   C     C_R   0.027819 0.423250 0.233627 -0.164266
C27   C     C_1   0.500200 0.065207 0.500103 -0.118975
C28   C     C_1   0.500055 0.934787 0.499892 -0.129051
C29   C     C_R   0.238752 0.634883 0.438169 0.009839
C30   C     C_R   0.760948 0.368269 0.560451 0.027789
C31   C     C_R   0.236167 0.388424 0.575759 -0.032994
C32   C     C_R   0.763050 0.635488 0.482945 -0.058030
N3    N     N_1   0.500000 0.500000 0.073640 -0.009095
N4    N     N_1   0.500000 0.500000 0.926360 -0.011921
O9    O     O_2   0.852070 0.584405 0.804373 -0.501291
O10   O     O_2   0.147293 0.426001 0.238618 -0.519206
O11   O     O_2   0.849131 0.417966 0.253262 -0.502116
O12   O     O_2   0.150501 0.614284 0.781071 -0.516540
C33   C     C_2   0.206586 0.769985 0.382745 0.576807
H5    H     H_    0.162719 0.759789 0.341204 0.047827
O13   O     O_2   0.227650 0.895194 0.389907 -0.475693
C34   C     C_2   0.792135 0.226017 0.594513 0.553845
H6    H     H_    0.774303 0.119508 0.555087 0.097338
O14   O     O_2   0.837608 0.225480 0.668301 -0.548969
C35   C     C_2   0.200893 0.261380 0.640932 0.463367
H7    H     H_    0.157657 0.280392 0.683208 0.081253
O15   O     O_2   0.218585 0.132901 0.642639 -0.513868
C36   C     C_2   0.797964 0.770306 0.439716 0.407753
H8    H     H_    0.838791 0.789777 0.499337 0.082892
O16   O     O_2   0.782820 0.857579 0.332087 -0.540539
C37   C     C_2   0.332483 0.744221 0.340566 0.571447
H9    H     H_    0.372937 0.782159 0.391204 0.025347
O17   O     O_2   0.316633 0.795064 0.208224 -0.504326
C38   C     C_2   0.666750 0.230537 0.584238 0.392191
H10   H     H_    0.628219 0.206721 0.514414 0.053930
O18   O     O_2   0.679767 0.146495 0.697203 -0.557156
C39   C     C_2   0.326683 0.257326 0.655744 0.534768
H11   H     H_    0.311759 0.213738 0.773228 0.108588
O19   O     O_2   0.367437 0.197658 0.589436 -0.577612
C40   C     C_2   0.672766 0.780112 0.440125 0.481407
H12   H     H_    0.689639 0.883769 0.490781 0.106907
O20   O     O_2   0.629926 0.785713 0.354539 -0.557113

loop_
_geom_bond_atom_site_label_1
_geom_bond_atom_site_label_2
_geom_bond_distance
_ccdc_geom_bond_type
C33   H5    1.084271 S    
C39   H11   1.085055 S    
C20   C26   1.403581 A    
C6    C12   1.453291 S    
C2    C28   1.362651 S    
C3    C31   1.410278 A    
C4    C32   1.409935 A    
C3    N2    1.427776 S    
C4    N1    1.427454 S    
C16   O12   1.349743 S    
O5    Zn1   1.998209 S    
C17   C23   1.403660 A    
O7    C6    1.274423 A    
C18   C24   1.403981 A    
C40   O20   1.219939 D    
C19   C21   1.409750 A    
C21   C22   1.404565 A    
H4    C26   1.083318 S    
C32   C36   1.492861 S    
C34   O14   1.220631 D    
C15   C17   1.395070 A    
C35   O15   1.220311 D    
O3    Zn1   1.949803 S    
C38   H10   1.084816 S    
C9    C11   1.415378 A    
C7    C37   1.489965 S    
C39   O19   1.220530 D    
O8    C5    1.275761 A    
C9    C39   1.489011 S    
C13   O9    1.349702 S    
C23   C26   1.391342 A    
C7    C29   1.409531 A    
C1    C27   1.362748 S    
C9    C31   1.408845 A    
C16   C18   1.396502 A    
C13   N1    1.367258 A    
C37   H9    1.085001 S    
C10   C32   1.407387 A    
O8    Zn2   1.999278 S    
C14   N2    1.366931 A    
O1    C1    1.261064 A    
C40   H12   1.084896 S    
C4    C30   1.412372 A    
O7    Zn1   1.999275 S    
C10   C40   1.492048 S    
C13   C19   1.396654 A    
C34   H6    1.084511 S    
O1    Zn1   1.950959 S    
O2    Zn2   1.950958 S    
C17   C21   1.409415 A    
C37   O17   1.221076 D    
C36   O16   1.221022 D    
C27   C28   1.163273 T    
Zn2   N3    1.972719 S    
O6    Zn2   1.998207 S    
C29   C33   1.492093 S    
C24   C25   1.392468 A    
C8    C30   1.408293 A    
H1    C23   1.083339 S    
H2    C24   1.083330 S    
C3    C29   1.408755 A    
O2    C2    1.261082 A    
C7    C11   1.413955 A    
O5    C5    1.275526 A    
C18   C22   1.409595 A    
C10   C12   1.414928 A    
C31   C35   1.495610 S    
C5    C11   1.457458 S    
C36   H8    1.084191 S    
C33   O13   1.220470 D    
C15   N1    1.367036 A    
O3    C2    1.260385 A    
C16   N2    1.367201 A    
C14   O10   1.349991 S    
Zn1   N4    1.972719 S    
C15   O11   1.350038 S    
C20   C22   1.409542 A    
H3    C25   1.083259 S    
C35   H7    1.083689 S    
C19   C25   1.403912 A    
O4    Zn2   1.949804 S    
C14   C20   1.395222 A    
N3    N4    1.192798 T    
C8    C12   1.413043 A    
O6    C6    1.274793 A    
C38   O18   1.221007 D    
O4    C1    1.260399 A    
C8    C38   1.492724 S    
C30   C34   1.491933 S    
