data_mof_unit_64445.cif
_audit_creation_date              2012-12-10T18:27:27-0500
_audit_creation_method            fapswitch 2.2
_symmetry_space_group_name_H-M    P1
_symmetry_Int_Tables_number       1
_space_group_crystal_system       tetragonal
_cell_length_a                    21.471097
_cell_length_b                    21.471097
_cell_length_c                    55.710421
_cell_angle_alpha                 90.0
_cell_angle_beta                  90.0
_cell_angle_gamma                 90.0
_cell_volume                      25682.95012

loop_
_atom_site_label
_atom_site_type_symbol
_atom_type_description
_atom_site_fract_x
_atom_site_fract_y
_atom_site_fract_z
_atom_type_partial_charge
C1    C     C_R   0.999846 0.121428 0.000066 0.847413
C2    C     C_3   0.000265 0.189524 0.999851 0.086326
C3    C     C_R   1.000000 0.500000 0.275324 0.073712
C4    C     C_R   0.500000 0.000000 0.047040 0.863776
C5    C     C_R   0.000000 0.500000 0.047040 0.863776
C6    C     C_R   0.000000 0.500000 0.547040 0.863776
C7    C     C_R   0.500000 0.000000 0.547040 0.863776
C8    C     C_R   0.378754 0.999970 0.998403 0.897763
C9    C     C_R   0.000030 0.378754 0.998403 0.897763
C10   C     C_R   0.621246 0.000030 0.998403 0.897764
C11   C     C_R   0.999970 0.621246 0.998403 0.897764
C12   C     C_R   0.878754 0.499970 0.498403 0.897763
C13   C     C_3   0.810476 0.000265 0.999851 0.086326
C14   C     C_R   0.500030 0.878754 0.498403 0.897764
C15   C     C_R   0.121246 0.500030 0.498403 0.897764
C16   C     C_R   0.499970 0.121246 0.498403 0.897764
C17   C     C_R   0.927451 0.586471 0.801025 -0.128943
C18   C     C_R   0.413529 0.927451 0.801025 -0.128943
C19   C     C_R   0.072549 0.413529 0.801025 -0.128943
C20   C     C_R   0.586471 0.072550 0.801025 -0.128943
C21   C     C_R   0.427451 0.086471 0.301025 -0.128943
C22   C     C_R   0.913529 0.427451 0.301025 -0.128943
C23   C     C_R   0.572549 0.913529 0.301025 -0.128943
C24   C     C_3   0.999735 0.810476 0.999851 0.086326
C25   C     C_R   0.086471 0.572550 0.301025 -0.128943
C26   C     C_R   0.500000 0.000000 0.952981 0.985933
C27   C     C_R   0.000000 0.500000 0.952981 0.985933
C28   C     C_R   1.000000 0.500000 0.452981 0.985933
C29   C     C_R   0.500000 0.000000 0.452981 0.985934
C30   C     C_R   0.963622 0.543347 0.813562 -0.025208
C31   C     C_R   0.456653 0.963622 0.813562 -0.025208
C32   C     C_R   0.036378 0.456653 0.813562 -0.025208
C33   C     C_R   0.543347 0.036378 0.813562 -0.025208
C34   C     C_R   0.463622 0.043347 0.313562 -0.025208
C35   C     C_3   0.689524 0.499735 0.499851 0.086326
C36   C     C_R   0.956653 0.463622 0.313562 -0.025208
C37   C     C_R   0.536378 0.956653 0.313562 -0.025208
C38   C     C_R   0.043347 0.536378 0.313562 -0.025208
C39   C     C_R   0.000000 0.500000 0.800798 -0.049801
C40   C     C_R   0.500000 0.000000 0.800798 -0.049801
C41   C     C_R   0.500000 1.000000 0.300798 -0.049801
C42   C     C_R   1.000000 0.500000 0.300798 -0.049801
C43   C     C_R   0.541798 0.960485 0.237310 0.044934
C44   C     C_R   0.039515 0.541798 0.237310 0.044934
C45   C     C_R   0.458202 0.039515 0.237310 0.044934
C46   C     C_3   0.500265 0.689524 0.499851 0.086325
C47   C     C_R   0.960485 0.458202 0.237310 0.044934
C48   C     C_R   0.041798 0.460485 0.737310 0.044934
C49   C     C_R   0.539515 0.041798 0.737310 0.044934
C50   C     C_R   0.958202 0.539515 0.737310 0.044934
C51   C     C_R   0.460485 0.958202 0.737310 0.044934
C52   C     C_R   0.500000 1.000000 0.199249 -0.051513
C53   C     C_R   1.000000 0.500000 0.199249 -0.051513
C54   C     C_R   0.000000 0.500000 0.699249 -0.051513
C55   C     C_R   0.500000 0.000000 0.699249 -0.051514
C56   C     C_R   0.500000 1.000000 0.224724 0.072586
C57   C     C_3   0.310476 0.500265 0.499851 0.086326
C58   C     C_R   1.000000 0.500000 0.224724 0.072586
C59   C     C_R   0.000000 0.500000 0.724723 0.072586
C60   C     C_R   0.500000 0.000000 0.724723 0.072586
C61   C     C_R   0.925987 0.585973 0.776120 -0.210885
C62   C     C_R   0.414027 0.925987 0.776120 -0.210885
C63   C     C_R   0.074013 0.414027 0.776120 -0.210885
C64   C     C_R   0.585973 0.074013 0.776120 -0.210885
C65   C     C_R   0.425987 0.085973 0.276120 -0.210885
C66   C     C_R   0.914027 0.425987 0.276120 -0.210885
C67   C     C_R   0.574013 0.914027 0.276120 -0.210885
C68   C     C_3   0.499735 0.310476 0.499851 0.086326
C69   C     C_R   0.085973 0.574013 0.276120 -0.210885
C70   C     C_R   0.585333 0.925251 0.223928 -0.211985
C71   C     C_R   0.074749 0.585333 0.223928 -0.211986
C72   C     C_R   0.414667 0.074749 0.223928 -0.211985
C73   C     C_R   0.925251 0.414667 0.223928 -0.211985
C74   C     C_R   0.085333 0.425251 0.723928 -0.211986
C75   C     C_R   0.574749 0.085333 0.723928 -0.211986
C76   C     C_R   0.914667 0.574749 0.723928 -0.211985
C77   C     C_R   0.425251 0.914667 0.723928 -0.211985
C78   C     C_R   0.585843 0.926712 0.199023 -0.136247
C79   C     C_3   0.310434 0.999543 0.998023 0.016741
C80   C     C_R   0.073288 0.585844 0.199023 -0.136247
C81   C     C_R   0.414156 0.073288 0.199023 -0.136247
C82   C     C_R   0.926712 0.414156 0.199023 -0.136247
C83   C     C_R   0.085844 0.426712 0.699023 -0.136246
C84   C     C_R   0.573288 0.085844 0.699023 -0.136247
C85   C     C_R   0.914156 0.573288 0.699023 -0.136247
C86   C     C_R   0.426712 0.914156 0.699023 -0.136247
C87   C     C_R   0.543032 0.963253 0.186485 -0.021089
C88   C     C_R   0.036747 0.543032 0.186485 -0.021089
C89   C     C_R   0.456968 0.036747 0.186485 -0.021089
C90   C     C_3   0.000457 0.310434 0.998023 0.016740
C91   C     C_R   0.963253 0.456968 0.186485 -0.021089
C92   C     C_R   0.043032 0.463253 0.686485 -0.021090
C93   C     C_R   0.536747 0.043032 0.686485 -0.021089
C94   C     C_R   0.956968 0.536747 0.686485 -0.021089
C95   C     C_R   0.463253 0.956968 0.686485 -0.021089
C96   C     C_R   0.035254 0.457067 0.838716 0.509909
C97   C     C_R   0.542933 0.035254 0.838716 0.509909
C98   C     C_R   0.964746 0.542933 0.838716 0.509909
C99   C     C_R   0.457067 0.964746 0.838716 0.509909
C100  C     C_R   0.535254 0.957067 0.338716 0.509909
C101  C     C_3   0.689566 0.000457 0.998023 0.016740
C102  C     C_R   0.042933 0.535254 0.338716 0.509909
C103  C     C_R   0.464746 0.042933 0.338716 0.509909
C104  C     C_R   0.957067 0.464746 0.338716 0.509909
C105  C     C_R   0.039154 0.457863 0.762737 0.043969
C106  C     C_R   0.542136 0.039154 0.762737 0.043969
C107  C     C_R   0.960846 0.542136 0.762737 0.043969
C108  C     C_R   0.457863 0.960846 0.762737 0.043969
C109  C     C_R   0.539154 0.957863 0.262737 0.043969
C110  C     C_R   0.042136 0.539154 0.262737 0.043969
C111  C     C_R   0.460846 0.042136 0.262737 0.043969
C112  C     C_R   0.878572 0.999846 0.000066 0.847414
C113  C     C_3   0.999543 0.689566 0.998023 0.016740
C114  C     C_R   0.957863 0.460846 0.262737 0.043969
C115  C     C_3   0.217006 0.000152 0.025654 -0.375982
C116  C     C_3   0.999848 0.217006 0.025654 -0.375982
C117  C     C_3   0.782994 0.999848 0.025654 -0.375983
C118  C     C_3   0.000152 0.782994 0.025654 -0.375983
C119  C     C_3   0.717006 0.500152 0.525654 -0.375982
C120  C     C_3   0.499848 0.717006 0.525654 -0.375982
C121  C     C_3   0.282994 0.499848 0.525654 -0.375983
C122  C     C_3   0.500152 0.282994 0.525654 -0.375982
C123  C     C_3   0.288342 0.996914 0.024504 -0.504718
C124  C     C_3   0.810434 0.499543 0.498023 0.016740
C125  C     C_3   0.003086 0.288342 0.024504 -0.504718
C126  C     C_3   0.711658 0.003086 0.024504 -0.504718
C127  C     C_3   0.996914 0.711658 0.024504 -0.504718
C128  C     C_3   0.788342 0.496914 0.524505 -0.504718
C129  C     C_3   0.503087 0.788342 0.524505 -0.504717
C130  C     C_3   0.211658 0.503086 0.524505 -0.504718
C131  C     C_3   0.496914 0.211658 0.524505 -0.504718
C132  C     C_3   0.212090 0.940116 0.986909 -0.434439
C133  C     C_3   0.059884 0.212090 0.986909 -0.434440
C134  C     C_3   0.787910 0.059884 0.986909 -0.434438
C135  C     C_3   0.500457 0.810434 0.498023 0.016740
C136  C     C_3   0.940116 0.787910 0.986909 -0.434439
C137  C     C_3   0.712090 0.440116 0.486909 -0.434439
C138  C     C_3   0.559884 0.712090 0.486909 -0.434436
C139  C     C_3   0.287910 0.559884 0.486909 -0.434438
C140  C     C_3   0.440116 0.287910 0.486909 -0.434438
C141  C     C_3   0.213021 0.058144 0.986221 -0.372846
C142  C     C_3   0.941856 0.213021 0.986221 -0.372847
C143  C     C_3   0.786979 0.941856 0.986221 -0.372846
C144  C     C_3   0.058144 0.786979 0.986221 -0.372846
C145  C     C_3   0.713020 0.558144 0.486221 -0.372846
C146  C     C_3   0.189566 0.500457 0.498023 0.016740
C147  C     C_3   0.441856 0.713020 0.486221 -0.372845
C148  C     C_3   0.286979 0.441856 0.486221 -0.372846
C149  C     C_3   0.558144 0.286979 0.486221 -0.372845
C150  C     C_3   0.499543 0.189566 0.498023 0.016740
C151  C     C_3   0.283641 0.941105 0.984434 0.338339
C152  C     C_3   0.058895 0.283641 0.984434 0.338340
C153  C     C_3   0.716359 0.058895 0.984434 0.338340
C154  C     C_3   0.941105 0.716359 0.984434 0.338340
C155  C     C_3   0.783641 0.441105 0.484434 0.338339
C156  C     C_R   0.000154 0.878572 0.000066 0.847414
C157  C     C_3   0.558894 0.783641 0.484434 0.338339
C158  C     C_3   0.216359 0.558895 0.484434 0.338340
C159  C     C_3   0.441105 0.216359 0.484434 0.338339
C160  C     C_3   0.284474 0.060321 0.986650 -0.333260
C161  C     C_3   0.939679 0.284473 0.986650 -0.333257
C162  C     C_3   0.715526 0.939679 0.986650 -0.333257
C163  C     C_3   0.060321 0.715526 0.986650 -0.333257
C164  C     C_3   0.784474 0.560321 0.486650 -0.333258
C165  C     C_3   0.439679 0.784473 0.486651 -0.333260
C166  C     C_3   0.215526 0.439679 0.486650 -0.333257
C167  C     C_R   0.121428 0.000154 0.000066 0.847413
C168  C     C_3   0.560321 0.215526 0.486650 -0.333259
C169  C     C_R   0.512606 0.055107 0.086034 -0.220285
C170  C     C_R   0.944893 0.512606 0.086034 -0.220286
C171  C     C_R   0.487394 0.944893 0.086034 -0.220285
C172  C     C_R   0.055107 0.487393 0.086034 -0.220285
C173  C     C_R   0.012606 0.555107 0.586034 -0.220286
C174  C     C_R   0.444893 0.012606 0.586034 -0.220286
C175  C     C_R   0.987394 0.444893 0.586034 -0.220285
C176  C     C_R   0.555107 0.987394 0.586034 -0.220285
C177  C     C_R   0.500000 0.000000 0.073357 -0.042884
C178  C     C_R   0.499846 0.621428 0.500066 0.847413
C179  C     C_R   0.000000 0.500000 0.073357 -0.042884
C180  C     C_R   1.000000 0.500000 0.573357 -0.042883
C181  C     C_R   0.500000 0.000000 0.573357 -0.042884
C182  C     C_R   0.500000 0.000000 0.123595 0.309081
C183  C     C_R   0.000000 0.500000 0.123595 0.309080
C184  C     C_R   0.000000 0.500000 0.623595 0.309080
C185  C     C_R   0.500000 0.000000 0.623595 0.309080
C186  C     C_R   0.944953 0.487380 0.889016 -0.092975
C187  C     C_R   0.512620 0.944953 0.889016 -0.092975
C188  C     C_R   0.055047 0.512620 0.889016 -0.092976
C189  C     C_R   0.378572 0.499846 0.500066 0.847414
C190  C     C_R   0.487380 0.055047 0.889016 -0.092976
C191  C     C_R   0.444953 0.987380 0.389016 -0.092977
C192  C     C_R   0.012620 0.444953 0.389016 -0.092976
C193  C     C_R   0.555047 0.012620 0.389016 -0.092976
C194  C     C_R   0.987380 0.555047 0.389016 -0.092976
C195  C     C_R   0.944839 0.487635 0.913996 -0.161156
C196  C     C_R   0.512365 0.944839 0.913996 -0.161156
C197  C     C_R   0.055161 0.512365 0.913996 -0.161156
C198  C     C_R   0.487635 0.055161 0.913996 -0.161156
C199  C     C_R   0.444839 0.987635 0.413996 -0.161159
C200  C     C_R   0.500154 0.378572 0.500066 0.847413
C201  C     C_R   0.012365 0.444839 0.413996 -0.161156
C202  C     C_R   0.555161 0.012365 0.413996 -0.161156
C203  C     C_R   0.987635 0.555161 0.413996 -0.161156
C204  C     C_R   0.000000 0.500000 0.926666 -0.000781
C205  C     C_R   0.500000 0.000000 0.926666 -0.000781
C206  C     C_R   0.500000 1.000000 0.426666 -0.000782
C207  C     C_R   1.000000 0.500000 0.426666 -0.000781
C208  C     C_R   0.542631 0.964383 0.161330 0.503206
C209  C     C_R   0.035617 0.542631 0.161330 0.503206
C210  C     C_R   0.457369 0.035617 0.161330 0.503206
C211  C     C_R   0.621428 0.500154 0.500066 0.847413
C212  C     C_R   0.964383 0.457369 0.161330 0.503206
C213  C     C_R   0.042631 0.464383 0.661331 0.503206
C214  C     C_R   0.535617 0.042631 0.661331 0.503206
C215  C     C_R   0.957369 0.535617 0.661331 0.503205
C216  C     C_R   0.464383 0.957369 0.661331 0.503205
C217  C     C_R   1.000000 0.500000 0.876444 0.293071
C218  C     C_R   0.500000 0.000000 0.876444 0.293071
C219  C     C_R   0.500000 1.000000 0.376444 0.293071
C220  C     C_R   1.000000 0.500000 0.376444 0.293071
C221  C     C_R   0.512879 0.054986 0.111019 -0.100888
C222  C     C_3   0.189524 0.999735 0.999851 0.086326
C223  C     C_R   0.945014 0.512879 0.111019 -0.100887
C224  C     C_R   0.487121 0.945014 0.111019 -0.100888
C225  C     C_R   0.054986 0.487121 0.111019 -0.100888
C226  C     C_R   0.012879 0.554986 0.611019 -0.100887
C227  C     C_R   0.445014 0.012879 0.611019 -0.100887
C228  C     C_R   0.987121 0.445014 0.611019 -0.100887
C229  C     C_R   0.554986 0.987121 0.611019 -0.100888
C230  C     C_R   0.000000 0.500000 0.775324 0.073712
C231  C     C_R   0.500000 0.000000 0.775324 0.073712
C232  C     C_R   0.500000 1.000000 0.275324 0.073712
H1    H     H_    0.902318 0.477260 0.879392 0.153588
H2    H     H_    0.898845 0.194004 0.994654 0.146111
H3    H     H_    0.043384 0.797318 0.035211 0.191354
H4    H     H_    0.702682 0.543385 0.535211 0.191354
H5    H     H_    0.456616 0.702682 0.535211 0.191354
H6    H     H_    0.297318 0.456616 0.535211 0.191354
H7    H     H_    0.543384 0.297318 0.535211 0.191354
H8    H     H_    0.308423 0.036311 0.034963 0.198049
H9    H     H_    0.963689 0.308423 0.034963 0.198048
H10   H     H_    0.691577 0.963690 0.034963 0.198049
H11   H     H_    0.036310 0.691577 0.034963 0.198049
H12   H     H_    0.808423 0.536311 0.534963 0.198049
H13   H     H_    0.805996 0.898845 0.994654 0.146111
H14   H     H_    0.463690 0.808423 0.534963 0.198048
H15   H     H_    0.191577 0.463690 0.534963 0.198049
H16   H     H_    0.536310 0.191577 0.534963 0.198048
H17   H     H_    0.304606 0.953004 0.033105 0.178175
H18   H     H_    0.046996 0.304606 0.033104 0.178175
H19   H     H_    0.695394 0.046997 0.033104 0.178175
H20   H     H_    0.953003 0.695394 0.033104 0.178175
H21   H     H_    0.804606 0.453004 0.533104 0.178175
H22   H     H_    0.546997 0.804606 0.533104 0.178175
H23   H     H_    0.195394 0.546997 0.533104 0.178175
H24   H     H_    0.101155 0.805996 0.994654 0.146111
H25   H     H_    0.453003 0.195394 0.533104 0.178175
H26   H     H_    0.301866 0.898225 0.993202 0.095745
H27   H     H_    0.101775 0.301867 0.993202 0.095745
H28   H     H_    0.698133 0.101775 0.993202 0.095745
H29   H     H_    0.898225 0.698133 0.993202 0.095745
H30   H     H_    0.801867 0.398225 0.493202 0.095745
H31   H     H_    0.601775 0.801867 0.493202 0.095745
H32   H     H_    0.198133 0.601775 0.493202 0.095745
H33   H     H_    0.398225 0.198133 0.493202 0.095745
H34   H     H_    0.196606 0.057323 0.967282 0.235289
H35   H     H_    0.694004 0.601155 0.494654 0.146111
H36   H     H_    0.942677 0.196606 0.967282 0.235289
H37   H     H_    0.803394 0.942677 0.967282 0.235289
H38   H     H_    0.057323 0.803394 0.967282 0.235289
H39   H     H_    0.696606 0.557323 0.467282 0.235289
H40   H     H_    0.442677 0.696606 0.467282 0.235290
H41   H     H_    0.303394 0.442677 0.467282 0.235289
H42   H     H_    0.557323 0.303394 0.467282 0.235289
H43   H     H_    0.303078 0.067198 0.968237 0.224789
H44   H     H_    0.932801 0.303078 0.968237 0.224788
H45   H     H_    0.696922 0.932801 0.968237 0.224788
H46   H     H_    0.398845 0.694003 0.494655 0.146111
H47   H     H_    0.067199 0.696922 0.968237 0.224788
H48   H     H_    0.803078 0.567198 0.468237 0.224789
H49   H     H_    0.432801 0.803078 0.468237 0.224785
H50   H     H_    0.196922 0.432801 0.468237 0.224788
H51   H     H_    0.567199 0.196922 0.468237 0.224788
H52   H     H_    0.281684 0.983163 0.920095 0.398987
H53   H     H_    0.016836 0.281684 0.920095 0.398987
H54   H     H_    0.718316 0.016836 0.920095 0.398987
H55   H     H_    0.983164 0.718315 0.920095 0.398987
H56   H     H_    0.781683 0.483163 0.420095 0.398987
H57   H     H_    0.305996 0.398845 0.494654 0.146111
H58   H     H_    0.516828 0.781692 0.420096 0.398985
H59   H     H_    0.218316 0.516836 0.420095 0.398987
H60   H     H_    0.483165 0.218315 0.420095 0.398987
H61   H     H_    0.197726 0.898341 0.997394 0.118118
H62   H     H_    0.101659 0.197726 0.997394 0.118118
H63   H     H_    0.802274 0.101659 0.997394 0.118118
H64   H     H_    0.898341 0.802274 0.997394 0.118118
H65   H     H_    0.697726 0.398341 0.497394 0.118119
H66   H     H_    0.601659 0.697726 0.497393 0.118117
H67   H     H_    0.302274 0.601659 0.497394 0.118118
H68   H     H_    0.601155 0.305996 0.494654 0.146111
H69   H     H_    0.398341 0.302274 0.497394 0.118118
H70   H     H_    0.299351 0.101461 0.997383 0.181784
H71   H     H_    0.898539 0.299351 0.997383 0.181784
H72   H     H_    0.700648 0.898539 0.997383 0.181783
H73   H     H_    0.522740 0.902318 0.879392 0.153588
H74   H     H_    0.101461 0.700648 0.997383 0.181784
H75   H     H_    0.799351 0.601461 0.497383 0.181784
H76   H     H_    0.398539 0.799351 0.497384 0.181784
H77   H     H_    0.200648 0.398539 0.497383 0.181783
H78   H     H_    0.601461 0.200648 0.497383 0.181784
H79   H     H_    0.189116 0.935817 0.969082 0.240434
H80   H     H_    0.064183 0.189116 0.969082 0.240433
H81   H     H_    0.810884 0.064183 0.969082 0.240434
H82   H     H_    0.935817 0.810884 0.969082 0.240434
H83   H     H_    0.689116 0.435817 0.469082 0.240434
H84   H     H_    0.097682 0.522740 0.879392 0.153588
H85   H     H_    0.564182 0.689116 0.469082 0.240435
H86   H     H_    0.310884 0.564183 0.469082 0.240434
H87   H     H_    0.435817 0.310884 0.469082 0.240434
H88   H     H_    0.899858 0.620964 0.810429 0.194121
H89   H     H_    0.379036 0.899858 0.810429 0.194121
H90   H     H_    0.100142 0.379036 0.810429 0.194121
H91   H     H_    0.620964 0.100142 0.810429 0.194121
H92   H     H_    0.399858 0.120964 0.310429 0.194121
H93   H     H_    0.879036 0.399858 0.310429 0.194121
H94   H     H_    0.600142 0.879036 0.310429 0.194121
H95   H     H_    0.477260 0.097682 0.879392 0.153588
H96   H     H_    0.120964 0.600142 0.310429 0.194121
H97   H     H_    0.620869 0.897027 0.232157 0.145359
H98   H     H_    0.102972 0.620869 0.232157 0.145359
H99   H     H_    0.379131 0.102973 0.232157 0.145359
H100  H     H_    0.897027 0.379131 0.232157 0.145359
H101  H     H_    0.120869 0.397027 0.732157 0.145359
H102  H     H_    0.602972 0.120869 0.732157 0.145359
H103  H     H_    0.879131 0.602972 0.732157 0.145359
H104  H     H_    0.397027 0.879131 0.732157 0.145359
H105  H     H_    0.901780 0.477694 0.923366 0.169122
H106  H     H_    0.402318 0.977260 0.379392 0.153588
H107  H     H_    0.522306 0.901780 0.923366 0.169122
H108  H     H_    0.098220 0.522306 0.923366 0.169122
H109  H     H_    0.477694 0.098220 0.923366 0.169122
H110  H     H_    0.401780 0.977695 0.423366 0.169122
H111  H     H_    0.022306 0.401780 0.423366 0.169122
H112  H     H_    0.598220 0.022305 0.423366 0.169122
H113  H     H_    0.977694 0.598220 0.423366 0.169122
H114  H     H_    0.523213 0.097572 0.120642 0.147522
H115  H     H_    0.902428 0.523213 0.120642 0.147522
H116  H     H_    0.476786 0.902428 0.120642 0.147522
H117  H     H_    0.022740 0.402318 0.379392 0.153588
H118  H     H_    0.097572 0.476787 0.120642 0.147522
H119  H     H_    0.023213 0.597572 0.620642 0.147522
H120  H     H_    0.402428 0.023213 0.620642 0.147522
H121  H     H_    0.976787 0.402428 0.620642 0.147522
H122  H     H_    0.597572 0.976787 0.620642 0.147522
H123  H     H_    0.522763 0.098123 0.076669 0.164018
H124  H     H_    0.901877 0.522763 0.076669 0.164019
H125  H     H_    0.477237 0.901877 0.076669 0.164018
H126  H     H_    0.098123 0.477237 0.076669 0.164018
H127  H     H_    0.022763 0.598123 0.576669 0.164019
H128  H     H_    0.597682 0.022740 0.379392 0.153588
H129  H     H_    0.401877 0.022763 0.576669 0.164019
H130  H     H_    0.977237 0.401876 0.576669 0.164018
H131  H     H_    0.598123 0.977237 0.576669 0.164018
H132  H     H_    0.620099 0.898823 0.189619 0.190323
H133  H     H_    0.101176 0.620099 0.189619 0.190323
H134  H     H_    0.379901 0.101176 0.189619 0.190323
H135  H     H_    0.898824 0.379901 0.189619 0.190323
H136  H     H_    0.120099 0.398824 0.689619 0.190323
H137  H     H_    0.601176 0.120099 0.689619 0.190323
H138  H     H_    0.879901 0.601176 0.689619 0.190323
H139  H     H_    0.977260 0.597682 0.379392 0.153588
H140  H     H_    0.398824 0.879901 0.689619 0.190323
H141  H     H_    0.898070 0.621750 0.767890 0.146030
H142  H     H_    0.378250 0.898070 0.767890 0.146030
H143  H     H_    0.101930 0.378250 0.767890 0.146030
H144  H     H_    0.621750 0.101930 0.767890 0.146030
H145  H     H_    0.398070 0.121751 0.267890 0.146030
H146  H     H_    0.878250 0.398070 0.267890 0.146030
H147  H     H_    0.601930 0.878249 0.267890 0.146030
H148  H     H_    0.121750 0.601930 0.267890 0.146030
H149  H     H_    0.199220 0.959733 0.036131 0.185203
H150  H     H_    0.194004 0.101155 0.994654 0.146111
H151  H     H_    0.040267 0.199220 0.036131 0.185203
H152  H     H_    0.800780 0.040267 0.036131 0.185203
H153  H     H_    0.959732 0.800780 0.036131 0.185203
H154  H     H_    0.699220 0.459733 0.536131 0.185203
H155  H     H_    0.540268 0.699220 0.536131 0.185203
H156  H     H_    0.300780 0.540268 0.536131 0.185203
H157  H     H_    0.459732 0.300780 0.536131 0.185203
H158  H     H_    0.202682 0.043384 0.035211 0.191354
H159  H     H_    0.956615 0.202682 0.035211 0.191354
H160  H     H_    0.797318 0.956616 0.035211 0.191354
N1    N     N_R   0.500000 1.000000 0.149309 -0.354160
N2    N     N_R   0.000000 0.500000 0.149309 -0.354160
N3    N     N_R   0.000000 0.500000 0.649309 -0.354160
N4    N     N_R   0.500000 0.000000 0.649309 -0.354160
N5    N     N_R   0.000000 0.500000 0.850734 -0.354897
N6    N     N_R   0.500000 0.000000 0.850734 -0.354897
N7    N     N_R   0.500000 1.000000 0.350735 -0.354897
N8    N     N_R   1.000000 0.500000 0.350735 -0.354897
O1    O     O_R   0.999980 0.092630 0.020130 -0.631691
O2    O     O_R   0.907310 0.999950 0.979910 -0.615421
O3    O     O_R   0.000050 0.907310 0.979910 -0.615421
O4    O     O_R   0.092690 0.000050 0.979910 -0.615421
O5    O     O_R   0.499950 0.592690 0.479910 -0.615420
O6    O     O_R   0.407310 0.499950 0.479910 -0.615421
O7    O     O_R   0.500050 0.407310 0.479910 -0.615421
O8    O     O_R   0.592690 0.500050 0.479910 -0.615421
O9    O     O_2   0.584799 0.930550 0.148961 -0.564550
O10   O     O_2   0.069450 0.584799 0.148961 -0.564549
O11   O     O_2   0.415201 0.069450 0.148961 -0.564550
O12   O     O_R   0.907370 0.999980 0.020130 -0.631690
O13   O     O_2   0.930550 0.415201 0.148961 -0.564550
O14   O     O_2   0.084799 0.430550 0.648961 -0.564550
O15   O     O_2   0.569450 0.084799 0.648961 -0.564549
O16   O     O_2   0.915201 0.569450 0.648961 -0.564549
O17   O     O_2   0.430550 0.915201 0.648961 -0.564549
O18   O     O_2   0.068731 0.414621 0.851089 -0.543063
O19   O     O_2   0.585379 0.068731 0.851089 -0.543063
O20   O     O_2   0.931269 0.585379 0.851089 -0.543063
O21   O     O_2   0.414621 0.931269 0.851089 -0.543063
O22   O     O_2   0.568731 0.914621 0.351089 -0.543063
O23   O     O_R   0.000020 0.907370 0.020130 -0.631690
O24   O     O_2   0.085379 0.568731 0.351089 -0.543063
O25   O     O_2   0.431269 0.085379 0.351089 -0.543063
O26   O     O_2   0.914621 0.431269 0.351089 -0.543063
O27   O     O_R   0.500000 0.052340 0.035630 -0.627232
O28   O     O_R   0.947660 0.500000 0.035630 -0.627232
O29   O     O_R   0.500000 0.947660 0.035630 -0.627232
O30   O     O_R   0.052340 0.500000 0.035630 -0.627232
O31   O     O_R   0.000000 0.552340 0.535630 -0.627232
O32   O     O_R   0.447660 0.000000 0.535630 -0.627232
O33   O     O_R   0.000000 0.447660 0.535630 -0.627232
O34   O     O_R   0.092630 0.000020 0.020130 -0.631690
O35   O     O_R   0.552340 0.000000 0.535630 -0.627232
O36   O     O_R   0.407370 0.052330 0.000010 -0.637536
O37   O     O_R   0.947670 0.407370 0.000010 -0.637536
O38   O     O_R   0.592630 0.947670 0.000010 -0.637536
O39   O     O_R   0.052330 0.592630 0.000010 -0.637536
O40   O     O_R   0.907370 0.552330 0.500010 -0.637536
O41   O     O_R   0.447670 0.907370 0.500010 -0.637536
O42   O     O_R   0.092630 0.447670 0.500010 -0.637536
O43   O     O_R   0.552330 0.092630 0.500010 -0.637536
O44   O     O_R   0.407380 0.947770 0.000040 -0.612639
O45   O     O_R   0.499980 0.592630 0.520130 -0.631691
O46   O     O_R   0.052230 0.407380 0.000040 -0.612639
O47   O     O_R   0.592620 0.052230 0.000040 -0.612639
O48   O     O_R   0.947770 0.592620 0.000040 -0.612639
O49   O     O_R   0.907380 0.447770 0.500040 -0.612639
O50   O     O_R   0.552230 0.907380 0.500040 -0.612639
O51   O     O_R   0.092620 0.552230 0.500040 -0.612639
O52   O     O_R   0.447770 0.092620 0.500040 -0.612639
O53   O     O_R   0.499940 0.052330 0.964390 -0.603927
O54   O     O_R   0.947670 0.499940 0.964390 -0.603927
O55   O     O_R   0.500060 0.947670 0.964390 -0.603927
O56   O     O_R   0.407370 0.499980 0.520130 -0.631690
O57   O     O_R   0.052330 0.500060 0.964390 -0.603927
O58   O     O_R   0.999940 0.552330 0.464390 -0.603927
O59   O     O_R   0.447670 0.999940 0.464390 -0.603927
O60   O     O_R   0.000060 0.447670 0.464390 -0.603927
O61   O     O_R   0.552330 0.000060 0.464390 -0.603927
O62   O     O_2   0.373592 0.943904 0.949810 -0.326705
O63   O     O_2   0.286877 0.871919 0.944160 -0.273972
O64   O     O_3   0.266836 0.989336 0.936759 -0.581946
O65   O     O_2   0.056096 0.373592 0.949810 -0.326706
O66   O     O_2   0.128081 0.286877 0.944160 -0.273972
O67   O     O_R   0.500020 0.407370 0.520130 -0.631690
O68   O     O_3   0.010663 0.266836 0.936759 -0.581946
O69   O     O_2   0.626408 0.056095 0.949810 -0.326706
O70   O     O_2   0.713123 0.128081 0.944160 -0.273972
O71   O     O_3   0.733164 0.010663 0.936759 -0.581946
O72   O     O_2   0.943905 0.626408 0.949810 -0.326707
O73   O     O_2   0.871919 0.713123 0.944160 -0.273971
O74   O     O_3   0.989337 0.733164 0.936759 -0.581945
O75   O     O_2   0.873591 0.443904 0.449810 -0.326705
O76   O     O_2   0.786877 0.371919 0.444160 -0.273973
O77   O     O_3   0.766836 0.489336 0.436759 -0.581945
O78   O     O_R   0.592630 0.500020 0.520130 -0.631691
O79   O     O_2   0.556095 0.873592 0.449810 -0.326714
O80   O     O_2   0.628080 0.786877 0.444159 -0.273962
O81   O     O_3   0.510662 0.766836 0.436759 -0.581943
O82   O     O_2   0.126408 0.556095 0.449810 -0.326706
O83   O     O_2   0.213123 0.628081 0.444160 -0.273972
O84   O     O_3   0.233164 0.510663 0.436759 -0.581946
O85   O     O_2   0.443905 0.126408 0.449810 -0.326707
O86   O     O_2   0.371919 0.213123 0.444160 -0.273971
O87   O     O_3   0.489337 0.233164 0.436759 -0.581946
O88   O     O_R   0.999950 0.092690 0.979910 -0.615421
S1    S     S_3+6 0.304831 0.935498 0.953079 -0.000931
S2    S     S_3+6 0.064502 0.304831 0.953079 -0.000932
S3    S     S_3+6 0.695169 0.064501 0.953079 -0.000932
S4    S     S_3+6 0.935499 0.695169 0.953079 -0.000932
S5    S     S_3+6 0.804831 0.435498 0.453079 -0.000932
S6    S     S_3+6 0.564501 0.804831 0.453079 -0.000931
S7    S     S_3+6 0.195169 0.564501 0.453079 -0.000932
S8    S     S_3+6 0.435499 0.195169 0.453079 -0.000932
Zn1   Zn    Zn3+2 0.000000 0.000000 0.026880 0.937035
Zn2   Zn    Zn3+2 0.430130 0.999970 0.500000 0.999035
Zn3   Zn    Zn3+2 0.000030 0.430130 0.500000 0.999036
Zn4   Zn    Zn3+2 0.569870 0.000030 0.500000 0.999035
Zn5   Zn    Zn3+2 0.500000 0.500000 0.526880 0.937035
Zn6   Zn    Zn3+2 1.000000 1.000000 0.973170 1.009764
Zn7   Zn    Zn3+2 0.500000 0.500000 0.473170 1.009765
Zn8   Zn    Zn3+2 0.499970 0.069870 0.000000 0.999035
Zn9   Zn    Zn3+2 0.930130 0.499970 0.000000 0.999036
Zn10  Zn    Zn3+2 0.500030 0.930130 0.000000 0.999036
Zn11  Zn    Zn3+2 0.069870 0.500030 0.000000 0.999036
Zn12  Zn    Zn3+2 0.999970 0.569870 0.500000 0.999035

loop_
_geom_bond_atom_site_label_1
_geom_bond_atom_site_label_2
_ccdc_geom_bond_type
O58   Zn12  S    
C16   O52   A    
C130  C146  S    
C63   H143  S    
C36   C42   A    
C184  C226  A    
C4    C177  S    
C55   C93   A    
C7    O32   A    
C70   H97   S    
C3    C42   A    
C12   O40   A    
C188  C217  A    
C132  C151  S    
C166  H77   S    
O50   Zn4   S    
C50   C59   A    
O40   Zn12  S    
C100  O22   S    
C123  H17   S    
C13   C112  S    
C219  N7    S    
C21   H92   S    
C62   C108  A    
C121  H156  S    
C9    O46   A    
C104  O26   S    
C35   C145  S    
C77   H104  S    
O65   S2    D    
C5    C179  S    
C68   C149  S    
C193  H128  S    
C17   C61   A    
C2    C116  S    
C209  O10   S    
O3    Zn6   S    
C19   C63   A    
C100  N7    A    
C63   C105  A    
C117  C126  S    
C74   C83   A    
O35   Zn4   S    
C120  H5    S    
C186  H1    S    
C28   O58   A    
C119  C128  S    
C93   C214  A    
O47   Zn8   S    
C1    O88   A    
C52   C89   A    
C149  C168  S    
C210  O11   S    
C5    O28   A    
O6    Zn7   S    
C115  C123  S    
C150  C159  S    
H59   O84   S    
C176  H131  S    
C48   C74   A    
C187  H73   S    
C155  S5    S    
O84   S7    S    
C90   C152  S    
C112  O12   A    
C79   C160  S    
C97   O19   S    
C23   C37   A    
C117  H160  S    
C149  H68   S    
C82   C91   A    
C221  H114  S    
C9    C90   S    
C144  H38   S    
C174  C227  A    
C54   C92   A    
C84   H137  S    
C50   C76   A    
C12   O49   A    
O55   Zn10  S    
C13   C117  S    
C48   C105  A    
C53   C58   A    
C150  C168  S    
O4    Zn6   S    
O71   S3    S    
C92   C213  A    
C160  H43   S    
O85   S8    D    
C57   C121  S    
C49   C60   A    
C217  N5    S    
C20   C33   A    
C172  C179  A    
C157  H31   S    
C158  H32   S    
C17   H88   S    
C50   C107  A    
C128  H12   S    
C68   C140  S    
C25   C69   A    
C194  H139  S    
C184  C228  A    
C191  H106  S    
C151  S1    S    
C86   H140  S    
C165  H76   S    
C182  C221  A    
C96   N5    A    
C137  H83   S    
C116  H151  S    
C80   H133  S    
C130  H15   S    
C45   C111  A    
C64   C106  A    
C49   C106  A    
C65   H145  S    
C199  H110  S    
C22   C36   A    
C15   O51   A    
C105  C230  A    
C140  C159  S    
C154  H29   S    
C149  H42   S    
O31   Zn12  S    
C163  H47   S    
H60   O87   S    
C20   H91   S    
C33   C97   A    
C84   C93   A    
C228  H121  S    
C61   C107  A    
C15   O42   A    
O39   Zn11  S    
C162  H72   S    
C131  H16   S    
C208  N1    A    
C28   O60   A    
C11   O39   A    
C80   C88   A    
O77   S5    S    
C229  H122  S    
C18   C31   A    
C156  O23   A    
C196  H107  S    
C76   C85   A    
C35   C137  S    
C24   C156  S    
C167  O4    A    
C47   C114  A    
C135  C157  S    
C189  O6    A    
C213  N3    A    
C115  C222  S    
C137  H65   S    
C214  N4    A    
C121  C130  S    
C183  C225  A    
C142  C161  S    
C212  N2    A    
C25   H96   S    
C225  H118  S    
C26   O55   A    
C189  O56   A    
C142  H36   S    
C190  H95   S    
C209  N2    A    
C73   H100  S    
C75   C84   A    
C134  C153  S    
C14   C135  S    
C3    C110  A    
C137  C155  S    
C23   C67   A    
C184  N3    S    
C215  N3    A    
C147  C165  S    
H54   O71   S    
C129  C135  S    
C198  H109  S    
C118  H3    S    
C126  H10   S    
C71   H98   S    
C49   C75   A    
C138  H66   S    
C133  H80   S    
C200  O7    A    
C24   C136  S    
O5    Zn7   S    
C95   C216  A    
C218  N6    S    
O12   Zn1   S    
C11   C113  S    
O73   S4    D    
C169  C177  A    
C162  H45   S    
C112  O2    A    
C101  C126  S    
C54   C59   A    
C75   H102  S    
C62   H142  S    
C33   C40   A    
C7    C181  S    
O45   Zn5   S    
C120  C129  S    
C200  O67   A    
C127  H11   S    
C45   C56   A    
C86   C95   A    
C18   C62   A    
C16   O43   A    
C103  N7    A    
C212  O13   S    
C167  C222  S    
C57   C189  S    
C29   O59   A    
C25   C38   A    
C113  C163  S    
C69   C110  A    
C99   N6    A    
C76   H103  S    
C19   C32   A    
C17   C30   A    
C46   C120  S    
C133  H62   S    
C18   H89   S    
O44   Zn10  S    
C85   H138  S    
C116  C125  S    
C2    C142  S    
C57   C148  S    
C118  C127  S    
C122  C131  S    
C119  H154  S    
C153  S3    S    
C48   C59   A    
C78   H132  S    
C11   O48   A    
C193  C219  A    
C26   O53   A    
C172  H126  S    
O82   S7    D    
C6    C180  S    
C143  H37   S    
C10   O47   A    
O43   Zn4   S    
O79   S6    D    
C15   C146  S    
O68   S2    S    
C104  N8    A    
C168  H51   S    
O41   Zn2   S    
C146  C158  S    
C170  H124  S    
O29   Zn10  S    
C30   C98   A    
O53   Zn8   S    
C182  C224  A    
C34   C103  A    
C170  C179  A    
C141  H34   S    
H55   O74   S    
C208  O9    S    
O37   Zn9   S    
C152  H27   S    
C27   O54   A    
C220  N8    S    
C176  C229  A    
C30   C39   A    
C195  H105  S    
C210  N1    A    
C168  H78   S    
C132  H79   S    
C37   C41   A    
C148  H57   S    
C87   C208  A    
C183  C223  A    
C124  C155  S    
C166  H50   S    
C216  N4    A    
C16   C150  S    
C51   C60   A    
C43   C109  A    
C211  O78   A    
C160  H70   S    
C37   C100  A    
C187  C218  A    
C78   C87   A    
C122  H157  S    
O81   S6    S    
C187  C196  A    
C148  C166  S    
C8    O36   A    
O70   S3    D    
C113  C154  S    
O60   Zn3   S    
C7    O35   A    
C144  H24   S    
C94   C215  A    
H53   O68   S    
O62   S1    D    
C132  C222  S    
C101  C162  S    
C98   N5    A    
C10   O38   A    
C203  H113  S    
C121  H6    S    
C185  C227  A    
C31   C40   A    
C57   C139  S    
C197  C204  A    
C127  H20   S    
C214  O15   S    
C32   C39   A    
O8    Zn7   S    
C102  O24   S    
O86   S8    D    
C44   C58   A    
C67   H147  S    
C8    C79   S    
C98   O20   S    
C192  C201  A    
C31   C99   A    
O61   Zn4   S    
C72   C81   A    
C115  H149  S    
C124  C128  S    
O34   Zn1   S    
C81   C89   A    
C130  H23   S    
C118  H153  S    
C55   C60   A    
C198  C205  A    
C133  C152  S    
C190  C218  A    
H56   O77   S    
C129  H14   S    
C176  C181  A    
C117  H152  S    
C2    C133  S    
C213  O14   S    
C165  H49   S    
C157  S6    S    
H58   O81   S    
C47   C73   A    
C39   C230  A    
C68   C122  S    
C197  H108  S    
C201  H111  S    
C156  O3    A    
C194  C220  A    
C21   C34   A    
C173  H127  S    
C173  C180  A    
C136  H82   S    
C132  H61   S    
C3    C114  A    
C199  C206  A    
C193  C202  A    
C169  H123  S    
C34   C41   A    
C4    O27   A    
C136  C154  S    
C5    O30   A    
C1    O1    A    
C46   C147  S    
C41   C232  A    
O51   Zn12  S    
C135  C165  S    
C145  H35   S    
C40   C231  A    
C134  H81   S    
C175  C180  A    
O36   Zn8   S    
O33   Zn3   S    
C88   C209  A    
C144  C163  S    
H52   O64   S    
C26   C205  S    
C152  S2    S    
C154  S4    S    
C73   C82   A    
C147  H46   S    
C190  C198  A    
C19   H90   S    
O32   Zn2   S    
C140  H87   S    
C66   C114  A    
C21   C65   A    
C10   C101  S    
C223  H115  S    
C66   H146  S    
C195  C204  A    
C185  C229  A    
C158  S7    S    
C22   H93   S    
C36   C104  A    
C173  C226  A    
C175  H130  S    
O67   Zn5   S    
C163  H74   S    
C14   O50   A    
C188  H84   S    
C224  H116  S    
O54   Zn9   S    
O75   S5    D    
C164  H75   S    
C102  N8    A    
C188  C197  A    
C24   C144  S    
C109  C232  A    
C90   C125  S    
O88   Zn6   S    
C13   C143  S    
C182  N1    S    
C175  C228  A    
C170  C223  A    
C119  H4    S    
C107  C230  A    
C28   C207  S    
C148  H41   S    
C126  H19   S    
C131  C150  S    
C215  O16   S    
O69   S3    D    
C153  H28   S    
O80   S6    D    
C131  H25   S    
C140  H69   S    
C124  C164  S    
C70   C78   A    
C13   C134  S    
C46   C178  S    
C35   C119  S    
C23   H94   S    
C226  H119  S    
C51   C77   A    
C171  C224  A    
O59   Zn2   S    
C139  H67   S    
C83   C92   A    
C147  H40   S    
C125  H18   S    
C191  C199  A    
C38   C42   A    
C4    O29   A    
C6    O33   A    
O7    Zn7   S    
O42   Zn3   S    
O78   Zn5   S    
O30   Zn11  S    
C141  H150  S    
O28   Zn9   S    
C44   C71   A    
C1    C2    S    
C172  C225  A    
C161  H71   S    
C196  C205  A    
C35   C211  S    
C227  H120  S    
C22   C66   A    
C202  H112  S    
C134  H63   S    
C155  H30   S    
C67   C109  A    
C65   C111  A    
C185  N4    S    
C51   C108  A    
O23   Zn1   S    
C125  H9    S    
C115  H158  S    
C136  H64   S    
C143  C162  S    
C64   H144  S    
C141  C222  S    
C46   C138  S    
C139  H86   S    
C82   H135  S    
C146  C166  S    
C27   O57   A    
C178  O45   A    
C45   C72   A    
C111  C232  A    
O49   Zn3   S    
C106  C231  A    
C174  C181  A    
C71   C80   A    
C96   O18   S    
C192  H117  S    
C201  C207  A    
C186  C217  A    
C169  C221  A    
C97   N6    A    
C9    O37   A    
C90   C161  S    
O1    Zn1   S    
C27   C204  S    
C174  H129  S    
C186  C195  A    
C167  O34   A    
C81   H134  S    
C139  C158  S    
C55   C95   A    
C211  O8    A    
C191  C219  A    
C103  O25   S    
C83   H136  S    
O48   Zn9   S    
O57   Zn11  S    
C79   C123  S    
C29   C206  S    
C143  H13   S    
O52   Zn2   S    
O87   S8    S    
C99   O21   S    
C20   C64   A    
C53   C91   A    
C161  H44   S    
C120  H155  S    
C85   C94   A    
C141  C160  S    
C122  H7    S    
C12   C124  S    
C101  C153  S    
O83   S7    D    
C128  H21   S    
C116  H159  S    
C8    O44   A    
C178  O5    A    
C203  C207  A    
C32   C96   A    
C77   C86   A    
C43   C70   A    
C202  C206  A    
O76   S5    D    
C192  C220  A    
C29   O61   A    
O63   S1    D    
C79   C151  S    
C123  H8    S    
C52   C87   A    
C171  C177  A    
C91   C212  A    
C74   H101  S    
O56   Zn5   S    
C159  S8    S    
C171  H125  S    
C89   C210  A    
C113  C127  S    
C145  C164  S    
C159  H33   S    
O2    Zn6   S    
C24   C118  S    
O27   Zn8   S    
C68   C200  S    
O38   Zn10  S    
O74   S4    S    
C38   C102  A    
C47   C58   A    
C138  C157  S    
C145  H39   S    
C183  N2    S    
C72   H99   S    
O72   S4    D    
C194  C203  A    
O46   Zn11  S    
C53   C88   A    
O66   S2    D    
C54   C94   A    
C138  H85   S    
C61   H141  S    
C216  O17   S    
C43   C56   A    
C142  H2    S    
C129  H22   S    
C6    O31   A    
C14   O41   A    
C164  H48   S    
C69   H148  S    
O64   S1    S    
C52   C56   A    
C151  H26   S    
C108  C231  A    
C44   C110  A    
