data_mof_unit_60611.cif
_audit_creation_date              2012-12-10T20:48:20-0500
_audit_creation_method            fapswitch 2.2
_symmetry_space_group_name_H-M    P1
_symmetry_Int_Tables_number       1
_space_group_crystal_system       triclinic
_cell_length_a                    16.036629
_cell_length_b                    19.250428
_cell_length_c                    19.22872
_cell_angle_alpha                 94.382422
_cell_angle_beta                  95.200449
_cell_angle_gamma                 90.40627
_cell_volume                      5893.8294054

loop_
_atom_site_label
_atom_site_type_symbol
_atom_type_description
_atom_site_fract_x
_atom_site_fract_y
_atom_site_fract_z
_atom_type_partial_charge
Br1   Br    Br    0.670505 0.767732 0.502276 -0.438525
Br2   Br    Br    0.696794 0.526308 0.762120 -0.366778
Br3   Br    Br    0.703773 0.525002 0.936289 -0.367490
C1    C     C_R   0.509122 0.310715 0.492915 0.508563
C2    C     C_R   0.410459 0.797957 0.512520 -0.170952
C3    C     C_R   0.594132 0.132708 0.523763 0.263113
C4    C     C_R   0.492195 0.689233 0.507601 0.541775
C5    C     C_R   0.587527 0.204642 0.521604 -0.066136
C6    C     C_R   0.525574 0.089229 0.496372 0.218314
C7    C     C_R   0.514824 0.234524 0.491343 -0.019587
C8    C     C_R   0.448117 0.191426 0.461885 -0.164247
C9    C     C_R   0.453109 0.119359 0.464629 -0.115973
C10   C     C_R   0.486303 0.491096 0.233051 0.027730
C11   C     C_R   0.542499 0.531679 0.200954 -0.142216
C12   C     C_1   0.111094 0.482906 0.482805 -0.030707
C13   C     C_R   0.537384 0.532083 0.128375 -0.073056
C14   C     C_R   0.475510 0.491701 0.086229 0.227399
C15   C     C_R   0.419022 0.451807 0.118396 -0.102115
C16   C     C_R   0.509822 0.508665 0.690007 0.543543
C17   C     C_R   0.424554 0.451016 0.191216 -0.139815
C18   C     C_R   0.445897 0.511428 0.872870 -0.126570
C19   C     C_R   0.442298 0.511219 0.800327 -0.187078
C20   C     C_R   0.523797 0.514082 0.913282 0.207192
C21   C     C_R   0.516008 0.512884 0.766707 0.010798
C22   C     C_R   0.594482 0.517545 0.806666 0.162542
C23   C     C_1   0.889055 0.517087 0.517868 -0.012004
C24   C     C_R   0.597883 0.518579 0.880057 0.205669
C25   C     C_R   0.491259 0.492277 0.309891 0.508821
C26   C     C_R   0.724136 0.509917 0.510055 0.524928
C27   C     C_R   0.275998 0.490084 0.490122 0.503839
C28   C     C_1   0.813733 0.513852 0.514358 0.053530
C29   C     C_2   0.979050 0.520779 0.521841 -0.104537
C30   C     C_2   0.021105 0.479176 0.478939 -0.116105
C31   C     C_1   0.186409 0.486145 0.486126 0.027635
C32   C     C_R   0.488120 0.765409 0.508611 0.041710
C33   C     C_R   0.560117 0.806090 0.502324 0.137517
C34   C     C_R   0.553091 0.877765 0.498296 -0.049767
C35   C     C_R   0.474676 0.910365 0.500762 0.196955
C36   C     C_R   0.403848 0.869765 0.508091 -0.111716
H1    H     H_    0.988131 0.441998 0.440518 0.143252
H2    H     H_    0.343243 0.893910 0.510215 0.141380
H3    H     H_    0.354432 0.767512 0.517152 0.142288
H4    H     H_    0.391563 0.213499 0.438041 0.151482
H5    H     H_    0.609321 0.907649 0.493064 0.170647
H6    H     H_    0.400432 0.087271 0.441771 0.153993
H7    H     H_    0.665784 0.056103 0.552377 0.354998
H8    H     H_    0.381752 0.508283 0.770174 0.146459
H9    H     H_    0.387738 0.509731 0.897265 0.160222
H10   H     H_    0.370868 0.420868 0.086814 0.133746
H11   H     H_    0.380067 0.419624 0.214733 0.146440
H12   H     H_    0.581494 0.564404 0.105531 0.167402
H13   H     H_    0.590531 0.563291 0.231929 0.153931
H14   H     H_    0.012010 0.557971 0.560256 0.153413
H15   H     H_    0.640055 0.237358 0.543806 0.173916
N1    N     N_2   0.464809 0.983321 0.496138 -0.233165
N2    N     N_2   0.532610 0.016161 0.500230 -0.256099
N3    N     N_2   0.467618 0.490489 0.011928 -0.240098
N4    N     N_2   0.530232 0.514469 0.987426 -0.192671
O1    O     O_3   0.500000 0.500000 0.500000 -0.455650
O2    O     O_R   0.688130 0.469010 0.547620 -0.517457
O3    O     O_R   0.315580 0.449250 0.449280 -0.537058
O4    O     O_R   0.680710 0.547310 0.468650 -0.515968
O5    O     O_R   0.315580 0.534430 0.534450 -0.539268
O6    O     O_3   0.668104 0.107578 0.554289 -0.673464
O7    O     O_R   0.456860 0.545290 0.655940 -0.537251
O8    O     O_R   0.446440 0.450430 0.339790 -0.544023
O9    O     O_R   0.557290 0.347960 0.537250 -0.544397
O10   O     O_R   0.539410 0.656320 0.467010 -0.493598
O11   O     O_R   0.456880 0.340240 0.450910 -0.537570
O12   O     O_R   0.446420 0.655480 0.544820 -0.542261
O13   O     O_R   0.557280 0.467820 0.657110 -0.496900
O14   O     O_R   0.539420 0.536460 0.347160 -0.543168
Zn1   Zn    Zn3+2 0.430910 0.557800 0.557800 0.964924
Zn2   Zn    Zn3+2 0.574380 0.447110 0.559460 0.996975
Zn3   Zn    Zn3+2 0.563780 0.559000 0.446630 0.994787
Zn4   Zn    Zn3+2 0.430930 0.436090 0.436110 0.943607

loop_
_geom_bond_atom_site_label_1
_geom_bond_atom_site_label_2
_ccdc_geom_bond_type
C20   N4    S    
C2    H3    S    
C23   C29   S    
C16   O13   A    
C32   C33   A    
C13   H12   S    
N1    N2    D    
C4    O12   A    
C36   H2    S    
O10   Zn3   S    
C33   C34   A    
C35   C36   A    
O7    Zn1   S    
O11   Zn4   S    
C3    O6    S    
C17   H11   S    
C4    O10   A    
C11   H13   S    
C35   N1    S    
C13   C14   A    
C10   C25   S    
C8    H4    S    
C11   C13   A    
C20   C24   A    
O1    Zn1   S    
C12   C31   T    
C18   H9    S    
C19   H8    S    
C23   C28   T    
O3    Zn4   S    
C18   C19   A    
C25   O14   A    
C3    C6    A    
O14   Zn3   S    
C27   O5    A    
C1    O11   A    
C18   C20   A    
C30   H1    S    
C27   C31   S    
C21   C22   A    
C5    H15   S    
O9    Zn2   S    
C3    C5    A    
O5    Zn1   S    
H7    O6    S    
C25   O8    A    
C34   C35   A    
C1    O9    A    
C26   O2    A    
O8    Zn4   S    
O12   Zn1   S    
C14   C15   A    
C6    N2    S    
O1    Zn2   S    
C2    C36   A    
C19   C21   A    
O4    Zn3   S    
C1    C7    S    
O1    Zn3   S    
C29   H14   S    
C26   O4    A    
C10   C17   A    
C4    C32   S    
C9    H6    S    
O13   Zn2   S    
C8    C9    A    
C22   C24   A    
C29   C30   D    
C34   H5    S    
Br3   C24   S    
C16   C21   S    
C26   C28   S    
N3    N4    D    
C2    C32   A    
O2    Zn2   S    
C16   O7    A    
Br2   C22   S    
C15   C17   A    
C6    C9    A    
C7    C8    A    
C15   H10   S    
C5    C7    A    
C27   O3    A    
C10   C11   A    
O1    Zn4   S    
C12   C30   S    
Br1   C33   S    
C14   N3    S    
