data_mof_unit_54264.cif
_audit_creation_date              2013-03-05T16:41:06-0500
_audit_creation_method            fapswitch 2.2
_symmetry_space_group_name_H-M    P1
_symmetry_Int_Tables_number       1
_space_group_crystal_system       triclinic
_cell_length_a                    8.322514
_cell_length_b                    10.837762
_cell_length_c                    9.957684
_cell_angle_alpha                 90.577507
_cell_angle_beta                  97.065338
_cell_angle_gamma                 93.401155
_cell_volume                      889.630477206

loop_
_atom_site_label
_atom_site_type_symbol
_atom_site_description
_atom_site_fract_x
_atom_site_fract_y
_atom_site_fract_z
_atom_type_partial_charge
O1    O     O_R   0.500020 0.316790 0.614690 -0.588370
O2    O     O_R   0.500000 0.316760 0.385350 -0.596072
C1    C     C_R   0.502987 0.260823 0.498710 0.952020
O3    O     O_R   0.271760 0.500010 0.587850 -0.574722
O4    O     O_R   0.271740 0.499970 0.358500 -0.559229
C2    C     C_R   0.198855 0.510145 0.465078 0.889366
Zn1   Zn    Zn3+2 0.500010 0.500020 0.653130 1.116104
Zn2   Zn    Zn3+2 0.499990 0.499980 0.346870 1.105715
O5    O     O_R   0.500000 0.683240 0.614650 -0.596627
O6    O     O_R   0.499980 0.683210 0.385310 -0.601388
O7    O     O_R   0.728260 0.500030 0.641500 -0.531412
O8    O     O_R   0.728240 0.499990 0.412150 -0.590683
C3    C     C_R   0.504495 0.739571 0.501548 0.934577
C4    C     C_R   0.802467 0.513423 0.534644 0.856103
C5    C     C_2   0.048311 0.572398 0.446073 0.050602
C6    C     C_2   0.963797 0.577072 0.551037 0.036886
C7    C     C_R   0.531493 0.067181 0.615061 -0.048404
C8    C     C_R   0.511107 0.129726 0.494533 -0.164035
C9    C     C_R   0.497341 0.059682 0.371657 0.302686
C10   C     C_R   0.490298 0.931393 0.377634 -0.145423
H1    H     H_    0.471717 0.879404 0.283075 0.240435
C11   C     C_R   0.510962 0.871357 0.502525 -0.105777
C12   C     C_R   0.538040 0.943599 0.620916 0.010770
C13   C     C_3   0.569147 0.949349 0.773852 0.364633
C14   C     C_3   0.558108 0.090470 0.763691 0.069209
H2    H     H_    0.452227 0.126996 0.803830 0.179843
C15   C     C_R   0.421192 0.405713 0.062166 0.064303
N1    N     N_R   0.498950 0.499140 0.142680 -0.113122
C16   C     C_R   0.588163 0.587391 0.079401 0.363413
C17   C     C_R   0.589810 0.585683 0.937222 0.028952
H3    H     H_    0.659330 0.656361 0.890474 0.204305
N2    N     N_R   0.498950 0.499180 0.857030 -0.113200
C18   C     C_R   0.420249 0.405704 0.920025 0.020859
C19   C     C_3   0.241661 0.365524 0.899247 0.344169
C20   C     C_3   0.246580 0.359754 0.053769 -0.024904
H4    H     H_    0.233792 0.266074 0.096341 0.202887
Br1   Br    Br    0.072882 0.721740 0.344811 -0.247950
N3    N     N_R   0.137451 0.459600 0.839798 0.232552
O9    O     O_R   0.193087 0.574241 0.838533 -0.285395
O10   O     O_R   0.981488 0.434868 0.823456 -0.275554
N4    N     N_R   0.205898 0.246380 0.827356 0.196836
O11   O     O_R   0.200126 0.242331 0.696258 -0.363144
O12   O     O_R   0.152982 0.149262 0.888358 -0.256082
N5    N     N_R   0.139647 0.445304 0.108074 0.256542
O13   O     O_R   0.006738 0.401388 0.151146 -0.300567
O14   O     O_R   0.166476 0.564585 0.101876 -0.262128
N6    N     N_R   0.994215 0.679672 0.646182 0.263792
O15   O     O_R   0.912798 0.684084 0.749011 -0.275973
O16   O     O_R   0.116944 0.759168 0.642103 -0.274996
N7    N     N_R   0.497347 0.114522 0.241102 0.208301
O17   O     O_R   0.626844 0.177745 0.213755 -0.291922
O18   O     O_R   0.392730 0.072021 0.141061 -0.336649
Br2   Br    Br    0.395578 0.871151 0.862142 -0.216052
Br3   Br    Br    0.781618 0.902323 0.851254 -0.180028
N8    N     N_R   0.709725 0.163478 0.808361 0.259015
O19   O     O_R   0.813460 0.193118 0.724466 -0.282504
O20   O     O_R   0.738966 0.202760 0.933314 -0.249079
Br4   Br    Br    0.704466 0.723643 0.174301 -0.303483

loop_
_geom_bond_atom_site_label_1
_geom_bond_atom_site_label_2
_geom_bond_distance
_ccdc_geom_bond_type
C7    C8    1.381532 A    
O4    Zn2   1.917300 S    
N7    O18   1.300928 A    
C12   C13   1.513028 S    
C16   C17   1.417472 A    
C17   N2    1.356694 A    
N4    O11   1.300594 A    
C20   H4    1.108509 S    
Zn2   O8    1.930617 S    
C7    C14   1.486071 S    
N2    C18   1.372574 A    
N8    O19   1.302451 A    
N7    O17   1.301346 A    
C13   Br2   1.939080 S    
N6    O16   1.301429 A    
C14   H2    1.103538 S    
C5    Br1   1.929388 S    
C10   H1    1.082181 S    
Zn1   O7    1.917300 S    
C20   N5    1.466371 S    
N4    O12   1.301711 A    
C9    N7    1.434879 S    
C7    C12   1.345246 A    
C19   N4    1.466886 S    
O3    Zn1   1.930618 S    
O4    C2    1.292420 A    
C16   Br4   1.894120 S    
C6    N6    1.443783 S    
O3    C2    1.304955 A    
N1    C16   1.380607 A    
N3    O10   1.299623 A    
O8    C4    1.300386 A    
C3    C11   1.425976 S    
C18   C19   1.512367 S    
O2    C1    1.284916 A    
N8    O20   1.300437 A    
C17   H3    1.076592 S    
Zn2   N1    2.032139 S    
O7    C4    1.299536 A    
C4    C6    1.462593 S    
C15   C18   1.414456 A    
C10   C11   1.405893 A    
C13   Br3   1.939131 S    
C5    C6    1.331818 D    
N6    O15   1.297453 A    
C14   N8    1.467146 S    
N3    O9    1.300664 A    
C13   C14   1.541216 S    
C1    C8    1.426830 S    
Zn2   O6    2.018573 S    
C19   C20   1.536193 S    
C15   N1    1.365669 A    
Zn1   O5    2.026118 S    
O5    C3    1.289970 A    
C11   C12   1.395956 A    
C8    C9    1.422321 A    
O1    Zn1   2.018574 S    
Zn1   N2    2.031585 S    
C15   C20   1.500097 S    
C2    C5    1.450979 S    
C19   N3    1.460459 S    
O2    Zn2   2.026117 S    
N5    O13   1.300909 A    
C9    C10   1.390298 A    
N5    O14   1.302151 A    
O1    C1    1.302675 A    
O6    C3    1.298675 A    
