data_mof_unit_14842.cif
_audit_creation_date              2012-12-10T18:57:11-0500
_audit_creation_method            fapswitch 2.2
_symmetry_space_group_name_H-M    P1
_symmetry_Int_Tables_number       1
_space_group_crystal_system       triclinic
_cell_length_a                    10.718721
_cell_length_b                    9.837293
_cell_length_c                    10.754607
_cell_angle_alpha                 90.039032
_cell_angle_beta                  90.001642
_cell_angle_gamma                 89.9978
_cell_volume                      1133.9999023

loop_
_atom_site_label
_atom_site_type_symbol
_atom_type_description
_atom_site_fract_x
_atom_site_fract_y
_atom_site_fract_z
_atom_type_partial_charge
C1    C     C_R   0.259882 0.499961 0.499887 0.884638
C2    C     C_R   0.501979 0.618217 0.938042 0.148699
C3    C     C_R   0.499552 0.498133 0.129186 -0.093479
C4    C     C_R   0.504366 0.498358 0.870808 -0.094434
C5    C     C_R   0.505333 0.373870 0.064450 -0.230000
C6    C     C_R   0.507227 0.373960 0.935395 -0.226256
C7    C     C_3   0.495913 0.769982 0.928368 -0.292287
C8    C     C_3   0.489624 0.769704 0.072035 -0.292885
C9    C     C_R   0.063893 0.377975 0.479549 -0.185582
C10   C     C_R   0.936102 0.377947 0.479751 -0.192546
C11   C     C_R   0.872569 0.499946 0.500213 -0.014592
C12   C     C_R   0.740117 0.499950 0.500135 0.881280
C13   C     C_R   0.127429 0.499991 0.499863 -0.008152
C14   C     C_R   0.936100 0.621963 0.520582 -0.160617
C15   C     C_R   0.063899 0.622002 0.520324 -0.170781
C16   C     C_2   0.613276 0.835291 0.879584 0.425802
C17   C     C_2   0.367357 0.823261 0.120937 0.421063
C18   C     C_R   0.593513 0.071987 0.556996 -0.089123
C19   C     C_R   0.406538 0.071904 0.442912 -0.085537
C20   C     C_R   0.593750 0.928124 0.556549 -0.081330
C21   C     C_R   0.406323 0.928035 0.443309 -0.088269
C22   C     C_R   0.499259 0.499822 0.260393 0.919292
C23   C     C_R   0.501527 0.499911 0.739604 0.912906
C24   C     C_R   0.496212 0.617979 0.062153 0.147341
H1    H     H_    0.508109 0.277185 0.112552 0.170944
H2    H     H_    0.331895 0.126292 0.397050 0.128100
H3    H     H_    0.668955 0.873762 0.601358 0.162733
H4    H     H_    0.331232 0.873595 0.398294 0.162683
H5    H     H_    0.621703 0.945156 0.881722 0.042396
H6    H     H_    0.349088 0.931634 0.117073 0.044547
H7    H     H_    0.510319 0.277288 0.887162 0.170311
H8    H     H_    0.409788 0.805391 0.880542 0.139896
H9    H     H_    0.572430 0.813497 0.119919 0.142350
H10   H     H_    0.112497 0.283095 0.462910 0.152715
H11   H     H_    0.887491 0.283044 0.463252 0.157045
H12   H     H_    0.887486 0.716828 0.537285 0.160484
H13   H     H_    0.112516 0.716907 0.536795 0.155915
H14   H     H_    0.668211 0.126438 0.602769 0.132710
N1    N     N_R   0.500000 0.857200 0.500000 -0.085517
N2    N     N_R   0.500000 0.142810 0.500000 -0.077897
O1    O     O_R   0.316770 0.614620 0.499990 -0.624036
O2    O     O_2   0.288757 0.747448 0.165125 -0.562849
O3    O     O_R   0.683230 0.614620 0.500010 -0.625676
O4    O     O_R   0.316800 0.385290 0.500000 -0.635150
O5    O     O_R   0.683200 0.385290 0.500000 -0.635499
O6    O     O_R   0.500000 0.614690 0.316780 -0.599623
O7    O     O_R   0.500000 0.614690 0.683220 -0.600580
O8    O     O_R   0.500020 0.385360 0.316780 -0.634421
O9    O     O_R   0.499980 0.385360 0.683220 -0.632311
O10   O     O_2   0.698873 0.767265 0.837664 -0.568560
Zn1   Zn    Zn3+2 0.500000 0.653120 0.500000 0.978579
Zn2   Zn    Zn3+2 0.500000 0.346880 0.500000 0.945561

loop_
_geom_bond_atom_site_label_1
_geom_bond_atom_site_label_2
_ccdc_geom_bond_type
N1    Zn1   S    
C11   C12   S    
C10   H11   S    
C20   H3    S    
C9    C10   A    
C1    O4    A    
C2    C4    A    
C8    C17   S    
C21   N1    A    
O9    Zn2   S    
O4    Zn2   S    
C14   C15   A    
C6    H7    S    
C18   H14   S    
C7    C8    S    
C14   H12   S    
C17   H6    S    
O3    Zn1   S    
C3    C24   A    
C9    H10   S    
C5    H1    S    
C1    O1    A    
C7    C16   S    
C8    C24   S    
C21   H4    S    
C16   O10   D    
C22   O8    A    
C4    C23   S    
C12   O3    A    
C18   C20   A    
C8    H9    S    
C13   C15   A    
C2    C24   A    
C5    C6    A    
C11   C14   A    
C23   O9    A    
C23   O7    A    
C10   C11   A    
C3    C5    A    
O8    Zn2   S    
C1    C13   S    
C4    C6    A    
C19   N2    A    
C20   N1    A    
C19   H2    S    
C9    C13   A    
C17   O2    D    
C15   H13   S    
C3    C22   S    
C18   N2    A    
C7    H8    S    
O5    Zn2   S    
C22   O6    A    
C16   H5    S    
N2    Zn2   S    
O6    Zn1   S    
O1    Zn1   S    
O7    Zn1   S    
C2    C7    S    
C12   O5    A    
C19   C21   A    
