data_mof_unit_58674.cif
_audit_creation_date              2012-12-10T17:40:25-0500
_audit_creation_method            fapswitch 2.2
_symmetry_space_group_name_H-M    P1
_symmetry_Int_Tables_number       1
_space_group_crystal_system       triclinic
_cell_length_a                    13.702189
_cell_length_b                    15.047686
_cell_length_c                    15.86852
_cell_angle_alpha                 89.546297
_cell_angle_beta                  70.201521
_cell_angle_gamma                 89.607067
_cell_volume                      3078.34255517

loop_
_atom_site_label
_atom_site_type_symbol
_atom_type_description
_atom_site_fract_x
_atom_site_fract_y
_atom_site_fract_z
_atom_type_partial_charge
C1    C     C_R   0.498583 0.671150 0.502546 0.829601
C2    C     C_R   0.496845 0.767636 0.504597 -0.119517
C3    C     C_R   0.583143 0.185254 0.430575 0.189643
C4    C     C_R   0.416953 0.814809 0.569449 0.190324
C5    C     C_R   0.582119 0.091756 0.432523 0.082364
C6    C     C_R   0.417772 0.908301 0.567229 0.083029
C7    C     C_R   0.500649 0.046757 0.498366 0.022647
C8    C     C_R   0.499139 0.953282 0.501279 0.022410
C9    C     C_R   0.420515 0.095023 0.561291 0.118179
C10   C     C_R   0.579237 0.905005 0.438337 0.117876
C11   C     C_R   0.661147 0.042137 0.370437 -0.190123
C12   C     C_R   0.501388 0.328854 0.497525 0.830019
C13   C     C_R   0.338651 0.957919 0.629223 -0.190618
C14   C     C_R   0.659610 0.949697 0.373422 -0.217283
C15   C     C_R   0.340099 0.050341 0.626154 -0.217626
C16   C     C_R   0.437301 0.500484 0.672244 0.794959
C17   C     C_R   0.562699 0.500522 0.327747 0.794993
C18   C     C_R   0.230856 0.548800 0.437170 0.006296
C19   C     C_R   0.769169 0.451178 0.562796 0.005386
C20   C     C_R   0.182318 0.451497 0.563035 0.006085
C21   C     C_R   0.817681 0.548500 0.436948 0.006736
C22   C     C_R   0.078649 0.450420 0.564605 -0.002924
C23   C     C_R   0.376204 0.535828 0.093297 -0.220411
C24   C     C_R   0.921368 0.549568 0.435350 -0.002334
C25   C     C_R   0.051806 0.500027 0.500005 0.088919
C26   C     C_R   0.948215 0.499968 0.499949 0.088920
C27   C     C_R   0.128501 0.549699 0.435467 -0.004336
C28   C     C_R   0.871530 0.450276 0.564476 -0.005636
C29   C     C_R   0.001516 0.401096 0.628912 -0.204146
C30   C     C_R   0.998521 0.598848 0.371002 -0.203803
C31   C     C_R   0.898917 0.401039 0.628861 -0.205965
C32   C     C_R   0.101133 0.598888 0.371037 -0.205682
C33   C     C_R   0.400566 0.506505 0.770283 -0.055422
C34   C     C_R   0.627105 0.518140 0.904548 -0.223161
C35   C     C_R   0.599630 0.503918 0.229509 -0.055657
C36   C     C_R   0.264317 0.530124 0.912249 -0.202752
C37   C     C_R   0.737869 0.508711 0.086284 -0.200971
C38   C     C_R   0.295600 0.519717 0.819750 -0.208757
C39   C     C_R   0.705586 0.504576 0.179395 -0.204713
C40   C     C_R   0.473506 0.503277 0.814128 -0.250687
C41   C     C_R   0.526601 0.508094 0.185752 -0.254173
C42   C     C_R   0.444723 0.517332 0.906729 0.089978
C43   C     C_R   0.556987 0.515600 0.092161 0.090004
C44   C     C_R   0.337817 0.528894 0.956029 0.168773
C45   C     C_R   0.305196 0.539346 0.048444 -0.231819
C46   C     C_R   0.664613 0.513615 0.042378 0.168095
C47   C     C_R   0.518860 0.518727 0.951645 0.064910
C48   C     C_R   0.483501 0.522833 0.046820 0.066243
C49   C     C_3   0.634105 0.255038 0.284593 -0.684017
C50   C     C_3   0.366786 0.747640 0.716538 -0.685053
C51   C     C_R   0.698230 0.516366 0.949316 -0.232641
C52   C     C_R   0.422135 0.187369 0.558932 -0.291226
C53   C     C_R   0.577641 0.812640 0.440774 -0.290429
C54   C     C_R   0.503124 0.232384 0.495352 -0.119367
Cu1   Cu    Cu3+1 0.402580 0.500010 0.499990 0.933047
Cu2   Cu    Cu3+1 0.597420 0.499990 0.500010 0.933262
H1    H     H_    0.223831 0.549646 0.086665 0.141204
H2    H     H_    0.159071 0.637369 0.320649 0.134941
H3    H     H_    0.446075 0.503306 0.226291 0.151305
H4    H     H_    0.552472 0.488184 0.774425 0.147176
H5    H     H_    0.763347 0.501309 0.212003 0.151888
H6    H     H_    0.237961 0.522671 0.787001 0.154006
H7    H     H_    0.182632 0.539782 0.949578 0.130369
H8    H     H_    0.820231 0.507996 0.048493 0.129916
H9    H     H_    0.344339 0.546352 0.164495 0.138330
H10   H     H_    0.660100 0.521710 0.832633 0.144765
H11   H     H_    0.360963 0.224727 0.607695 0.148530
H12   H     H_    0.780368 0.516168 0.910582 0.142991
H13   H     H_    0.638733 0.775258 0.391959 0.148732
H14   H     H_    0.724800 0.074367 0.319441 0.180604
H15   H     H_    0.274983 0.925704 0.680219 0.180689
H16   H     H_    0.721462 0.913066 0.324798 0.143184
H17   H     H_    0.278198 0.086968 0.674731 0.143203
H18   H     H_    0.698600 0.280992 0.383155 0.277225
H19   H     H_    0.568891 0.303530 0.303754 0.220261
H20   H     H_    0.611070 0.195118 0.255521 0.237485
H21   H     H_    0.701624 0.285901 0.232726 0.229838
H22   H     H_    0.302976 0.717932 0.618402 0.276779
H23   H     H_    0.290440 0.587156 0.388292 0.127519
H24   H     H_    0.432346 0.699485 0.698383 0.223390
H25   H     H_    0.299450 0.717420 0.769121 0.231645
H26   H     H_    0.389424 0.808617 0.744269 0.237671
H27   H     H_    0.709599 0.412798 0.611656 0.127628
H28   H     H_    0.204272 0.413445 0.612037 0.123350
H29   H     H_    0.795718 0.586545 0.387945 0.122376
H30   H     H_    0.020509 0.362553 0.679249 0.135052
H31   H     H_    0.979538 0.637357 0.320639 0.133654
H32   H     H_    0.841003 0.362497 0.679197 0.137776
N1    N     N_R   0.256170 0.500070 0.500040 -0.183119
N2    N     N_R   0.743830 0.499930 0.499960 -0.182923
N3    N     N_2   0.662336 0.230714 0.361680 -0.451206
N4    N     N_2   0.338370 0.769457 0.638962 -0.452669
O1    O     O_R   0.417730 0.629750 0.499970 -0.591706
O2    O     O_R   0.582270 0.370250 0.500030 -0.591253
O3    O     O_R   0.582270 0.629730 0.499980 -0.576073
O4    O     O_R   0.417730 0.370270 0.500020 -0.576002
O5    O     O_R   0.371590 0.500020 0.629830 -0.590337
O6    O     O_R   0.628410 0.499980 0.370170 -0.589561
O7    O     O_R   0.536130 0.499990 0.629840 -0.589934
O8    O     O_R   0.463870 0.500010 0.370160 -0.590151

loop_
_geom_bond_atom_site_label_1
_geom_bond_atom_site_label_2
_ccdc_geom_bond_type
Cu2   O3    S    
Cu1   Cu2   S    
C23   C45   A    
C22   C29   A    
C2    C4    A    
C32   H2    S    
Cu1   O1    S    
C53   H13   S    
C34   H10   S    
C11   H14   S    
C7    C8    A    
Cu2   O2    S    
C45   H1    S    
C34   C51   A    
C40   H4    S    
C24   C26   A    
C5    C11   A    
C8    C10   A    
C3    C54   A    
C16   O5    A    
C20   H28   S    
C3    N3    S    
C1    C2    S    
C10   C53   A    
C18   H23   S    
C22   C25   A    
Cu1   O8    S    
C49   H19   S    
C23   C48   A    
Cu2   O6    S    
C36   H7    S    
C17   O6    A    
C37   C46   A    
C51   H12   S    
C40   C42   A    
C41   C43   A    
C12   O2    A    
C9    C52   A    
C42   C44   A    
C49   N3    S    
C19   H27   S    
C43   C46   A    
C52   C54   A    
C21   N2    A    
C39   H5    S    
C21   H29   S    
C33   C40   A    
C41   H3    S    
C4    C6    A    
C10   C14   A    
C5    C7    A    
C6    C8    A    
C13   H15   S    
H22   N4    S    
C25   C26   A    
C46   C51   A    
C1    O1    A    
H18   N3    S    
C35   C39   A    
C16   C33   S    
C47   C48   A    
C1    O3    A    
Cu1   O5    S    
C49   H20   S    
C19   C28   A    
C29   H30   S    
C52   H11   S    
C50   N4    S    
C15   H17   S    
C20   C22   A    
C13   C15   A    
C36   C44   A    
C37   H8    S    
C44   C45   A    
C50   H26   S    
C43   C48   A    
C7    C9    A    
C31   H32   S    
C27   C32   A    
C18   N1    A    
C14   H16   S    
C28   C31   A    
C18   C27   A    
Cu1   O4    S    
C3    C5    A    
C2    C53   A    
C50   H24   S    
C16   O7    A    
C25   C27   A    
C20   N1    A    
C26   C28   A    
C33   C38   A    
C23   H9    S    
C36   C38   A    
C9    C15   A    
Cu1   N1    S    
C19   N2    A    
C6    C13   A    
C30   C32   A    
Cu2   N2    S    
C11   C14   A    
C49   H21   S    
C42   C47   A    
C35   C41   A    
C17   O8    A    
C24   C30   A    
C37   C39   A    
C29   C31   A    
C21   C24   A    
C12   O4    A    
C34   C47   A    
C17   C35   S    
Cu2   O7    S    
C38   H6    S    
C30   H31   S    
C12   C54   S    
C50   H25   S    
C4    N4    S    
