data_mof_unit_30455.cif
_audit_creation_date              2012-10-26T19:48:07-0400
_audit_creation_method            fapswitch 2.2
_symmetry_space_group_name_H-M    P1
_symmetry_Int_Tables_number       1
_space_group_crystal_system       triclinic
_cell_length_a                    10.795118
_cell_length_b                    9.694028
_cell_length_c                    10.590208
_cell_angle_alpha                 89.674138
_cell_angle_beta                  89.41218
_cell_angle_gamma                 89.289843
_cell_volume                      1108.08537324

loop_
_atom_site_label
_atom_site_type_symbol
_atom_type_description
_atom_site_fract_x
_atom_site_fract_y
_atom_site_fract_z
_atom_type_partial_charge
Br1   Br    Br    0.703815 0.159849 0.330440 -0.443407
Br2   Br    Br    0.690415 0.844749 0.317280 -0.430522
Br3   Br    Br    0.289355 0.164611 0.678041 -0.443852
Br4   Br    Br    0.288897 0.839252 0.675599 -0.474647
Br5   Br    Br    0.882918 0.570288 0.219013 -0.474500
Br6   Br    Br    0.857709 0.425776 0.760216 -0.492518
C1    C     C_R   0.261119 0.500695 0.496143 0.544040
C2    C     C_3   0.934932 0.359139 0.451241 -0.199871
C3    C     C_3   0.629391 0.083393 0.487458 0.204651
C4    C     C_3   0.628611 0.914844 0.482494 0.211668
C5    C     C_3   0.447796 0.082286 0.623580 0.136527
C6    C     C_3   0.448262 0.917627 0.623592 0.144691
C7    C     C_3   0.422887 0.083712 0.400666 -0.101641
C8    C     C_3   0.419881 0.919623 0.402846 -0.108803
C9    C     C_R   0.499618 0.500408 0.260213 0.571833
C10   C     C_R   0.739719 0.499746 0.493559 0.619791
C11   C     C_R   0.499738 0.499613 0.739864 0.594918
C12   C     C_3   0.499262 0.501219 0.122830 0.029766
C13   C     C_3   0.496303 0.631421 0.039912 -0.100312
C14   C     C_3   0.398986 0.433584 0.043670 -0.132704
C15   C     C_3   0.396107 0.563644 0.958414 -0.125722
C16   C     C_3   0.499440 0.498891 0.877245 0.035064
C17   C     C_3   0.599592 0.566592 0.956484 -0.066590
C18   C     C_3   0.502274 0.368698 0.960165 -0.100350
C19   C     C_3   0.602487 0.436448 0.041591 -0.071251
C20   C     C_2   0.710697 0.135129 0.596286 0.261071
C21   C     C_2   0.723998 0.857078 0.576121 0.312881
C22   C     C_3   0.074567 0.615815 0.402043 -0.220358
C23   C     C_3   0.071258 0.527185 0.626682 -0.205917
C24   C     C_3   0.931537 0.608484 0.393102 0.023133
C25   C     C_3   0.928463 0.537912 0.624030 -0.007643
C26   C     C_3   0.076265 0.361844 0.443943 -0.240809
C27   C     C_3   0.123771 0.501795 0.492319 -0.020201
C28   C     C_3   0.879570 0.500689 0.490192 0.019412
Cu1   Cu    Cu3+1 0.499860 0.642410 0.500060 1.041690
Cu2   Cu    Cu3+1 0.499860 0.357590 0.500060 0.999356
H1    H     H_    0.311649 0.615415 0.921158 0.169320
H2    H     H_    0.493884 0.739135 0.075014 0.165763
H3    H     H_    0.316938 0.379336 0.082619 0.141052
H4    H     H_    0.681414 0.621660 0.918135 0.211873
H5    H     H_    0.504797 0.261008 0.925005 0.159113
H6    H     H_    0.686765 0.383998 0.078418 0.208678
H7    H     H_    0.118745 0.604355 0.307247 0.165149
H8    H     H_    0.101998 0.441649 0.689948 0.207752
H9    H     H_    0.100665 0.719164 0.437822 0.149691
H10   H     H_    0.108476 0.623856 0.666104 0.173140
H11   H     H_    0.894861 0.711843 0.415393 0.163876
H12   H     H_    0.899513 0.326008 0.358875 0.216161
H13   H     H_    0.901031 0.645984 0.645844 0.171155
H14   H     H_    0.107928 0.345358 0.344673 0.145809
H15   H     H_    0.113076 0.274338 0.500956 0.204542
H16   H     H_    0.675035 0.207173 0.665536 0.174171
H17   H     H_    0.821238 0.861368 0.550617 0.152977
H18   H     H_    0.910133 0.283343 0.522663 0.245276
H19   H     H_    0.503818 0.112372 0.705446 0.091319
H20   H     H_    0.503160 0.884816 0.705515 0.182104
H21   H     H_    0.326438 0.124328 0.408638 0.155388
H22   H     H_    0.322505 0.886246 0.416153 0.157965
H23   H     H_    0.455251 0.118859 0.306289 0.169943
H24   H     H_    0.444762 0.879964 0.307929 0.157931
N1    N     N_3   0.500250 0.143650 0.502780 -0.287603
N2    N     N_3   0.500250 0.856350 0.502780 -0.253755
O1    O     O_R   0.317570 0.620260 0.500070 -0.486880
O2    O     O_2   0.697567 0.808853 0.679394 -0.519995
O3    O     O_R   0.317570 0.379740 0.500070 -0.484230
O4    O     O_R   0.499850 0.620240 0.316900 -0.486846
O5    O     O_R   0.499850 0.379760 0.316900 -0.490748
O6    O     O_R   0.682190 0.620260 0.500030 -0.465648
O7    O     O_R   0.682190 0.379740 0.500030 -0.484714
O8    O     O_R   0.499910 0.620280 0.683200 -0.450134
O9    O     O_R   0.499910 0.379720 0.683200 -0.508882
O10   O     O_2   0.818892 0.099773 0.607252 -0.509585

loop_
_geom_bond_atom_site_label_1
_geom_bond_atom_site_label_2
_ccdc_geom_bond_type
C4    C21   S    
C9    C12   S    
C20   O10   D    
Cu1   Cu2   S    
Cu2   O5    S    
C3    N1    S    
C13   C15   S    
C7    H21   S    
C17   H4    S    
C8    N2    S    
C23   C27   S    
C12   C13   S    
C10   C28   S    
C14   C18   S    
Cu1   O8    S    
C10   O6    A    
Br4   C6    S    
C3    C4    S    
Cu2   O9    S    
Br6   C25   S    
C11   O8    A    
C7    C8    S    
C18   H5    S    
C1    C27   S    
C4    N2    S    
C12   C19   S    
C25   H13   S    
C3    C20   S    
C8    H22   S    
C22   H9    S    
C24   C28   S    
C2    C26   S    
C24   H11   S    
Br1   C3    S    
C18   C19   S    
C2    H18   S    
C14   H3    S    
Cu2   O3    S    
Cu1   O4    S    
C9    O4    A    
C13   C17   S    
C2    H12   S    
C26   H15   S    
C13   H2    S    
C20   H16   S    
C1    O3    A    
C6    N2    S    
C9    O5    A    
C25   C28   S    
C15   H1    S    
C2    C28   S    
C1    O1    A    
C6    H20   S    
C22   C27   S    
C11   O9    A    
C23   H8    S    
C16   C18   S    
Cu2   N1    S    
Br2   C4    S    
C5    H19   S    
Cu2   O7    S    
Br5   C24   S    
C10   O7    A    
C5    N1    S    
C19   H6    S    
C5    C6    S    
C21   H17   S    
C7    H23   S    
C8    H24   S    
C22   H7    S    
C11   C16   S    
C23   H10   S    
C26   C27   S    
C22   C24   S    
C23   C25   S    
Cu1   O6    S    
C26   H14   S    
Cu1   N2    S    
C12   C14   S    
C17   C19   S    
Br3   C5    S    
C21   O2    D    
C7    N1    S    
C14   C15   S    
C16   C17   S    
Cu1   O1    S    
C15   C16   S    
