data_mof_unit_45514.cif
_audit_creation_date              2012-10-26T20:18:14-0400
_audit_creation_method            fapswitch 2.2
_symmetry_space_group_name_H-M    P1
_symmetry_Int_Tables_number       1
_space_group_crystal_system       triclinic
_cell_length_a                    23.557551
_cell_length_b                    8.657907
_cell_length_c                    7.517261
_cell_angle_alpha                 103.536323
_cell_angle_beta                  95.827424
_cell_angle_gamma                 93.872976
_cell_volume                      1476.29735308

loop_
_atom_site_label
_atom_site_type_symbol
_atom_type_description
_atom_site_fract_x
_atom_site_fract_y
_atom_site_fract_z
_atom_type_partial_charge
Br1   Br    Br    0.050930 0.019774 0.264371 -0.383679
Br2   Br    Br    0.949674 0.987056 0.745116 -0.400722
Br3   Br    Br    0.350677 0.745405 0.847861 -0.355955
Br4   Br    Br    0.651401 0.269719 0.142045 -0.342379
Br5   Br    Br    0.319914 0.231957 0.172131 -0.361815
Br6   Br    Br    0.679431 0.771980 0.824612 -0.252169
Br7   Br    Br    0.428437 0.297691 0.896862 -0.251619
Br8   Br    Br    0.571662 0.702108 0.103018 -0.246047
C1    C     C_R   0.498076 0.199524 0.452648 0.553708
C2    C     C_R   0.708661 0.600248 0.655003 0.157642
C3    C     C_R   0.231285 0.410656 0.339201 0.057149
C4    C     C_R   0.768242 0.585579 0.669323 0.054398
C5    C     C_R   0.208693 0.505865 0.490855 0.176536
C6    C     C_R   0.791557 0.500421 0.513402 0.127211
C7    C     C_2   0.496727 0.030842 0.426734 -0.093407
C8    C     C_2   0.503265 0.969154 0.573267 -0.093434
C9    C     C_R   0.390980 0.497956 0.499722 0.588688
C10   C     C_R   0.609041 0.502254 0.500317 0.577323
C11   C     C_R   0.884817 0.642595 0.528853 0.412937
C12   C     C_R   0.501922 0.800474 0.547352 0.552292
C13   C     C_R   0.115498 0.364125 0.480636 0.473401
C14   C     C_R   0.876878 0.359898 0.480018 0.437203
C15   C     C_R   0.123311 0.646505 0.526776 0.461144
C16   C     C_R   0.935294 0.356161 0.454210 0.026873
C17   C     C_R   0.064999 0.650297 0.553945 0.027180
C18   C     C_R   0.970207 0.502904 0.503065 -0.069104
C19   C     C_R   0.030090 0.503642 0.505664 -0.067262
C20   C     C_R   0.945077 0.648822 0.549512 0.028223
C21   C     C_R   0.055249 0.357817 0.459659 0.050312
C22   C     C_R   0.959823 0.211975 0.384334 0.022202
C23   C     C_R   0.245841 0.596555 0.641611 -0.035101
C24   C     C_R   0.040564 0.794502 0.624182 0.026686
C25   C     C_R   0.019824 0.212762 0.389208 0.118724
C26   C     C_R   0.980578 0.793824 0.619999 0.111802
C27   C     C_2   0.923722 0.062216 0.288501 0.394927
C28   C     C_2   0.076816 0.944063 0.719865 0.393738
C29   C     C_2   0.193400 0.328975 0.167243 0.352966
C30   C     C_2   0.806126 0.651187 0.846652 0.357748
C31   C     C_R   0.755179 0.415560 0.357543 0.000811
C32   C     C_R   0.304916 0.597728 0.644028 0.124335
C33   C     C_R   0.695991 0.410978 0.353619 0.131551
C34   C     C_R   0.328240 0.496708 0.499031 0.025473
C35   C     C_R   0.671877 0.505093 0.501956 0.002276
C36   C     C_R   0.290820 0.396948 0.350838 0.081230
Cu1   Cu    Cu3+1 0.506340 0.517380 0.684380 1.196706
Cu2   Cu    Cu3+1 0.493660 0.482620 0.315620 1.198366
H1    H     H_    0.228417 0.669372 0.757356 0.201881
H2    H     H_    0.773344 0.348715 0.239646 0.205311
H3    H     H_    0.490174 0.957304 0.286352 0.178227
H4    H     H_    0.509819 0.042690 0.713649 0.178349
H5    H     H_    0.935000 0.948411 0.311391 0.157800
H6    H     H_    0.065403 0.058123 0.698169 0.164028
H7    H     H_    0.204485 0.220504 0.078137 0.196671
H8    H     H_    0.852315 0.659508 0.850868 0.137134
N1    N     N_R   0.852571 0.501079 0.509348 -0.427963
N2    N     N_R   0.147750 0.505431 0.498308 -0.382952
N3    N     N_2   0.484110 0.456420 0.038520 0.018862
N4    N     N_2   0.515890 0.543580 0.961480 0.017635
O1    O     O_R   0.504120 0.286130 0.619770 -0.499898
O2    O     O_2   0.142062 0.231861 0.485773 -0.408221
O3    O     O_2   0.844818 0.225122 0.481341 -0.383777
O4    O     O_2   0.155031 0.781074 0.522762 -0.389186
O5    O     O_2   0.882671 0.063994 0.176092 -0.382163
O6    O     O_2   0.118211 0.941787 0.830771 -0.407759
O7    O     O_2   0.149813 0.384993 0.119677 -0.456952
O8    O     O_2   0.786554 0.688466 0.993338 -0.397444
O9    O     O_R   0.495880 0.713870 0.380230 -0.500876
O10   O     O_R   0.493410 0.256770 0.308360 -0.467640
O11   O     O_R   0.506590 0.743230 0.691640 -0.469454
O12   O     O_R   0.423230 0.514630 0.655730 -0.460665
O13   O     O_R   0.576770 0.485370 0.344270 -0.458550
O14   O     O_R   0.412530 0.485280 0.344320 -0.460636
O15   O     O_R   0.587470 0.514720 0.655680 -0.466313
O16   O     O_2   0.858176 0.775255 0.526812 -0.384521

loop_
_geom_bond_atom_site_label_1
_geom_bond_atom_site_label_2
_ccdc_geom_bond_type
C19   C21   A    
C12   O9    A    
Br1   C25   S    
C15   N2    A    
C31   C33   A    
Cu1   Cu2   S    
C18   C19   A    
C22   C27   S    
C24   C28   S    
C8    H4    S    
Br4   C33   S    
C7    C8    D    
C21   C25   A    
C23   C32   A    
Cu1   O15   S    
C3    C29   S    
C9    C34   S    
Br8   N4    S    
C6    C31   A    
C15   O4    S    
C30   O8    D    
C29   O7    D    
Cu2   O14   S    
C28   H6    S    
C5    N2    S    
C29   H7    S    
Br2   C26   S    
C17   C24   A    
C32   C34   A    
C6    N1    S    
Cu1   O12   S    
C20   C26   A    
C9    O12   A    
C23   H1    S    
C33   C35   A    
C34   C36   A    
Cu1   N4    S    
Cu1   O11   S    
C13   O2    S    
C13   C21   A    
C1    O1    A    
C24   C26   A    
Cu2   O10   S    
C30   H8    S    
C8    C12   S    
C3    C36   A    
C11   C20   A    
Cu2   O13   S    
C2    C4    A    
Br5   C36   S    
C4    C6    A    
Br3   C32   S    
C10   O15   A    
Cu2   N3    S    
C27   H5    S    
C14   C16   A    
C12   O11   A    
C11   N1    A    
C10   O13   A    
Cu1   O1    S    
C22   C25   A    
C2    C35   A    
C5    C23   A    
C11   O16   S    
C16   C18   A    
Br6   C2    S    
C13   N2    A    
C14   N1    A    
C17   C19   A    
C18   C20   A    
C1    C7    S    
C1    O10   A    
Cu2   O9    S    
C10   C35   S    
C14   O3    S    
C3    C5    A    
N3    N4    D    
C7    H3    S    
C4    C30   S    
C16   C22   A    
C15   C17   A    
C9    O14   A    
C27   O5    D    
C28   O6    D    
Br7   N3    S    
C31   H2    S    
