data_mof_unit_31651.cif
_audit_creation_date              2012-10-26T18:40:21-0400
_audit_creation_method            fapswitch 2.2
_symmetry_space_group_name_H-M    P1
_symmetry_Int_Tables_number       1
_space_group_crystal_system       triclinic
_cell_length_a                    8.735452
_cell_length_b                    15.140007
_cell_length_c                    13.823701
_cell_angle_alpha                 90.00014
_cell_angle_beta                  97.955417
_cell_angle_gamma                 90.00068
_cell_volume                      1810.65589965

loop_
_atom_site_label
_atom_site_type_symbol
_atom_type_description
_atom_site_fract_x
_atom_site_fract_y
_atom_site_fract_z
_atom_type_partial_charge
C1    C     C_R   0.500055 0.329816 0.499995 0.547185
C2    C     C_R   0.595712 0.560033 0.900822 -0.020004
C3    C     C_R   0.501414 0.499066 0.054659 0.035494
C4    C     C_R   0.501384 0.500971 0.945591 0.035243
C5    C     C_R   0.203570 0.499945 0.475056 0.553010
C6    C     C_R   0.796427 0.499963 0.524941 0.552806
C7    C     C_2   0.037839 0.499863 0.461234 -0.156230
C8    C     C_2   0.962153 0.499899 0.538755 -0.155941
C9    C     C_R   0.452567 0.095192 0.578353 -0.121157
C10   C     C_R   0.453676 0.904833 0.413195 -0.120881
C11   C     C_R   0.453474 0.186998 0.578647 -0.130574
C12   C     C_R   0.500032 0.670190 0.500012 0.548150
C13   C     C_R   0.454563 0.813027 0.413067 -0.130018
C14   C     C_R   0.500185 0.233388 0.500001 0.017292
C15   C     C_R   0.500165 0.766629 0.500028 0.018033
C16   C     C_R   0.547057 0.187033 0.421378 -0.130505
C17   C     C_R   0.545940 0.812994 0.586993 -0.129899
C18   C     C_R   0.548224 0.095225 0.421713 -0.121034
C19   C     C_R   0.547104 0.904802 0.586867 -0.120717
C20   C     C_R   0.500448 0.048563 0.500041 0.033748
C21   C     C_R   0.500446 0.951462 0.500032 0.034258
C22   C     C_3   0.701098 0.376209 0.073971 -0.420102
C23   C     C_R   0.406775 0.557527 0.098599 -0.161715
C24   C     C_3   0.699723 0.624533 0.961087 -0.421019
C25   C     C_R   0.407289 0.442217 0.885151 -0.161529
C26   C     C_R   0.407572 0.556931 0.200514 0.034408
C27   C     C_R   0.408057 0.442813 0.783373 0.033185
C28   C     C_R   0.593208 0.442471 0.218088 0.062690
C29   C     C_R   0.592596 0.557853 0.798158 0.064302
C30   C     C_R   0.596368 0.440325 0.115976 -0.020633
Cu1   Cu    Cu3+1 0.500000 0.499990 0.596430 0.933622
Cu2   Cu    Cu3+1 0.500000 0.500010 0.403570 0.933485
H1    H     H_    0.977863 0.499802 0.386861 0.126085
H2    H     H_    0.586257 0.939221 0.654435 0.102491
H3    H     H_    0.332703 0.603609 0.054162 0.095806
H4    H     H_    0.333653 0.395911 0.916676 0.097036
H5    H     H_    0.333915 0.602348 0.233111 0.119622
H6    H     H_    0.334760 0.397193 0.737936 0.119276
H7    H     H_    0.665814 0.397949 0.265506 0.118881
H8    H     H_    0.664733 0.602614 0.763391 0.119641
H9    H     H_    0.631293 0.331115 0.022023 0.137887
H10   H     H_    0.783966 0.412826 0.034828 0.141003
H11   H     H_    0.768269 0.335517 0.131832 0.112265
H12   H     H_    0.022128 0.499915 0.613127 0.126528
H13   H     H_    0.629410 0.669377 0.000770 0.137822
H14   H     H_    0.782988 0.588226 0.014774 0.139942
H15   H     H_    0.766445 0.665469 0.914939 0.110411
H16   H     H_    0.412614 0.060750 0.638794 0.103252
H17   H     H_    0.414597 0.939275 0.345631 0.102419
H18   H     H_    0.415589 0.221634 0.639682 0.117662
H19   H     H_    0.417548 0.778402 0.345277 0.117373
H20   H     H_    0.584849 0.221700 0.360329 0.117862
H21   H     H_    0.582857 0.778340 0.654781 0.117503
H22   H     H_    0.588244 0.060806 0.361279 0.103295
N1    N     N_R   0.500000 0.500020 0.258690 -0.229949
N2    N     N_R   0.500000 0.499980 0.741310 -0.230124
O1    O     O_R   0.500010 0.371450 0.581430 -0.507383
O2    O     O_R   0.499990 0.628550 0.418570 -0.507168
O3    O     O_R   0.500010 0.371460 0.418560 -0.509337
O4    O     O_R   0.499990 0.628540 0.581440 -0.509360
O5    O     O_R   0.274840 0.499990 0.562640 -0.500930
O6    O     O_R   0.725160 0.500010 0.437360 -0.503072
O7    O     O_R   0.274840 0.500000 0.399770 -0.499935
O8    O     O_R   0.725160 0.500000 0.600230 -0.501758

loop_
_geom_bond_atom_site_label_1
_geom_bond_atom_site_label_2
_ccdc_geom_bond_type
Cu1   O4    S    
C3    C30   A    
C2    C4    A    
C5    C7    S    
C26   H5    S    
C10   H17   S    
C29   N2    A    
C1    O1    A    
Cu1   N2    S    
C25   C27   A    
C7    H1    S    
Cu1   O5    S    
Cu2   N1    S    
C3    C23   A    
C22   H11   S    
C28   H7    S    
C12   C15   S    
Cu2   O2    S    
C24   H14   S    
C26   N1    A    
Cu1   O1    S    
C28   C30   A    
C4    C25   A    
Cu2   O6    S    
C7    C8    D    
C11   H18   S    
C22   C30   S    
C9    C11   A    
C6    O6    A    
C1    O3    A    
C22   H10   S    
C12   O2    A    
C2    C29   A    
C24   H13   S    
C29   H8    S    
C17   C19   A    
C28   N1    A    
C18   C20   A    
C13   C15   A    
C10   C21   A    
C2    C24   S    
C16   H20   S    
C23   H3    S    
C14   C16   A    
C22   H9    S    
C18   H22   S    
C27   H6    S    
C5    O5    A    
C3    C4    S    
C12   O4    A    
C17   H21   S    
C20   C21   S    
C5    O7    A    
C9    H16   S    
C16   C18   A    
C23   C26   A    
C6    O8    A    
C11   C14   A    
C15   C17   A    
C27   N2    A    
C6    C8    S    
C1    C14   S    
C9    C20   A    
Cu2   O3    S    
C19   C21   A    
C25   H4    S    
C13   H19   S    
C24   H15   S    
Cu1   O8    S    
C10   C13   A    
Cu1   Cu2   S    
C8    H12   S    
Cu2   O7    S    
C19   H2    S    
