data_mof_unit_58456.cif
_audit_creation_date              2012-12-10T20:26:32-0500
_audit_creation_method            fapswitch 2.2
_symmetry_space_group_name_H-M    P1
_symmetry_Int_Tables_number       1
_space_group_crystal_system       triclinic
_cell_length_a                    10.726949
_cell_length_b                    10.688976
_cell_length_c                    9.871239
_cell_angle_alpha                 90.069228
_cell_angle_beta                  90.49669
_cell_angle_gamma                 89.970707
_cell_volume                      1131.79375869

loop_
_atom_site_label
_atom_site_type_symbol
_atom_type_description
_atom_site_fract_x
_atom_site_fract_y
_atom_site_fract_z
_atom_type_partial_charge
C1    C     C_R   0.501966 0.260201 0.499951 0.933722
C2    C     C_R   0.513475 0.128482 0.500865 -0.040275
C3    C     C_R   0.555920 0.064674 0.385900 -0.210283
C4    C     C_R   0.557020 0.935132 0.386189 -0.210220
C5    C     C_R   0.517351 0.871334 0.502165 -0.075967
C6    C     C_R   0.495698 0.936358 0.621756 0.090106
C7    C     C_3   0.393096 0.925054 0.722726 -0.502165
C8    C     C_3   0.384644 0.067447 0.719678 -0.218992
C9    C     C_R   0.429591 0.415384 0.070428 0.225370
C10   C     C_R   0.577563 0.576063 0.072800 -0.131752
C11   C     C_R   0.577516 0.576128 0.928852 -0.125059
C12   C     C_R   0.262562 0.500520 0.499402 0.961955
C13   C     C_R   0.429680 0.415307 0.927877 0.199808
C14   C     C_3   0.291426 0.402909 0.920802 -0.489459
C15   C     C_3   0.291289 0.403458 0.074406 -0.514308
C16   C     C_R   0.502795 0.739830 0.500192 0.878718
C17   C     C_R   0.737354 0.494692 0.500563 0.924518
C18   C     C_2   0.932479 0.470844 0.387665 -0.156882
C19   C     C_2   0.868428 0.475488 0.502777 -0.326190
C20   C     C_2   0.066699 0.463430 0.390991 -0.160926
C21   C     C_2   0.130613 0.505820 0.498104 -0.321751
C22   C     C_R   0.489603 0.063346 0.619649 0.057174
H1    H     H_    0.886779 0.474308 0.289065 0.175465
H2    H     H_    0.413411 0.112354 0.816727 0.133687
H3    H     H_    0.638333 0.639348 0.127757 0.144971
H4    H     H_    0.638200 0.639502 0.875223 0.149663
H5    H     H_    0.245137 0.486368 0.875800 0.221089
H6    H     H_    0.262060 0.311960 0.876637 0.224387
H7    H     H_    0.245693 0.487864 0.117385 0.216589
H8    H     H_    0.261384 0.312944 0.118897 0.212597
H9    H     H_    0.911411 0.461598 0.601489 0.158905
H10   H     H_    0.113176 0.426320 0.302412 0.168744
H11   H     H_    0.087357 0.547700 0.586036 0.144611
H12   H     H_    0.582194 0.113986 0.294671 0.164658
H13   H     H_    0.582916 0.885690 0.294760 0.164124
H14   H     H_    0.310329 0.875002 0.680713 0.203411
H15   H     H_    0.427652 0.888239 0.821434 0.201859
N1    N     N_R   0.499170 0.499140 0.142800 -0.109382
N2    N     N_R   0.499170 0.499180 0.857150 -0.107699
O1    O     O_R   0.500020 0.316790 0.614690 -0.629051
O2    O     O_R   0.500000 0.316760 0.385350 -0.622150
O3    O     O_R   0.319080 0.500020 0.614640 -0.622455
O4    O     O_R   0.319070 0.499980 0.385300 -0.612690
O5    O     O_R   0.500000 0.683240 0.614650 -0.619541
O6    O     O_R   0.499980 0.683210 0.385310 -0.624257
O7    O     O_R   0.680930 0.500020 0.614700 -0.623438
O8    O     O_R   0.680920 0.499980 0.385360 -0.624728
Zn1   Zn    Zn3+2 0.500010 0.500020 0.653130 0.949026
Zn2   Zn    Zn3+2 0.499990 0.499980 0.346870 0.949564
C23   C     C_2   0.259627 0.112520 0.667030 0.942291
O9    O     O_2   0.169450 0.107888 0.741711 -0.639061
O10   O     O_R   0.245519 0.157880 0.534980 -0.819090
H16   H     H_    0.157006 0.185507 0.514018 0.340758

loop_
_geom_bond_atom_site_label_1
_geom_bond_atom_site_label_2
_ccdc_geom_bond_type
C16   O6    A    
C2    C22   A    
C8    C22   S    
C6    C7    S    
C8    H2    S    
C14   H5    S    
C7    H14   S    
C16   O5    A    
C23   O10   S    
C1    O1    A    
O6    Zn2   S    
C10   N1    A    
C19   H9    S    
C20   C21   D    
C23   O9    D    
C7    H15   S    
C4    H13   S    
C7    C8    S    
O8    Zn2   S    
N1    Zn2   S    
O3    Zn1   S    
C13   C14   S    
C17   O7    A    
C11   N2    A    
C3    H12   S    
C15   H8    S    
C10   H3    S    
O2    Zn2   S    
C9    N1    A    
C17   C19   S    
C15   H7    S    
C12   O4    A    
C2    C3    A    
C9    C15   S    
C5    C6    A    
O7    Zn1   S    
C13   N2    A    
C21   H11   S    
C10   C11   A    
C18   H1    S    
C6    C22   A    
C8    C23   S    
O5    Zn1   S    
O10   H16   S    
C18   C20   S    
C1    C2    S    
C20   H10   S    
C1    O2    A    
O1    Zn1   S    
C9    C13   A    
C14   C15   S    
C18   C19   D    
C5    C16   S    
C12   O3    A    
C11   H4    S    
C14   H6    S    
C12   C21   S    
O4    Zn2   S    
C3    C4    A    
C17   O8    A    
C4    C5    A    
N2    Zn1   S    
