data_mof_unit_25843.cif
_audit_creation_date              2013-03-05T16:13:55-0500
_audit_creation_method            fapswitch 2.2
_symmetry_space_group_name_H-M    P1
_symmetry_Int_Tables_number       1
_space_group_crystal_system       triclinic
_cell_length_a                    10.729763
_cell_length_b                    9.898246
_cell_length_c                    17.585002
_cell_angle_alpha                 90.03021
_cell_angle_beta                  92.602555
_cell_angle_gamma                 90.027157
_cell_volume                      1865.70293248

loop_
_atom_site_label
_atom_site_type_symbol
_atom_site_description
_atom_site_fract_x
_atom_site_fract_y
_atom_site_fract_z
_atom_type_partial_charge
O1    O     O_R   0.316770 0.614620 0.500000 -0.583590
O2    O     O_R   0.683230 0.385380 0.500000 -0.580565
O3    O     O_R   0.683230 0.614620 0.500000 -0.582584
O4    O     O_R   0.316770 0.385380 0.500000 -0.580084
C1    C     C_R   0.260693 0.499443 0.507609 0.968925
C2    C     C_R   0.739268 0.499475 0.492291 0.969259
O5    O     O_R   0.500010 0.614710 0.389120 -0.561005
O6    O     O_R   0.499990 0.385290 0.610880 -0.589440
O7    O     O_R   0.499990 0.614710 0.610880 -0.562679
O8    O     O_R   0.500010 0.385290 0.389120 -0.590776
C3    C     C_R   0.062240 0.372689 0.510304 0.480995
C4    C     C_R   0.938798 0.620121 0.486614 0.457167
C5    C     C_R   0.937553 0.372744 0.489184 0.477828
C6    C     C_R   0.061250 0.620085 0.513223 0.457850
C7    C     C_R   0.504638 0.499777 0.353217 0.953667
C8    C     C_R   0.495424 0.499783 0.646741 0.954490
Zn1   Zn    Zn3+2 0.500000 0.653120 0.500000 1.114397
Zn2   Zn    Zn3+2 0.500000 0.346880 0.500000 1.108260
C9    C     C_R   0.872751 0.497091 0.483713 -0.502292
C10   C     C_R   0.127169 0.497019 0.516007 -0.498521
N1    N     N_R   0.500000 0.857200 0.500000 -0.214913
N2    N     N_R   0.500000 0.142800 0.500000 -0.227487
C11   C     C_R   0.551477 0.559133 0.858350 0.216378
C12   C     C_R   0.560140 0.350879 0.161121 0.228337
C13   C     C_R   0.445918 0.562589 0.142107 0.214430
C14   C     C_R   0.427841 0.353819 0.837824 0.230325
C15   C     C_R   0.542225 0.587251 0.780155 0.187588
C16   C     C_R   0.575458 0.380110 0.238876 0.236616
C17   C     C_R   0.459168 0.590667 0.220263 0.187979
C18   C     C_R   0.416984 0.383127 0.759926 0.238834
C19   C     C_R   0.481887 0.494117 0.729935 -0.341027
C20   C     C_R   0.516276 0.494157 0.269793 -0.339997
C21   C     C_R   0.577742 0.072436 0.549004 0.241726
C22   C     C_R   0.411320 0.929905 0.457794 0.231047
C23   C     C_R   0.422323 0.072139 0.450913 0.241734
C24   C     C_R   0.588766 0.930185 0.542145 0.227978
C25   C     C_R   0.497702 0.440540 0.886053 -0.207352
C26   C     C_R   0.492525 0.440814 0.113779 -0.206455
C27   C     C_1   0.494920 0.423778 0.966096 0.227054
C28   C     C_1   0.492751 0.423878 0.033645 0.227135
N3    N     N_R   0.610164 0.654746 0.910237 0.251016
O9    O     O_R   0.572732 0.779754 0.910871 -0.197703
O10   O     O_R   0.698552 0.616188 0.958511 -0.288501
N4    N     N_R   0.619508 0.234653 0.129557 0.255709
O11   O     O_R   0.738633 0.214935 0.141737 -0.222978
O12   O     O_R   0.555853 0.151981 0.085259 -0.231813
N5    N     N_R   0.391405 0.661482 0.090720 0.250998
O13   O     O_R   0.437092 0.783183 0.088820 -0.196907
O14   O     O_R   0.299394 0.628581 0.043568 -0.286822
N6    N     N_R   0.362507 0.240636 0.868425 0.254974
O15   O     O_R   0.243511 0.225026 0.853386 -0.222555
O16   O     O_R   0.420726 0.156029 0.914134 -0.235181
N7    N     N_R   0.591904 0.711527 0.753183 0.271002
O17   O     O_R   0.706562 0.744861 0.772076 -0.220576
O18   O     O_R   0.515449 0.803987 0.726713 -0.263184
N8    N     N_R   0.661075 0.301805 0.285476 0.239602
O19   O     O_R   0.647241 0.171732 0.291600 -0.257226
O20   O     O_R   0.763199 0.358549 0.312199 -0.397941
N9    N     N_R   0.417645 0.718403 0.247738 0.272407
O21   O     O_R   0.306209 0.761579 0.228031 -0.217048
O22   O     O_R   0.499410 0.803585 0.276438 -0.268171
N10   N     N_R   0.330762 0.307954 0.712024 0.236405
O23   O     O_R   0.342646 0.177868 0.704601 -0.263450
O24   O     O_R   0.229535 0.367143 0.685900 -0.398932
N11   N     N_R   0.641221 0.139920 0.611512 0.258121
O25   O     O_R   0.746392 0.201169 0.602095 -0.257376
O26   O     O_R   0.609886 0.112342 0.680375 -0.264956
N12   N     N_R   0.300054 0.867765 0.425634 0.267919
O27   O     O_R   0.305204 0.762838 0.382036 -0.277604
O28   O     O_R   0.193384 0.929011 0.430366 -0.206172
N13   N     N_R   0.358844 0.139107 0.388252 0.257331
O29   O     O_R   0.255118 0.202866 0.398010 -0.260452
O30   O     O_R   0.386977 0.107206 0.319359 -0.261576
N14   N     N_R   0.700228 0.868367 0.574088 0.267847
O31   O     O_R   0.695438 0.763212 0.617451 -0.274249
O32   O     O_R   0.806847 0.929709 0.569105 -0.205165
O33   O     O_3   0.117166 0.248097 0.522683 -0.572119
H1    H     H_    0.178428 0.256143 0.566033 0.392497
O34   O     O_3   0.886197 0.742161 0.465364 -0.583089
H2    H     H_    0.825902 0.725112 0.421997 0.354673
O35   O     O_3   0.882467 0.248232 0.476570 -0.572694
H3    H     H_    0.821111 0.256591 0.433303 0.391487
O36   O     O_3   0.113967 0.742090 0.534619 -0.583443
H4    H     H_    0.174102 0.724981 0.578041 0.354661

loop_
_geom_bond_atom_site_label_1
_geom_bond_atom_site_label_2
_geom_bond_distance
_ccdc_geom_bond_type
O2    Zn2   2.002430 S    
N3    O9    1.301289 A    
O3    C2    1.298762 A    
O35   H3    0.986790 S    
C16   N8    1.431487 S    
C21   N11   1.431484 S    
C7    C20   1.478964 S    
N5    O14   1.301283 A    
N1    C24   1.383105 A    
O33   H1    0.986884 S    
C8    C19   1.477809 S    
C2    C9    1.447154 S    
N14   O32   1.301382 A    
O1    C1    1.298642 A    
O7    C8    1.302940 A    
C17   C20   1.414075 A    
O8    C7    1.299546 A    
C14   N6    1.438838 S    
C18   C19   1.415367 A    
C4    O34   1.378173 S    
C5    O35   1.380078 S    
C21   C24   1.418578 A    
N8    O19   1.301035 A    
C22   C23   1.418454 A    
N10   O24   1.299833 A    
C3    O33   1.380183 S    
O36   H4    0.991740 S    
N12   O27   1.293282 A    
N11   O26   1.300456 A    
C12   C26   1.399431 A    
C11   C15   1.402193 A    
C13   N5    1.438865 S    
O4    Zn2   2.002786 S    
O5    C7    1.302860 A    
C23   N13   1.431962 S    
N9    O21   1.302081 A    
O6    C8    1.298660 A    
N3    O10   1.301267 A    
O2    C2    1.289284 A    
C6    O36   1.378212 S    
N4    O12   1.301307 A    
N7    O18   1.301421 A    
C13   C17   1.402918 A    
C1    C10   1.447116 S    
C3    C10   1.415142 A    
N9    O22   1.301518 A    
N14   O31   1.292988 A    
C5    C9    1.415095 A    
C15   C19   1.412621 A    
C6    C10   1.408632 A    
C16   C20   1.415816 A    
C22   N12   1.435632 S    
C27   C28   1.189126 T    
N13   O30   1.300541 A    
N1    C22   1.382466 A    
O5    Zn1   1.986355 S    
C11   C25   1.404882 A    
Zn1   N1    2.020034 S    
N10   O23   1.301060 A    
N2    C23   1.364704 A    
C13   C26   1.404884 A    
N6    O16   1.301244 A    
N5    O13   1.301356 A    
N6    O15   1.301202 A    
C24   N14   1.435375 S    
O7    Zn1   1.986747 S    
C4    C6    1.374550 A    
C14   C18   1.400063 A    
C18   N10   1.430739 S    
C12   N4    1.438575 S    
N4    O11   1.301208 A    
N2    C21   1.363600 A    
Zn2   N2    2.020034 S    
C12   C16   1.399799 A    
O4    C1    1.289354 A    
C15   N7    1.430110 S    
C14   C25   1.399597 A    
N7    O17   1.301978 A    
O1    Zn1   2.002431 S    
C11   N3    1.439120 S    
N13   O29   1.297804 A    
C25   C27   1.419050 S    
C26   C28   1.419118 S    
C3    C5    1.372115 A    
O8    Zn2   1.986749 S    
C4    C9    1.408420 A    
N8    O20   1.299763 A    
O3    Zn1   2.002785 S    
O6    Zn2   1.986353 S    
O34   H2    0.991735 S    
N12   O28   1.301412 A    
N11   O25   1.298008 A    
C17   N9    1.431772 S    
