data_mof_unit_60225.cif
_audit_creation_date              2012-12-10T19:39:35-0500
_audit_creation_method            fapswitch 2.2
_symmetry_space_group_name_H-M    P1
_symmetry_Int_Tables_number       1
_space_group_crystal_system       triclinic
_cell_length_a                    15.847823
_cell_length_b                    17.08774
_cell_length_c                    17.301887
_cell_angle_alpha                 89.404759
_cell_angle_beta                  96.714913
_cell_angle_gamma                 84.493537
_cell_volume                      4630.69064395

loop_
_atom_site_label
_atom_site_type_symbol
_atom_type_description
_atom_site_fract_x
_atom_site_fract_y
_atom_site_fract_z
_atom_type_partial_charge
C1    C     C_R   0.509672 0.348856 0.501238 0.946412
C2    C     C_R   0.490062 0.651022 0.498511 0.952952
C3    C     C_R   0.511791 0.263098 0.505020 -0.325635
C4    C     C_R   0.485336 0.736555 0.491895 -0.318653
C5    C     C_R   0.459143 0.225022 0.449217 0.256491
C6    C     C_R   0.513859 0.771489 0.427067 0.273680
C7    C     C_R   0.450165 0.144839 0.458265 0.327626
C8    C     C_R   0.512633 0.853168 0.421590 0.311320
C9    C     C_R   0.499022 0.100958 0.521124 0.099151
C10   C     C_R   0.482231 0.900539 0.479945 0.096545
C11   C     C_R   0.551124 0.139470 0.576620 0.309891
C12   C     C_R   0.447823 0.865697 0.542732 0.329418
C13   C     C_R   0.556835 0.220448 0.569424 0.280344
C14   C     C_R   0.451131 0.783468 0.549112 0.264681
C15   C     C_R   0.252719 0.460716 0.538492 0.654170
C16   C     C_R   0.747428 0.539226 0.461550 0.659994
C17   C     C_R   0.163887 0.464171 0.540771 0.149108
C18   C     C_R   0.836239 0.535678 0.459077 0.145835
C19   C     C_R   0.108686 0.518274 0.490877 -0.000969
C20   C     C_R   0.891487 0.481786 0.509070 -0.006059
C21   C     C_R   0.146354 0.567473 0.442012 0.478442
C22   C     C_R   0.853886 0.433078 0.558396 0.472898
C23   C     C_R   0.511244 0.500042 0.650470 0.966155
C24   C     C_R   0.488687 0.500946 0.349034 0.946186
C25   C     C_R   0.235449 0.562130 0.442283 0.619690
C26   C     C_R   0.764799 0.438538 0.558261 0.607708
C27   C     C_R   0.518775 0.497921 0.735428 -0.371272
C28   C     C_R   0.481943 0.507160 0.263340 -0.396548
C29   C     C_R   0.466207 0.451895 0.772608 0.586863
C30   C     C_R   0.548630 0.537438 0.229114 0.598485
C31   C     C_R   0.473373 0.447102 0.853425 0.303350
C32   C     C_R   0.543996 0.547171 0.148955 0.291155
C33   C     C_R   0.533742 0.488454 0.897862 -0.250253
C34   C     C_R   0.473819 0.523367 0.100755 -0.239088
C35   C     C_R   0.588112 0.533268 0.861227 0.373329
C36   C     C_R   0.405574 0.494726 0.133809 0.355658
C37   C     C_R   0.580027 0.538976 0.779845 0.285948
C38   C     C_R   0.409203 0.486550 0.215000 0.302905
C39   C     C_2   0.537152 0.488386 0.982585 0.023128
C40   C     C_2   0.472687 0.524884 0.015852 0.028573
Cu1   Cu    Cu3+1 0.585060 0.496170 0.503810 1.168211
Cu2   Cu    Cu3+1 0.414940 0.503830 0.496190 1.179233
H1    H     H_    0.415805 0.550846 0.979922 0.209966
H2    H     H_    0.593835 0.460724 0.017466 0.210100
N1    N     N_2   0.496234 0.018829 0.532221 -0.066002
N2    N     N_2   0.484443 0.982754 0.470475 -0.072726
N3    N     N_R   0.287170 0.509590 0.490460 -0.361197
N4    N     N_R   0.712830 0.490410 0.509540 -0.369233
N5    N     N_2   0.017441 0.529484 0.490519 -0.020472
N6    N     N_2   0.982717 0.470546 0.509360 -0.018396
O1    O     O_R   0.579730 0.382480 0.503570 -0.545503
O2    O     O_R   0.420270 0.617520 0.496430 -0.536604
O3    O     O_R   0.436070 0.388960 0.497130 -0.515191
O4    O     O_R   0.563930 0.611040 0.502870 -0.525831
O5    O     O_R   0.580160 0.496380 0.617190 -0.522120
O6    O     O_R   0.419840 0.503620 0.382810 -0.517807
O7    O     O_R   0.436500 0.502850 0.610750 -0.518175
O8    O     O_R   0.563500 0.497150 0.389250 -0.514894
F1    F     F_    0.409358 0.409824 0.730296 -0.510013
F2    F     F_    0.618358 0.559576 0.273477 -0.495012
F3    F     F_    0.695380 0.591666 0.414635 -0.486351
F4    F     F_    0.305054 0.408839 0.586101 -0.505608
Cl1   Cl    Cl    0.872783 0.595849 0.388995 -0.233116
Cl2   Cl    Cl    0.127256 0.403813 0.610638 -0.243231
F5    F     F_    0.096464 0.621074 0.394147 -0.487078
F6    F     F_    0.903839 0.379996 0.606796 -0.484455
F7    F     F_    0.270045 0.610361 0.394661 -0.535257
F8    F     F_    0.730614 0.391537 0.607125 -0.513308
Cl3   Cl    Cl    0.323185 0.447213 0.253557 -0.320797
Cl4   Cl    Cl    0.643583 0.601431 0.734721 -0.381562
Cl5   Cl    Cl    0.664590 0.584641 0.917205 -0.302681
Cl6   Cl    Cl    0.316348 0.466138 0.073182 -0.314945
Cl7   Cl    Cl    0.625824 0.593566 0.111386 -0.299849
Cl8   Cl    Cl    0.407392 0.386902 0.897637 -0.310715
Cl9   Cl    Cl    0.547429 0.713543 0.350278 -0.315773
Cl10  Cl    Cl    0.403629 0.277963 0.367177 -0.385008
Cl11  Cl    Cl    0.550228 0.897416 0.341074 -0.296031
Cl12  Cl    Cl    0.371900 0.103266 0.393929 -0.304280
Cl13  Cl    Cl    0.608671 0.085155 0.656576 -0.294445
Cl14  Cl    Cl    0.395411 0.922989 0.610865 -0.300801
Cl15  Cl    Cl    0.615172 0.268818 0.644720 -0.321071
Cl16  Cl    Cl    0.413726 0.739016 0.629781 -0.411592

loop_
_geom_bond_atom_site_label_1
_geom_bond_atom_site_label_2
_ccdc_geom_bond_type
C9    N1    S    
C27   C29   A    
Cu1   Cu2   S    
C25   F7    S    
C15   N3    A    
C16   N4    A    
C6    Cl9   S    
N1    N2    D    
C33   C39   S    
C34   C40   S    
C35   C37   A    
Cu1   O8    S    
Cu2   O3    S    
C18   Cl1   S    
C13   Cl15  S    
C15   C17   A    
C1    O3    A    
C22   F6    S    
C20   N6    S    
Cu2   O6    S    
C15   F4    S    
C40   H1    S    
Cu1   O5    S    
C29   F1    S    
C30   F2    S    
C10   N2    S    
C31   C33   A    
C11   Cl13  S    
C23   C27   S    
C25   N3    A    
C34   C36   A    
C3    C13   A    
C26   N4    A    
C38   Cl3   S    
C35   Cl5   S    
C37   Cl4   S    
C10   C12   A    
Cu2   O7    S    
C4    C6    A    
C2    O4    A    
C32   Cl7   S    
C5    C7    A    
C17   C19   A    
C31   Cl8   S    
C6    C8    A    
C1    C3    S    
C32   C34   A    
C2    C4    S    
C9    C11   A    
C19   N5    S    
C28   C38   A    
C1    O1    A    
C2    O2    A    
C7    Cl12  S    
C24   O8    A    
C20   C22   A    
C8    Cl11  S    
C16   F3    S    
C14   Cl16  S    
C39   C40   D    
C23   O7    A    
C21   C25   A    
C21   F5    S    
C8    C10   A    
C24   C28   S    
C12   C14   A    
C3    C5    A    
C23   O5    A    
C39   H2    S    
C24   O6    A    
C26   F8    S    
C5    Cl10  S    
C28   C30   A    
C29   C31   A    
C30   C32   A    
C11   C13   A    
C27   C37   A    
C12   Cl14  S    
C36   C38   A    
C33   C35   A    
Cu1   N4    S    
C18   C20   A    
Cu2   N3    S    
C4    C14   A    
Cu1   O4    S    
C7    C9    A    
C16   C18   A    
N5    N6    D    
C22   C26   A    
C17   Cl2   S    
Cu1   O1    S    
C36   Cl6   S    
Cu2   O2    S    
C19   C21   A    
