data_mof_unit_66308.cif
_audit_creation_date              2012-12-10T20:10:03-0500
_audit_creation_method            fapswitch 2.2
_symmetry_space_group_name_H-M    P1
_symmetry_Int_Tables_number       1
_space_group_crystal_system       triclinic
_cell_length_a                    38.629291
_cell_length_b                    32.07795
_cell_length_c                    21.713719
_cell_angle_alpha                 89.951534
_cell_angle_beta                  123.892448
_cell_angle_gamma                 90.028906
_cell_volume                      22334.7132821

loop_
_atom_site_label
_atom_site_type_symbol
_atom_type_description
_atom_site_fract_x
_atom_site_fract_y
_atom_site_fract_z
_atom_type_partial_charge
C1    C     C_R   0.919312 0.000010 0.419380 0.914700
C2    C     C_R   0.080689 0.000005 0.580487 0.917351
C3    C     C_R   0.419312 0.500010 0.419380 0.914682
C4    C     C_R   0.580689 0.500005 0.580487 0.917351
C5    C     C_R   0.000422 0.000886 0.814139 -0.184411
C6    C     C_R   0.999016 0.000637 0.185435 -0.188238
C7    C     C_R   0.500422 0.500885 0.814139 -0.184420
C8    C     C_R   0.499018 0.500637 0.185435 -0.188211
C9    C     C_R   0.975802 0.971435 0.758213 -0.072491
C10   C     C_R   0.024843 0.972222 0.242616 -0.072446
C11   C     C_R   0.475799 0.471437 0.758209 -0.072493
C12   C     C_R   0.524839 0.472216 0.242610 -0.072452
C13   C     C_R   0.974905 0.971902 0.693423 0.161689
C14   C     C_R   0.025880 0.972823 0.307522 0.161085
C15   C     C_R   0.474902 0.471904 0.693420 0.161694
C16   C     C_R   0.525875 0.472815 0.307515 0.161102
C17   C     C_R   0.000295 0.000471 0.686850 -0.190923
C18   C     C_R   0.000011 0.000911 0.313573 -0.185764
C19   C     C_R   0.500295 0.500471 0.686850 -0.190920
C20   C     C_R   0.500017 0.500913 0.313577 -0.185792
C21   C     C_R   0.025787 0.029490 0.743494 -0.052709
C22   C     C_R   0.973659 0.029260 0.256167 -0.008375
C23   C     C_R   0.525789 0.529487 0.743496 -0.052717
C24   C     C_R   0.473678 0.529274 0.256181 -0.008361
C25   C     C_R   0.908275 0.944931 0.738651 0.212618
C26   C     C_R   0.092577 0.946220 0.262301 0.211644
C27   C     C_R   0.408269 0.444945 0.738650 0.212631
C28   C     C_R   0.592569 0.446198 0.262297 0.211629
C29   C     C_R   0.886994 0.913276 0.749532 -0.190534
C30   C     C_R   0.113997 0.914754 0.251404 -0.191926
C31   C     C_R   0.386984 0.413295 0.749533 -0.190571
C32   C     C_R   0.613983 0.414728 0.251399 -0.191903
C33   C     C_R   0.907337 0.876317 0.786861 0.236848
C34   C     C_R   0.093864 0.877672 0.214374 0.237133
C35   C     C_R   0.407321 0.376332 0.786853 0.236859
C36   C     C_R   0.593842 0.377650 0.214358 0.237128
C37   C     C_R   0.949451 0.870948 0.813543 -0.189336
C38   C     C_R   0.051827 0.871997 0.187965 -0.188052
C39   C     C_R   0.449432 0.370954 0.813525 -0.189308
C40   C     C_R   0.551803 0.371985 0.187939 -0.188073
C41   C     C_R   0.971256 0.902440 0.804816 -0.254955
C42   C     C_R   0.029886 0.903293 0.196681 -0.255824
C43   C     C_R   0.471241 0.402441 0.804798 -0.254956
C44   C     C_R   0.529868 0.403287 0.196657 -0.255821
C45   C     C_R   0.000132 0.000065 0.620454 0.912233
C46   C     C_R   0.999992 0.000160 0.379709 0.909808
C47   C     C_R   0.500132 0.500065 0.620454 0.912232
C48   C     C_R   0.499994 0.500161 0.379710 0.909794
C49   C     C_R   0.951114 0.939398 0.767307 0.149633
C50   C     C_R   0.049809 0.940372 0.233908 0.151622
C51   C     C_R   0.451106 0.439403 0.767299 0.149634
C52   C     C_R   0.549798 0.440361 0.233895 0.151606
C53   C     C_R   0.728378 0.962678 0.246864 0.229170
C54   C     C_R   0.271660 0.962974 0.751111 0.229233
C55   C     C_R   0.228374 0.462848 0.247576 0.229181
C56   C     C_R   0.771661 0.462967 0.751144 0.229234
C57   C     C_R   0.706574 0.998284 0.205027 0.130847
C58   C     C_R   0.293438 0.998158 0.794461 0.130525
C59   C     C_R   0.206572 0.498278 0.205071 0.130794
C60   C     C_R   0.793438 0.498158 0.794467 0.130529
C61   C     C_R   0.728173 0.033848 0.207068 -0.241213
C62   C     C_R   0.271818 0.033347 0.793674 -0.240759
C63   C     C_R   0.228174 0.533674 0.206461 -0.241235
C64   C     C_R   0.771818 0.533353 0.793656 -0.240761
C65   C     C_R   0.771555 0.034320 0.250984 -0.193868
C66   C     C_R   0.228444 0.033856 0.749583 -0.191932
C67   C     C_R   0.271556 0.534154 0.250383 -0.193514
C68   C     C_R   0.728444 0.533862 0.749564 -0.191950
C69   C     C_R   0.793361 0.999266 0.293056 0.143868
C70   C     C_R   0.206655 0.999215 0.706087 0.143758
C71   C     C_R   0.293359 0.499276 0.293106 0.143909
C72   C     C_R   0.706655 0.499213 0.706094 0.143756
C73   C     C_R   0.772022 0.963630 0.291436 -0.260787
C74   C     C_R   0.228015 0.963964 0.706393 -0.260655
C75   C     C_R   0.272018 0.463810 0.292142 -0.260849
C76   C     C_R   0.728015 0.463955 0.706426 -0.260655
C77   C     C_1   0.662067 0.999150 0.161097 -0.033214
C78   C     C_1   0.337941 0.999022 0.838666 -0.033024
C79   C     C_1   0.162067 0.499145 0.161112 -0.033187
C80   C     C_1   0.837941 0.499023 0.838670 -0.033027
C81   C     C_1   0.837775 0.999750 0.337778 -0.067012
C82   C     C_1   0.162236 0.999689 0.661473 -0.067188
C83   C     C_1   0.337774 0.499758 0.337809 -0.066927
C84   C     C_1   0.662236 0.499688 0.661477 -0.067192
C85   C     C_1   0.875081 0.999966 0.375181 -0.195447
C86   C     C_1   0.124926 0.999934 0.624319 -0.194190
C87   C     C_1   0.375081 0.499970 0.375196 -0.195464
C88   C     C_1   0.624926 0.499933 0.624321 -0.194186
C89   C     C_R   0.071123 0.121555 0.699656 -0.184127
C90   C     C_R   0.930124 0.119886 0.306588 -0.233415
C91   C     C_R   0.571133 0.621549 0.699667 -0.184128
C92   C     C_R   0.430201 0.619925 0.306663 -0.233425
C93   C     C_1   0.624755 0.999667 0.124185 -0.177406
C94   C     C_1   0.375251 0.999581 0.875754 -0.177350
C95   C     C_1   0.124754 0.499663 0.124187 -0.177383
C96   C     C_1   0.875251 0.499582 0.875755 -0.177353
C97   C     C_R   0.000002 0.919320 0.000063 0.938535
C98   C     C_R   0.500002 0.419320 0.000062 0.938534
C99   C     C_R   0.000135 0.000276 0.879879 0.909829
C100  C     C_R   0.999758 0.000366 0.120064 0.910201
C101  C     C_R   0.500135 0.500276 0.879879 0.909825
C102  C     C_R   0.499759 0.500364 0.120063 0.910212
C103  C     C_R   0.000009 0.080623 0.999983 0.890619
C104  C     C_R   0.500009 0.580623 0.999985 0.890618
C105  C     C_R   0.499993 0.919607 0.000005 0.904944
C106  C     C_R   0.999992 0.419607 0.000004 0.904914
C107  C     C_R   0.580507 0.000016 0.080306 0.901076
C108  C     C_R   0.419494 0.999995 0.919689 0.901092
C109  C     C_R   0.080507 0.500015 0.080306 0.901049
C110  C     C_R   0.919494 0.499995 0.919689 0.901090
C111  C     C_R   0.500023 0.080550 0.000004 0.901598
C112  C     C_R   0.000024 0.580550 0.000004 0.901601
C113  C     C_R   0.462196 0.228316 0.972205 0.218338
C114  C     C_R   0.538147 0.228399 0.028905 0.218448
C115  C     C_R   0.962199 0.728315 0.972219 0.218346
C116  C     C_R   0.038152 0.728401 0.028927 0.218458
C117  C     C_R   0.500176 0.206761 0.000451 0.000894
C118  C     C_R   0.000180 0.706761 0.000467 0.000886
C119  C     C_R   0.037422 0.772173 0.028605 -0.230754
C120  C     C_R   0.962875 0.772083 0.972794 -0.231237
C121  C     C_R   0.537419 0.272172 0.028579 -0.230765
C122  C     C_R   0.462872 0.272084 0.972778 -0.231242
C123  C     C_R   0.042992 0.097709 0.706776 0.230026
C124  C     C_R   0.957802 0.096393 0.297820 0.237358
C125  C     C_R   0.542999 0.597704 0.706780 0.230024
C126  C     C_R   0.457861 0.596420 0.297861 0.237354
C127  C     C_R   0.000127 0.793492 0.000696 0.056717
C128  C     C_R   0.500125 0.293492 0.000676 0.056726
C129  C     C_1   0.500162 0.162094 0.000234 -0.069961
C130  C     C_1   0.000166 0.662095 0.000243 -0.069990
C131  C     C_1   0.000066 0.837882 0.000522 -0.065862
C132  C     C_1   0.500065 0.337881 0.000507 -0.065868
C133  C     C_1   0.000020 0.875152 0.000301 -0.188933
C134  C     C_1   0.500020 0.375152 0.000292 -0.188935
C135  C     C_1   0.500103 0.124784 0.000073 -0.180168
C136  C     C_1   0.000106 0.624784 0.000077 -0.180172
C137  C     C_R   0.474600 0.771995 0.932023 0.103560
C138  C     C_R   0.526520 0.771893 0.067308 0.103440
C139  C     C_R   0.974627 0.271995 0.932005 0.103570
C140  C     C_R   0.026454 0.271893 0.067323 0.103417
C141  C     C_R   0.500437 0.793530 0.999747 -0.003830
C142  C     C_R   0.000419 0.293530 0.999745 -0.003838
C143  C     C_R   0.025989 0.228032 0.067031 0.157680
C144  C     C_R   0.975208 0.228135 0.932111 0.156249
C145  C     C_R   0.526046 0.728032 0.067020 0.157659
C146  C     C_R   0.475177 0.728135 0.932128 0.156258
C147  C     C_R   0.000504 0.206565 0.999568 -0.039134
C148  C     C_R   0.500513 0.706565 0.999573 -0.039133
C149  C     C_1   0.500223 0.838197 0.999925 -0.017638
C150  C     C_1   0.000211 0.338197 0.999920 -0.017639
C151  C     C_R   0.054750 0.057125 0.737465 0.099004
C152  C     C_R   0.944877 0.057025 0.262466 0.122625
C153  C     C_R   0.554754 0.557121 0.737469 0.098999
C154  C     C_R   0.444914 0.557057 0.262495 0.122648
C155  C     C_1   0.000260 0.161984 0.999602 -0.031437
C156  C     C_1   0.500264 0.661984 0.999608 -0.031457
C157  C     C_1   0.000079 0.124740 0.999728 -0.209791
C158  C     C_1   0.500080 0.624740 0.999732 -0.209791
C159  C     C_1   0.500089 0.875460 0.000047 -0.195824
C160  C     C_1   0.000082 0.375460 0.000043 -0.195838
C161  C     C_R   0.093642 0.041080 0.758413 -0.241942
C162  C     C_R   0.904791 0.042298 0.236681 -0.262808
C163  C     C_R   0.593647 0.541073 0.758421 -0.241944
C164  C     C_R   0.404824 0.542349 0.236722 -0.262734
C165  C     C_R   0.121254 0.065137 0.751184 -0.219961
C166  C     C_R   0.877385 0.066300 0.244514 -0.219298
C167  C     C_R   0.621262 0.565129 0.751199 -0.219973
C168  C     C_R   0.377437 0.566362 0.244586 -0.219239
C169  C     C_R   0.109998 0.105302 0.720865 0.271956
C170  C     C_R   0.890039 0.104979 0.280427 0.295205
C171  C     C_R   0.610008 0.605295 0.720881 0.271956
C172  C     C_R   0.390114 0.605033 0.280523 0.295162
C173  C     C_R   0.025009 0.030724 0.807145 0.094101
C174  C     C_R   0.972753 0.029094 0.190807 0.091601
C175  C     C_R   0.525011 0.530721 0.807147 0.094103
C176  C     C_R   0.472767 0.529104 0.190818 0.091592
H1    H     H_    0.965632 0.842513 0.841884 0.150683
H2    H     H_    0.035803 0.843480 0.159807 0.150417
H3    H     H_    0.465608 0.342516 0.841859 0.150687
H4    H     H_    0.535773 0.343473 0.159773 0.150418
H5    H     H_    0.003965 0.897869 0.826761 0.146645
H6    H     H_    0.997225 0.898488 0.174897 0.145909
H7    H     H_    0.503949 0.397863 0.826738 0.146644
H8    H     H_    0.497204 0.398490 0.174867 0.145912
H9    H     H_    0.789244 0.936555 0.324248 0.140515
H10   H     H_    0.210810 0.937204 0.672482 0.140488
H11   H     H_    0.289238 0.436871 0.325460 0.140510
H12   H     H_    0.710810 0.437190 0.672534 0.140487
H13   H     H_    0.711441 0.061276 0.174982 0.151561
H14   H     H_    0.288531 0.060457 0.826904 0.151660
H15   H     H_    0.211443 0.560968 0.173861 0.151550
H16   H     H_    0.788530 0.560469 0.826865 0.151659
H17   H     H_    0.788061 0.061983 0.252377 0.137452
H18   H     H_    0.211938 0.061227 0.749220 0.135556
H19   H     H_    0.288061 0.561688 0.251266 0.137073
H20   H     H_    0.711938 0.561237 0.749181 0.135574
H21   H     H_    0.934772 0.789960 0.952469 0.168705
H22   H     H_    0.065506 0.790133 0.049070 0.168131
H23   H     H_    0.434770 0.289962 0.952456 0.168698
H24   H     H_    0.565502 0.290131 0.049038 0.168142
H25   H     H_    0.062765 0.152955 0.677765 0.147097
H26   H     H_    0.940021 0.149726 0.334572 0.131363
H27   H     H_    0.562777 0.652950 0.677776 0.147098
H28   H     H_    0.440116 0.649760 0.334659 0.131349
H29   H     H_    0.102614 0.009794 0.780677 0.155240
H30   H     H_    0.894874 0.011884 0.210878 0.156855
H31   H     H_    0.602617 0.509788 0.780686 0.155244
H32   H     H_    0.394891 0.511939 0.210908 0.156835
H33   H     H_    0.151210 0.052196 0.768190 0.142161
H34   H     H_    0.846603 0.054269 0.224176 0.141614
H35   H     H_    0.651218 0.552187 0.768209 0.142175
H36   H     H_    0.346653 0.554343 0.224253 0.141356
H37   H     H_    0.854414 0.917431 0.728935 0.136720
H38   H     H_    0.146510 0.919158 0.271714 0.136666
H39   H     H_    0.354406 0.417457 0.728946 0.136708
H40   H     H_    0.646499 0.419123 0.271717 0.136672
O1    O     O_R   0.939010 0.034440 0.439030 -0.618051
O2    O     O_R   0.060990 0.034440 0.560970 -0.613858
O3    O     O_R   0.439010 0.534440 0.439030 -0.618062
O4    O     O_R   0.560990 0.534440 0.560970 -0.613858
O5    O     O_R   0.561000 0.000050 0.112670 -0.611210
O6    O     O_R   0.439000 0.000050 0.887330 -0.611044
O7    O     O_R   0.061000 0.500050 0.112670 -0.611159
O8    O     O_R   0.939000 0.500050 0.887330 -0.611044
O9    O     O_R   0.561000 0.999980 0.009230 -0.619567
O10   O     O_R   0.439000 0.999980 0.990770 -0.619596
O11   O     O_R   0.061000 0.499980 0.009230 -0.619579
O12   O     O_R   0.939000 0.499980 0.990770 -0.619599
O13   O     O_R   0.500000 0.061030 0.051640 -0.615857
O14   O     O_R   0.500000 0.061030 0.948360 -0.615840
O15   O     O_R   1.000000 0.561030 0.051640 -0.615853
O16   O     O_R   0.000000 0.561030 0.948360 -0.615841
O17   O     O_R   0.939030 0.965580 0.439000 -0.623840
O18   O     O_R   0.060970 0.965580 0.561000 -0.624890
O19   O     O_R   0.439030 0.465580 0.439000 -0.623819
O20   O     O_R   0.560970 0.465580 0.561000 -0.624893
O21   O     O_R   0.000000 0.034440 0.591610 -0.613269
O22   O     O_R   0.000000 0.034440 0.408390 -0.616683
O23   O     O_R   0.500000 0.534440 0.591610 -0.613271
O24   O     O_R   0.500000 0.534440 0.408390 -0.616685
O25   O     O_R   0.000010 0.965580 0.591580 -0.617779
O26   O     O_R   0.999990 0.965580 0.408420 -0.617964
O27   O     O_R   0.500010 0.465580 0.591580 -0.617777
O28   O     O_R   0.499990 0.465580 0.408420 -0.617957
O29   O     O_R   0.034440 0.939000 0.034360 -0.615717
O30   O     O_R   0.965560 0.939000 0.965640 -0.615931
O31   O     O_R   0.534440 0.439000 0.034360 -0.615723
O32   O     O_R   0.465560 0.439000 0.965640 -0.615927
O33   O     O_R   0.034440 0.999990 0.942780 -0.617220
O34   O     O_R   0.965560 0.999990 0.057220 -0.616828
O35   O     O_R   0.534440 0.499990 0.942780 -0.617217
O36   O     O_R   0.465560 0.499990 0.057220 -0.616833
O37   O     O_R   0.965580 1.000000 0.873940 -0.633339
O38   O     O_R   0.034420 1.000000 0.126060 -0.631722
O39   O     O_R   0.465580 0.500000 0.873940 -0.633341
O40   O     O_R   0.534420 0.500000 0.126060 -0.631726
O41   O     O_R   0.034440 0.060970 0.034440 -0.619569
O42   O     O_R   0.965560 0.060970 0.965560 -0.621618
O43   O     O_R   0.534440 0.560970 0.034440 -0.619570
O44   O     O_R   0.465560 0.560970 0.965560 -0.621613
O45   O     O_R   0.500020 0.939060 0.051770 -0.616576
O46   O     O_R   0.499980 0.939060 0.948230 -0.616500
O47   O     O_R   0.000020 0.439060 0.051770 -0.616575
O48   O     O_R   0.999980 0.439060 0.948230 -0.616497
Zn1   Zn    Zn3+2 0.000000 0.045990 0.500000 0.933585
Zn2   Zn    Zn3+2 0.500000 0.545990 0.500000 0.933585
Zn3   Zn    Zn3+2 1.000000 0.954030 0.500000 0.930598
Zn4   Zn    Zn3+2 0.500000 0.454030 0.500000 0.930614
Zn5   Zn    Zn3+2 0.045990 0.999980 0.045940 0.936258
Zn6   Zn    Zn3+2 0.954010 0.999980 0.954060 0.933696
Zn7   Zn    Zn3+2 0.545990 0.499980 0.045940 0.936258
Zn8   Zn    Zn3+2 0.454010 0.499980 0.954060 0.933696
Zn9   Zn    Zn3+2 0.500010 0.000060 0.069050 0.963530
Zn10  Zn    Zn3+2 0.499990 0.000060 0.930950 0.963721
Zn11  Zn    Zn3+2 0.000010 0.500060 0.069050 0.963557
Zn12  Zn    Zn3+2 0.999990 0.500060 0.930950 0.963718
N1    N     N_2   0.137962 0.129634 0.712614 -0.313694
H41   H     H_    0.168650 0.120145 0.745565 0.213132
C177  C     C_3   0.124489 0.136745 0.636526 -0.785068
H42   H     H_    0.147509 0.156902 0.635408 0.236118
H43   H     H_    0.093792 0.152771 0.605156 0.235792
H44   H     H_    0.122178 0.106622 0.609171 0.251980
N2    N     N_2   0.862534 0.128906 0.290416 -0.312907
H45   H     H_    0.831473 0.121278 0.254521 0.211079
C178  C     C_3   0.874757 0.131954 0.366532 -0.785917
H46   H     H_    0.852350 0.152204 0.369276 0.235045
H47   H     H_    0.906300 0.145961 0.402127 0.239220
H48   H     H_    0.874624 0.100562 0.388128 0.250017
N3    N     N_2   0.637976 0.629626 0.712638 -0.313697
H49   H     H_    0.668664 0.620138 0.745599 0.213129
C179  C     C_3   0.624510 0.636733 0.636553 -0.785087
H50   H     H_    0.647531 0.656891 0.635440 0.236118
H51   H     H_    0.593811 0.652756 0.605173 0.235799
H52   H     H_    0.622204 0.606608 0.609206 0.251976
N4    N     N_2   0.362631 0.628967 0.290560 -0.312903
H53   H     H_    0.331566 0.621339 0.254703 0.211101
C180  C     C_3   0.374888 0.632026 0.366694 -0.785623
H54   H     H_    0.352495 0.652279 0.369472 0.235050
H55   H     H_    0.406433 0.646035 0.402250 0.239106
H56   H     H_    0.374769 0.600637 0.388316 0.250065
C181  C     C_3   0.884033 0.842730 0.797971 -0.440572
C182  C     C_3   0.874319 0.856240 0.854180 -0.866321
H57   H     H_    0.903571 0.864104 0.908011 0.271923
H58   H     H_    0.853387 0.883817 0.833506 0.255467
H59   H     H_    0.858518 0.830394 0.863285 0.243864
H60   H     H_    0.854516 0.835517 0.744083 0.204250
H61   H     H_    0.902658 0.813523 0.818139 0.205298
C183  C     C_3   0.117280 0.844287 0.203198 -0.441411
C184  C     C_3   0.126225 0.857746 0.145940 -0.864402
H62   H     H_    0.096640 0.865040 0.092245 0.271941
H63   H     H_    0.146696 0.885667 0.165538 0.255505
H64   H     H_    0.142233 0.832078 0.136992 0.243744
H65   H     H_    0.147099 0.837493 0.256864 0.204178
H66   H     H_    0.098999 0.814850 0.183944 0.204804
C185  C     C_3   0.384014 0.342752 0.797969 -0.440596
C186  C     C_3   0.374331 0.356259 0.854221 -0.866270
H67   H     H_    0.403596 0.364095 0.908050 0.271908
H68   H     H_    0.353421 0.383854 0.833593 0.255475
H69   H     H_    0.358516 0.330422 0.863313 0.243860
H70   H     H_    0.354483 0.335558 0.744090 0.204241
H71   H     H_    0.402624 0.313537 0.818101 0.205292
C187  C     C_3   0.617253 0.344259 0.203181 -0.441399
C188  C     C_3   0.626220 0.357720 0.145952 -0.864432
H72   H     H_    0.596645 0.365039 0.092257 0.271954
H73   H     H_    0.646711 0.385627 0.165586 0.255499
H74   H     H_    0.642214 0.332043 0.136989 0.243745
H75   H     H_    0.647064 0.337450 0.256852 0.204175
H76   H     H_    0.598960 0.314829 0.183900 0.204808
N5    N     N_2   0.706705 0.926480 0.245877 -0.306288
H77   H     H_    0.722516 0.909788 0.294826 0.221259
C189  C     C_3   0.691721 0.899901 0.181963 -0.791053
H78   H     H_    0.718425 0.887025 0.181940 0.236143
H79   H     H_    0.670891 0.917445 0.129709 0.252060
H80   H     H_    0.673649 0.873625 0.183986 0.240266
N6    N     N_2   0.293362 0.927188 0.750772 -0.306066
H81   H     H_    0.277620 0.911170 0.701147 0.221305
C190  C     C_3   0.308219 0.899646 0.813535 -0.791186
H82   H     H_    0.281446 0.886257 0.812806 0.236065
H83   H     H_    0.328974 0.916553 0.866529 0.251932
H84   H     H_    0.326333 0.873774 0.810581 0.240163
N7    N     N_2   0.206698 0.426828 0.247246 -0.306241
H85   H     H_    0.222497 0.410427 0.296509 0.221262
C191  C     C_3   0.191740 0.399828 0.183847 -0.790979
H86   H     H_    0.218457 0.386730 0.184108 0.236153
H87   H     H_    0.170919 0.417096 0.131258 0.252015
H88   H     H_    0.173665 0.373722 0.186344 0.240224
N8    N     N_2   0.793363 0.427174 0.750829 -0.306067
H89   H     H_    0.777620 0.411144 0.701217 0.221306
C192  C     C_3   0.808225 0.399649 0.813614 -0.791195
H90   H     H_    0.781454 0.386266 0.812900 0.236064
H91   H     H_    0.828980 0.416568 0.866595 0.251930
H92   H     H_    0.826340 0.373771 0.810677 0.240177
N9    N     N_2   0.424187 0.205389 0.943326 -0.293913
H93   H     H_    0.426748 0.178360 0.971325 0.233349
C193  C     C_3   0.385034 0.227194 0.912643 -0.814701
H94   H     H_    0.359197 0.204228 0.889997 0.241902
H95   H     H_    0.378786 0.247762 0.866317 0.248600
H96   H     H_    0.385631 0.245626 0.956518 0.237929
N10   N     N_2   0.576194 0.205560 0.057739 -0.293996
H97   H     H_    0.573655 0.178501 0.029896 0.233295
C194  C     C_3   0.615268 0.227466 0.088032 -0.814690
H98   H     H_    0.641149 0.204566 0.110531 0.241612
H99   H     H_    0.621616 0.248013 0.134398 0.248364
H100  H     H_    0.614472 0.245939 0.043959 0.238037
N11   N     N_2   0.924189 0.705387 0.943332 -0.293910
H101  H     H_    0.926750 0.678352 0.971315 0.233353
C195  C     C_3   0.885038 0.727191 0.912664 -0.814716
H102  H     H_    0.859200 0.704225 0.890018 0.241896
H103  H     H_    0.878785 0.747763 0.866340 0.248599
H104  H     H_    0.885639 0.745618 0.956548 0.237934
N12   N     N_2   0.076201 0.705564 0.057767 -0.293990
H105  H     H_    0.073664 0.678496 0.029946 0.233301
C196  C     C_3   0.115271 0.727472 0.088024 -0.814644
H106  H     H_    0.141154 0.704575 0.110519 0.241619
H107  H     H_    0.121629 0.748027 0.134387 0.248354
H108  H     H_    0.114462 0.745937 0.043930 0.238035
N13   N     N_2   0.949463 0.205841 0.864331 -0.300556
H109  H     H_    0.933206 0.181433 0.867720 0.236929
C197  C     C_3   0.970213 0.194072 0.828342 -0.807623
H110  H     H_    0.947223 0.179963 0.773499 0.240945
H111  H     H_    0.995142 0.170861 0.862498 0.241784
H112  H     H_    0.984101 0.221850 0.819415 0.243719
N14   N     N_2   0.052203 0.205641 0.134563 -0.298144
H113  H     H_    0.068258 0.181296 0.130504 0.238044
C198  C     C_3   0.032169 0.193734 0.171767 -0.821123
H114  H     H_    0.055664 0.179837 0.226512 0.243924
H115  H     H_    0.007331 0.170317 0.138383 0.245433
H116  H     H_    0.018318 0.221386 0.181034 0.243462
N15   N     N_2   0.449387 0.705842 0.864363 -0.300547
H117  H     H_    0.433146 0.681437 0.867808 0.236932
C199  C     C_3   0.470079 0.694065 0.828274 -0.807606
H118  H     H_    0.447055 0.679958 0.773450 0.240938
H119  H     H_    0.495014 0.670852 0.862386 0.241782
H120  H     H_    0.483948 0.721840 0.819295 0.243708
N16   N     N_2   0.552295 0.705640 0.134538 -0.298169
H121  H     H_    0.568320 0.681285 0.130426 0.238053
C200  C     C_3   0.532314 0.693754 0.171845 -0.821081
H122  H     H_    0.555833 0.679847 0.226566 0.243903
H123  H     H_    0.507453 0.670350 0.138503 0.245439
H124  H     H_    0.518502 0.721417 0.181173 0.243466
C201  C     C_3   0.445627 0.795720 0.860097 -0.362006
C202  C     C_3   0.405702 0.808726 0.853612 -0.861870
H125  H     H_    0.388913 0.780756 0.854182 0.261709
H126  H     H_    0.412829 0.829598 0.900058 0.260894
H127  H     H_    0.385034 0.825692 0.800604 0.246490
H128  H     H_    0.461541 0.823705 0.856979 0.202478
H129  H     H_    0.436863 0.776795 0.810694 0.228213
C203  C     C_3   0.555623 0.795533 0.139236 -0.362494
C204  C     C_3   0.595172 0.809173 0.144882 -0.861581
H130  H     H_    0.612067 0.781499 0.143692 0.261729
H131  H     H_    0.587570 0.830310 0.098421 0.260989
H132  H     H_    0.615947 0.826047 0.197913 0.246669
H133  H     H_    0.539597 0.823210 0.142940 0.202181
H134  H     H_    0.564909 0.776376 0.188706 0.228528
C205  C     C_3   0.945696 0.295720 0.860059 -0.362013
C206  C     C_3   0.905742 0.308733 0.853466 -0.861864
H135  H     H_    0.888935 0.280767 0.853988 0.261697
H136  H     H_    0.912835 0.329607 0.899889 0.260890
H137  H     H_    0.885105 0.325700 0.800445 0.246519
H138  H     H_    0.961631 0.323702 0.856990 0.202483
H139  H     H_    0.936965 0.276793 0.810676 0.228218
C207  C     C_3   0.055498 0.295532 0.139280 -0.362436
C208  C     C_3   0.095098 0.309163 0.145101 -0.861617
H140  H     H_    0.112013 0.281485 0.143983 0.261789
H141  H     H_    0.087556 0.330303 0.098677 0.261020
H142  H     H_    0.115829 0.326031 0.198156 0.246485
H143  H     H_    0.039449 0.323213 0.142906 0.202175
H144  H     H_    0.064721 0.276377 0.188721 0.228508
N17   N     N_2   0.003362 0.114825 0.683552 -0.321819
H145  H     H_    0.987752 0.101391 0.704514 0.217974
C209  C     C_3   0.976488 0.128110 0.606857 -0.746988
H146  H     H_    0.948698 0.107484 0.576808 0.237436
H147  H     H_    0.992474 0.127084 0.577304 0.232176
H148  H     H_    0.965918 0.160506 0.605074 0.227744
N18   N     N_2   0.999835 0.110168 0.332729 -0.283092
H149  H     H_    0.010364 0.127470 0.380086 0.221231
C210  C     C_3   0.009596 0.129927 0.284324 -0.851622
H150  H     H_    0.041356 0.143654 0.318108 0.243734
H151  H     H_    0.986926 0.155218 0.251580 0.241461
H152  H     H_    0.009785 0.106716 0.246864 0.251471
N19   N     N_2   0.503370 0.614822 0.683552 -0.321813
H153  H     H_    0.487756 0.601389 0.704509 0.217977
C211  C     C_3   0.476499 0.628110 0.606858 -0.746977
H154  H     H_    0.448707 0.607487 0.576804 0.237434
H155  H     H_    0.492486 0.627083 0.577308 0.232173
H156  H     H_    0.465932 0.660507 0.605076 0.227745
N20   N     N_2   0.499898 0.610177 0.332751 -0.283133
H157  H     H_    0.510443 0.627476 0.380118 0.221233
C212  C     C_3   0.509653 0.629931 0.284334 -0.851574
H158  H     H_    0.541419 0.643647 0.318105 0.243744
H159  H     H_    0.486989 0.655228 0.251603 0.241448
H160  H     H_    0.509827 0.606717 0.246861 0.251458
C213  C     C_3   0.048400 0.065071 0.864944 -0.377916
C214  C     C_3   0.094173 0.053944 0.921279 -0.796874
H161  H     H_    0.107923 0.076217 0.968357 0.236229
H162  H     H_    0.097441 0.021918 0.943200 0.269792
H163  H     H_    0.112208 0.056158 0.895807 0.248531
H164  H     H_    0.046757 0.095039 0.837925 0.190128
H165  H     H_    0.033315 0.072078 0.894780 0.197419
C215  C     C_3   0.945118 0.060216 0.128646 -0.374684
C216  C     C_3   0.901504 0.042785 0.072795 -0.796756
H166  H     H_    0.886444 0.061176 0.020656 0.237033
H167  H     H_    0.902597 0.009594 0.059704 0.269300
H168  H     H_    0.881712 0.045255 0.094788 0.242198
H169  H     H_    0.941524 0.089816 0.150872 0.199721
H170  H     H_    0.959989 0.069961 0.099531 0.198234
C217  C     C_3   0.548404 0.565068 0.864947 -0.377904
C218  C     C_3   0.594176 0.553938 0.921283 -0.796875
H171  H     H_    0.607927 0.576210 0.968363 0.236227
H172  H     H_    0.597442 0.521911 0.943200 0.269792
H173  H     H_    0.612212 0.556152 0.895813 0.248529
H174  H     H_    0.546764 0.595035 0.837929 0.190126
H175  H     H_    0.533319 0.572076 0.894782 0.197420
C219  C     C_3   0.445139 0.560232 0.128662 -0.374700
C220  C     C_3   0.401520 0.542813 0.072815 -0.796776
H176  H     H_    0.386460 0.561208 0.020680 0.237036
H177  H     H_    0.402603 0.509621 0.059712 0.269307
H178  H     H_    0.381732 0.545287 0.094817 0.242189
H179  H     H_    0.441555 0.589835 0.150893 0.199722
H180  H     H_    0.460010 0.569968 0.099543 0.198234
N21   N     N_2   0.946555 0.945101 0.633524 -0.299005
H181  H     H_    0.931002 0.957778 0.580955 0.217952
C221  C     C_3   0.959182 0.902019 0.638523 -0.709058
H182  H     H_    0.961942 0.894403 0.591538 0.234308
H183  H     H_    0.935166 0.881439 0.635449 0.233218
H184  H     H_    0.989692 0.895559 0.691206 0.232603
N22   N     N_2   0.054839 0.946682 0.368102 -0.298865
H185  H     H_    0.070002 0.959712 0.420339 0.218774
C222  C     C_3   0.043187 0.903327 0.364213 -0.711925
H186  H     H_    0.040716 0.895638 0.411514 0.234896
H187  H     H_    0.067602 0.883290 0.367593 0.233668
H188  H     H_    0.012770 0.896196 0.311806 0.232942
N23   N     N_2   0.446549 0.445107 0.633517 -0.299010
H189  H     H_    0.430998 0.457786 0.580950 0.217937
C223  C     C_3   0.459171 0.402024 0.638510 -0.709067
H190  H     H_    0.461930 0.394408 0.591524 0.234312
H191  H     H_    0.435153 0.381446 0.635433 0.233215
H192  H     H_    0.489681 0.395560 0.691192 0.232604
N24   N     N_2   0.554826 0.446665 0.368086 -0.298862
H193  H     H_    0.569992 0.459689 0.420329 0.218782
C224  C     C_3   0.543160 0.403313 0.364181 -0.711912
H194  H     H_    0.540685 0.395623 0.411478 0.234893
H195  H     H_    0.567569 0.383269 0.367555 0.233666
H196  H     H_    0.512740 0.396192 0.311770 0.232943
C225  C     C_3   0.884889 0.984422 0.698976 -0.403948
C226  C     C_3   0.851835 0.976303 0.617009 -0.885555
H197  H     H_    0.866373 0.963209 0.589305 0.271382
H198  H     H_    0.827853 0.954233 0.610486 0.254064
H199  H     H_    0.836191 0.006057 0.589250 0.252279
H200  H     H_    0.869600 0.996951 0.725836 0.200443
H201  H     H_    0.906097 0.009187 0.702923 0.212328
C227  C     C_3   0.115691 0.985884 0.301530 -0.402387
C228  C     C_3   0.149027 0.977975 0.383457 -0.881578
H202  H     H_    0.134798 0.964645 0.411570 0.271984
H203  H     H_    0.173147 0.956177 0.389842 0.252871
H204  H     H_    0.164437 0.007852 0.410912 0.253288
H205  H     H_    0.130689 0.998612 0.274253 0.199992
H206  H     H_    0.094334 0.010429 0.297664 0.216105
C229  C     C_3   0.384889 0.484440 0.698980 -0.403875
C230  C     C_3   0.351832 0.476324 0.617013 -0.885705
H207  H     H_    0.366367 0.463227 0.589306 0.271369
H208  H     H_    0.327847 0.454257 0.610490 0.254056
H209  H     H_    0.336193 0.506080 0.589256 0.252284
H210  H     H_    0.369602 0.496972 0.725843 0.200438
H211  H     H_    0.406100 0.509201 0.702928 0.212321
C231  C     C_3   0.615690 0.485857 0.301537 -0.402392
C232  C     C_3   0.649022 0.477941 0.383463 -0.881574
H212  H     H_    0.634788 0.464614 0.411569 0.271982
H213  H     H_    0.673138 0.456137 0.389848 0.252870
H214  H     H_    0.664438 0.507814 0.410926 0.253288
H215  H     H_    0.630695 0.498582 0.274267 0.199991
H216  H     H_    0.594339 0.510407 0.297672 0.216110

loop_
_geom_bond_atom_site_label_1
_geom_bond_atom_site_label_2
_ccdc_geom_bond_type
C199  H120  S    
C55   C59   A    
N5    C189  S    
C179  H50   S    
C27   C229  S    
C190  H84   S    
C190  H82   S    
C109  O11   A    
C62   H14   S    
C181  C182  S    
C36   C187  S    
C26   C50   A    
C97   O29   A    
C139  C142  A    
C138  C145  A    
C29   C33   A    
O21   Zn1   S    
C9    C13   A    
C3    O19   A    
C40   H4    S    
C11   C15   A    
C113  C122  A    
C12   C16   A    
C1    O17   A    
C151  C161  A    
C70   C74   A    
O5    Zn9   S    
C147  C155  S    
C34   C183  S    
C76   H12   S    
N7    C191  S    
C225  H200  S    
C26   C227  S    
C61   H13   S    
C161  H29   S    
C100  O38   A    
C41   C49   A    
C64   H16   S    
C24   C154  S    
C208  H142  S    
C203  H134  S    
C25   C29   A    
C126  N20   S    
O46   Zn10  S    
C194  H100  S    
C27   C31   A    
C188  H72   S    
O9    Zn10  S    
C231  H216  S    
C137  C146  A    
C197  H110  S    
C121  C128  A    
C95   C109  S    
C196  H108  S    
N6    C190  S    
C62   C66   A    
C103  C157  S    
C167  C171  A    
C6    C174  A    
C226  H197  S    
C210  H150  S    
C17   C21   A    
C186  H67   S    
C104  O43   A    
O6    Zn10  S    
C19   C23   A    
N20   C212  S    
C220  H177  S    
C29   H37   S    
C193  H94   S    
O37   Zn6   S    
C68   C72   A    
C115  C118  A    
C227  C228  S    
C45   O21   A    
C106  O48   A    
C120  H21   S    
N22   C222  S    
C143  N14   S    
C72   C84   S    
C171  N3    S    
C137  C201  S    
C143  C147  A    
C21   C173  A    
C23   C153  S    
C10   C14   A    
N15   H117  S    
C98   O31   A    
N14   H113  S    
C24   C176  A    
C220  H176  S    
C145  C148  A    
C210  H152  S    
C114  N10   S    
C65   C69   A    
C124  N18   S    
C91   C125  A    
C53   C73   A    
C56   N8    S    
C84   C88   T    
O30   Zn6   S    
C138  C141  A    
C57   C61   A    
C59   C63   A    
C91   C171  A    
C60   C64   A    
C206  H135  S    
C200  H123  S    
C12   C52   S    
C89   C169  A    
C178  H47   S    
C110  O12   A    
N11   H101  S    
C166  H34   S    
O18   Zn3   S    
C66   C70   A    
C92   C172  A    
C156  C158  T    
C123  N17   S    
C116  C118  A    
C195  H104  S    
C177  H43   S    
C70   C82   S    
C127  C131  S    
C211  H155  S    
C183  H65   S    
N6    H81   S    
C61   C65   A    
C221  H184  S    
C223  H190  S    
C230  H208  S    
C215  H170  S    
N10   H97   S    
C2    O2    A    
C176  C219  S    
C188  H73   S    
C204  H130  S    
C161  C165  A    
C90   H26   S    
C172  N4    S    
C55   N7    S    
C232  H214  S    
C189  H79   S    
C192  H90   S    
C227  H206  S    
O3    Zn2   S    
O29   Zn5   S    
C140  C143  A    
C97   C133  S    
C99   O33   A    
C165  H33   S    
C201  C202  S    
C219  C220  S    
C120  C127  A    
C209  H147  S    
N17   H145  S    
C5    C9    A    
C14   N22   S    
O48   Zn12  S    
C112  O15   A    
C153  C163  A    
C186  H69   S    
C64   C68   A    
C154  C164  A    
C179  H51   S    
C78   C94   T    
C104  O44   A    
C19   C47   S    
C31   H39   S    
C181  H61   S    
C43   H7    S    
C63   H15   S    
C129  C135  T    
C187  H76   S    
C217  C218  S    
O25   Zn3   S    
C214  H161  S    
O10   Zn9   S    
C117  C129  S    
C109  O7    A    
C55   C75   A    
C44   C52   A    
C207  H143  S    
C54   C74   A    
C224  H194  S    
C180  H55   S    
N9    C193  S    
C112  C136  S    
C144  C147  A    
C28   C32   A    
C27   C51   A    
N3    H49   S    
C71   C83   S    
O39   Zn8   S    
C184  H63   S    
O40   Zn7   S    
C182  H58   S    
C30   C34   A    
C16   N24   S    
C9    C49   S    
N10   C194  S    
C164  H32   S    
C197  H112  S    
N24   C224  S    
O23   Zn2   S    
C228  H203  S    
C6    C100  S    
C63   C67   A    
C98   O32   A    
C33   C181  S    
C209  H146  S    
C168  C172  A    
C8    C12   A    
C214  H163  S    
N21   H181  S    
C203  C204  S    
C204  H132  S    
C222  H187  S    
C42   C50   A    
C113  C117  A    
C132  C134  T    
C193  H95   S    
C26   C30   A    
C192  H92   S    
O47   Zn11  S    
C191  H87   S    
C207  C208  S    
C111  O13   A    
C103  O42   A    
C47   O23   A    
O41   Zn5   S    
C192  H91   S    
O43   Zn7   S    
N15   C199  S    
C202  H125  S    
C4    O20   A    
C216  H168  S    
C199  H119  S    
C203  H133  S    
C60   C80   S    
C18   C22   A    
C25   C225  S    
C104  C158  S    
C39   H3    S    
C8    C176  A    
C166  C170  A    
C4    C88   S    
C37   H1    S    
O38   Zn5   S    
C13   C17   A    
C224  H195  S    
C139  C205  S    
N4    H53   S    
C200  H122  S    
C107  O9    A    
C217  H174  S    
C223  H192  S    
C102  O40   A    
C21   C151  S    
C37   C41   A    
C189  H80   S    
C152  C162  A    
N13   C197  S    
C114  C117  A    
C32   H40   S    
C40   C44   A    
C218  H171  S    
C146  N15   S    
C212  H158  S    
C7    C101  S    
C224  H196  S    
N2    H45   S    
N18   C210  S    
C162  H30   S    
C198  H115  S    
C119  C127  A    
C58   C62   A    
C83   C87   T    
C45   O25   A    
C155  C157  T    
O16   Zn12  S    
C48   O28   A    
C110  O8    A    
O33   Zn5   S    
N9    H93   S    
C219  H179  S    
C208  H141  S    
C42   H6    S    
C15   C19   A    
C194  H99   S    
O13   Zn9   S    
C150  C160  T    
C38   H2    S    
C140  C142  A    
C196  H107  S    
N19   C211  S    
C23   C175  A    
C226  H198  S    
N12   H105  S    
C119  H22   S    
C186  H68   S    
C180  H54   S    
C14   C18   A    
C66   H18   S    
C162  C166  A    
C114  C121  A    
C2    O18   A    
C5    C99   S    
C105  O46   A    
C4    O4    A    
C163  H31   S    
C177  H42   S    
C69   C73   A    
C65   H17   S    
C201  H128  S    
C92   H28   S    
C72   C76   A    
C226  H199  S    
C187  C188  S    
C185  C186  S    
N23   H189  S    
O14   Zn10  S    
C165  C169  A    
C41   H5    S    
C206  H137  S    
C101  O35   A    
C5    C173  A    
C18   C46   S    
C190  H83   S    
C146  C148  A    
C210  H151  S    
O8    Zn12  S    
C123  C151  A    
C116  N12   S    
N20   H157  S    
C187  H75   S    
C57   C77   S    
C199  H118  S    
O27   Zn4   S    
N4    C180  S    
C200  H124  S    
C59   C79   S    
C97   O30   A    
C53   C57   A    
C82   C86   T    
C96   C110  S    
C33   C37   A    
C205  H139  S    
C206  H136  S    
C204  H131  S    
O44   Zn8   S    
C35   C39   A    
O11   Zn12  S    
C121  H24   S    
C79   C95   T    
C178  H46   S    
C118  C130  S    
O24   Zn2   S    
O17   Zn3   S    
O31   Zn7   S    
C185  H71   S    
C73   H9    S    
O32   Zn8   S    
C218  H173  S    
C164  C168  A    
C212  H160  S    
C185  H70   S    
C68   H20   S    
C20   C48   S    
C183  H66   S    
C221  H183  S    
C225  H201  S    
O1    Zn1   S    
C13   N21   S    
C31   C35   A    
C46   O26   A    
C10   C50   S    
C32   C36   A    
N8    H89   S    
C125  N19   S    
C198  H114  S    
C232  H213  S    
C137  C141  A    
C101  O39   A    
C90   C124  A    
C231  H215  S    
C75   H11   S    
C17   C45   S    
C92   C126  A    
C6    C10   A    
N16   H121  S    
C48   O24   A    
C112  O16   A    
C142  C150  S    
C220  H178  S    
C47   O27   A    
C111  C135  S    
C105  C159  S    
C181  H60   S    
C43   C51   A    
C106  C160  S    
C77   C93   T    
C106  O47   A    
C67   C71   A    
C122  C128  A    
O42   Zn6   S    
C25   C49   A    
C69   C81   S    
C58   C78   S    
C173  C213  S    
C56   C60   A    
C229  H211  S    
O45   Zn9   S    
C215  C216  S    
C3    O3    A    
O20   Zn4   S    
C205  H138  S    
C214  H162  S    
C148  C156  S    
C91   H27   S    
C232  H212  S    
C74   H10   S    
C89   H25   S    
C191  H86   S    
C207  H144  S    
C56   C76   A    
N2    C178  S    
N16   C200  S    
N5    H77   S    
C168  H36   S    
C195  H102  S    
C189  H78   S    
O4    Zn2   S    
C174  C215  S    
C141  C149  S    
C229  C230  S    
N7    H85   S    
C7    C11   A    
C182  H59   S    
C94   C108  S    
C225  C226  S    
C221  H182  S    
C102  O36   A    
C1    O1    A    
C38   C42   A    
C178  H48   S    
C100  O34   A    
N11   C195  S    
C197  H111  S    
C30   H38   S    
O12   Zn11  S    
N24   H193  S    
O2    Zn1   S    
C54   N6    S    
C177  H44   S    
C115  N11   S    
C211  H156  S    
N21   C221  S    
C20   C24   A    
C230  H207  S    
N12   C196  S    
C7    C175  A    
C215  H169  S    
C213  H165  S    
C53   N5    S    
C122  H23   S    
C80   C96   T    
C222  H186  S    
C15   N23   S    
C16   C20   A    
C198  H116  S    
C124  C152  A    
C145  N16   S    
C227  H205  S    
C103  O41   A    
C67   H19   S    
C128  C132  S    
C22   C174  A    
C125  C153  A    
C209  H148  S    
C202  H126  S    
C216  H167  S    
C1    C85   S    
C229  H210  S    
C217  H175  S    
C22   C152  S    
N17   C209  S    
C3    C87   S    
C36   C40   A    
C179  H52   S    
C11   C51   S    
C195  H103  S    
O35   Zn7   S    
C208  H140  S    
O36   Zn8   S    
C39   C43   A    
C89   C123  A    
C212  H159  S    
O28   Zn4   S    
C163  C167  A    
N14   C198  S    
C216  H166  S    
N8    C192  S    
C202  H127  S    
C108  O6    A    
C139  C144  A    
C205  C206  S    
C90   C170  A    
O15   Zn11  S    
C213  H164  S    
C223  H191  S    
C201  H129  S    
O26   Zn3   S    
C149  C159  T    
N13   H109  S    
C218  H172  S    
N1    C177  S    
C180  H56   S    
C169  N1    S    
O34   Zn6   S    
C126  C154  A    
N22   H185  S    
C183  C184  S    
C35   C185  S    
C54   C58   A    
C184  H64   S    
O19   Zn4   S    
C44   H8    S    
C182  H57   S    
C34   C38   A    
O22   Zn1   S    
C130  C136  T    
C131  C133  T    
C219  H180  S    
C175  C217  S    
C228  H204  S    
C194  H98   S    
C98   C134  S    
C113  N9    S    
C116  C119  A    
C188  H74   S    
N23   C223  S    
C170  N2    S    
C167  H35   S    
C211  H154  S    
C99   O37   A    
C196  H106  S    
C93   C107  S    
C144  N13   S    
C71   C75   A    
C28   C52   A    
N19   H153  S    
C108  O10   A    
C230  H209  S    
N3    C179  S    
C2    C86   S    
C184  H62   S    
C46   O22   A    
C140  C207  S    
C213  C214  S    
C222  H188  S    
C81   C85   T    
C28   C231  S    
N18   H149  S    
C193  H96   S    
O7    Zn11  S    
C105  O45   A    
C115  C120  A    
C191  H88   S    
C111  O14   A    
C231  C232  S    
C138  C203  S    
N1    H41   S    
C8    C102  S    
C228  H202  S    
C107  O5    A    
