data_mof_unit_44568.cif
_audit_creation_date              2013-03-05T16:31:47-0500
_audit_creation_method            fapswitch 2.2
_symmetry_space_group_name_H-M    P1
_symmetry_Int_Tables_number       1
_space_group_crystal_system       triclinic
_cell_length_a                    11.688227
_cell_length_b                    10.840584
_cell_length_c                    9.630245
_cell_angle_alpha                 88.898721
_cell_angle_beta                  90.499777
_cell_angle_gamma                 90.961448
_cell_volume                      1219.78122097

loop_
_atom_site_label
_atom_site_type_symbol
_atom_site_description
_atom_site_fract_x
_atom_site_fract_y
_atom_site_fract_z
_atom_type_partial_charge
O1    O     O_R   0.500000 0.319640 0.618810 -0.523298
O2    O     O_R   0.500010 0.319680 0.381230 -0.564019
C1    C     C_R   0.502442 0.262781 0.501131 0.902100
O3    O     O_R   0.337190 0.499990 0.618790 -0.578140
O4    O     O_R   0.337200 0.500030 0.381210 -0.541795
C2    C     C_R   0.284235 0.499606 0.499605 0.828800
Cu1   Cu    Cu3+1 0.499990 0.499980 0.640670 1.048918
Cu2   Cu    Cu3+1 0.500010 0.500020 0.359330 1.073409
O5    O     O_R   0.499990 0.680320 0.618770 -0.583829
O6    O     O_R   0.500000 0.680360 0.381190 -0.532863
O7    O     O_R   0.662800 0.499970 0.618790 -0.584974
O8    O     O_R   0.662810 0.500010 0.381210 -0.535681
C3    C     C_R   0.495514 0.737414 0.498069 0.853429
C4    C     C_R   0.715745 0.499526 0.500687 0.825856
C5    C     C_1   0.162460 0.498764 0.499320 -0.052531
C6    C     C_1   0.059906 0.498106 0.500715 0.096766
C7    C     C_1   0.940058 0.497804 0.502560 0.107374
C8    C     C_1   0.837485 0.498304 0.502515 -0.064474
C9    C     C_R   0.438332 0.061875 0.600105 -0.057337
C10   C     C_R   0.499617 0.129316 0.500081 -0.191418
C11   C     C_R   0.542440 0.067999 0.384312 0.371731
C12   C     C_R   0.523484 0.939997 0.373053 0.390461
C13   C     C_R   0.484192 0.870935 0.490305 -0.231912
C14   C     C_R   0.433347 0.934933 0.596901 -0.067128
C15   C     C_3   0.432874 0.918904 0.751372 0.032949
C16   C     C_3   0.443241 0.060874 0.756341 0.481274
H1    H     H_    0.508107 0.868494 0.793532 0.125329
C17   C     C_R   0.600415 0.502011 0.073085 0.097865
N1    N     N_R   0.500710 0.500930 0.147930 -0.262665
C18   C     C_R   0.402197 0.474889 0.071593 0.365768
C19   C     C_R   0.402415 0.479329 0.924010 0.020946
H2    H     H_    0.323560 0.460865 0.868355 0.200693
N2    N     N_R   0.500710 0.500890 0.852020 -0.200264
C20   C     C_R   0.599664 0.502465 0.927244 0.215331
C21   C     C_3   0.696828 0.591341 0.914115 -0.591815
C22   C     C_3   0.702717 0.588905 0.073778 0.655322
H3    H     H_    0.772064 0.549972 0.864109 0.226829
H4    H     H_    0.668963 0.680075 0.866129 0.192011
O9    O     O_3   0.624402 0.127601 0.302870 -0.570807
C23   C     C_3   0.582100 0.150434 0.167801 -0.056670
H5    H     H_    0.627085 0.233648 0.125672 0.214553
H6    H     H_    0.488790 0.169724 0.164075 0.173004
H7    H     H_    0.602875 0.072705 0.099770 0.197659
N3    N     N_R   0.805785 0.528508 0.129076 0.125495
O10   O     O_R   0.878459 0.588631 0.206510 -0.334623
O11   O     O_R   0.828593 0.415802 0.095520 -0.329961
O12   O     O_3   0.679708 0.702103 0.138129 -0.555081
C24   C     C_3   0.753450 0.798615 0.089765 -0.100357
H8    H     H_    0.706734 0.857338 0.013285 0.161499
H9    H     H_    0.833783 0.767060 0.041338 0.170808
H10   H     H_    0.778258 0.857004 0.178819 0.227268
O13   O     O_3   0.556185 0.882682 0.253770 -0.556593
C25   C     C_3   0.459025 0.870545 0.166196 -0.156038
H11   H     H_    0.392108 0.809038 0.212969 0.187270
H12   H     H_    0.486016 0.828984 0.067703 0.205063
H13   H     H_    0.420674 0.961135 0.140088 0.161824
N4    N     N_R   0.323372 0.866761 0.799884 0.162233
O14   O     O_R   0.322941 0.773474 0.886782 -0.373300
O15   O     O_R   0.226810 0.902581 0.745381 -0.268678
N5    N     N_R   0.346063 0.122063 0.819872 0.168689
O16   O     O_R   0.328962 0.109877 0.952709 -0.329465
O17   O     O_R   0.281194 0.195637 0.746845 -0.318045
N6    N     N_R   0.554110 0.105885 0.809744 0.066948
O18   O     O_R   0.648073 0.049515 0.780116 -0.388098
O19   O     O_R   0.561505 0.213018 0.867844 -0.368342
N7    N     N_R   0.300011 0.430062 0.136378 0.148282
O20   O     O_R   0.299366 0.321189 0.195634 -0.314356
O21   O     O_R   0.202946 0.481539 0.106030 -0.299198

loop_
_geom_bond_atom_site_label_1
_geom_bond_atom_site_label_2
_geom_bond_distance
_ccdc_geom_bond_type
O4    Cu2   1.916418 S    
N7    O21   1.301213 A    
C16   N6    1.469224 S    
C19   N2    1.361575 A    
C23   H5    1.108404 S    
N1    C18   1.388612 A    
C15   H1    1.112699 S    
C4    C8    1.423159 S    
C19   H2    1.079879 S    
C21   C22   1.538277 S    
C11   O9    1.386799 S    
C18   C19   1.421171 A    
Cu2   O8    1.912649 S    
N6    O19   1.300039 A    
C23   H7    1.108642 S    
C24   H9    1.113864 S    
C7    C8    1.198998 T    
C15   C16   1.543396 S    
C17   C20   1.404349 A    
Cu1   Cu2   2.709366 S    
O1    Cu1   1.970313 S    
C25   H11   1.111903 S    
C14   C15   1.494435 S    
Cu1   O7    1.916417 S    
Cu1   N2    2.035510 S    
C3    C13   1.456123 S    
N4    O14   1.300154 A    
C18   N7    1.426112 S    
C15   N4    1.466924 S    
O13   C25   1.414479 S    
O3    Cu1   1.912648 S    
Cu2   N1    2.035756 S    
C23   H6    1.114077 S    
C17   N1    1.375361 A    
C21   H3    1.111415 S    
O8    C4    1.301599 A    
C9    C14   1.377308 A    
C12   O13   1.376501 S    
O2    C1    1.298915 A    
C25   H12   1.108428 S    
O4    C2    1.302028 A    
Cu2   O6    1.970313 S    
O7    C4    1.299675 A    
C22   N3    1.471531 S    
O3    C2    1.299316 A    
N4    O15   1.302559 A    
C5    C6    1.198772 T    
C13   C14   1.392898 A    
N6    O18   1.302190 A    
O9    C23   1.406479 S    
O12   C24   1.418614 S    
C1    C10   1.446892 S    
C21   H4    1.111636 S    
N2    C20   1.359412 A    
C10   C11   1.408803 A    
C17   C22   1.509781 S    
C22   O12   1.416134 S    
N5    O17   1.301932 A    
C20   C21   1.481590 S    
C25   H13   1.109903 S    
N7    O20   1.300980 A    
Cu1   O5    1.962301 S    
C9    C16   1.505022 S    
O5    C3    1.307406 A    
C12   C13   1.418254 A    
C24   H8    1.110168 S    
C2    C5    1.423186 S    
C11   C12   1.407614 A    
C16   N5    1.468833 S    
C24   H10   1.109317 S    
O2    Cu2   1.962300 S    
N3    O10   1.300566 A    
C9    C10   1.393872 A    
C6    C7    1.401025 S    
N3    O11   1.302264 A    
N5    O16   1.300374 A    
O1    C1    1.301178 A    
O6    C3    1.296571 A    
