data_mof_unit_59167.cif
_audit_creation_date              2012-12-10T18:20:40-0500
_audit_creation_method            fapswitch 2.2
_symmetry_space_group_name_H-M    P1
_symmetry_Int_Tables_number       1
_space_group_crystal_system       triclinic
_cell_length_a                    14.277061
_cell_length_b                    13.534886
_cell_length_c                    15.002992
_cell_angle_alpha                 87.451893
_cell_angle_beta                  89.580308
_cell_angle_gamma                 82.070519
_cell_volume                      2868.59290203

loop_
_atom_site_label
_atom_site_type_symbol
_atom_type_description
_atom_site_fract_x
_atom_site_fract_y
_atom_site_fract_z
_atom_type_partial_charge
C1    C     C_R   0.501194 0.497839 0.327498 0.968547
C2    C     C_R   0.603093 0.343786 0.955816 -0.205629
C3    C     C_R   0.809255 0.425403 0.545450 0.049165
C4    C     C_R   0.190830 0.575747 0.455985 0.043065
C5    C     C_R   0.790161 0.570734 0.449123 0.064500
C6    C     C_R   0.209885 0.427440 0.548246 0.070554
C7    C     C_R   0.888916 0.580399 0.458694 -0.099144
C8    C     C_R   0.111372 0.418227 0.537479 -0.095252
C9    C     C_R   0.949798 0.499529 0.498565 0.061432
C10   C     C_R   0.050232 0.500230 0.500393 0.060494
C11   C     C_R   0.910351 0.416650 0.534368 -0.086384
C12   C     C_R   0.498729 0.502319 0.672513 0.969026
C13   C     C_R   0.089772 0.583623 0.466334 -0.089301
C14   C     C_R   0.929164 0.667400 0.430343 -0.078023
C15   C     C_R   0.072343 0.329773 0.561719 -0.086208
C16   C     C_R   0.517547 0.314612 0.500742 0.968907
C17   C     C_R   0.482442 0.685371 0.499431 0.968920
C18   C     C_R   0.027091 0.671107 0.441079 -0.084428
C19   C     C_R   0.973229 0.328368 0.558465 -0.083648
C20   C     C_1   0.468754 0.789412 0.493034 -0.075904
C21   C     C_1   0.531175 0.210623 0.509126 -0.076651
C22   C     C_2   0.461675 0.981919 0.487220 -0.140756
C23   C     C_R   0.495527 0.499206 0.953396 0.022142
C24   C     C_2   0.538319 0.018032 0.518940 -0.133307
C25   C     C_1   0.537892 0.122510 0.515465 0.000539
C26   C     C_1   0.462065 0.877568 0.488778 0.000118
C27   C     C_R   0.527660 0.410266 0.817087 -0.092559
C28   C     C_R   0.471046 0.589826 0.183048 -0.094437
C29   C     C_R   0.494426 0.499494 0.768358 -0.181275
C30   C     C_R   0.505122 0.500758 0.231681 -0.181323
C31   C     C_R   0.450320 0.584442 0.811168 -0.091369
C32   C     C_R   0.548829 0.415739 0.188795 -0.091132
C33   C     C_R   0.441586 0.579645 0.904971 0.033408
C34   C     C_R   0.503536 0.501097 0.046646 0.022198
C35   C     C_R   0.557450 0.420599 0.095035 0.033295
C36   C     C_2   0.624006 0.956161 0.558999 0.897096
C37   C     C_2   0.375896 0.044306 0.448305 0.917373
C38   C     C_2   0.539568 0.310513 0.775210 0.887578
C39   C     C_2   0.457704 0.689442 0.225179 0.885897
C40   C     C_R   0.424287 0.680923 0.759476 0.088108
C41   C     C_R   0.476066 0.760320 0.771861 -0.127604
C42   C     C_R   0.445603 0.854966 0.732875 -0.099646
C43   C     C_R   0.363419 0.871001 0.681275 -0.108691
C44   C     C_R   0.313207 0.791751 0.666206 -0.124518
C45   C     C_R   0.540797 0.416174 0.908862 0.041451
C46   C     C_R   0.343644 0.696883 0.704674 -0.115735
C47   C     C_R   0.573852 0.318942 0.240284 0.086228
C48   C     C_R   0.653934 0.302101 0.295771 -0.108735
C49   C     C_R   0.682973 0.207105 0.334595 -0.131505
C50   C     C_R   0.632064 0.128529 0.319058 -0.105758
C51   C     C_R   0.550694 0.145334 0.266368 -0.089247
C52   C     C_R   0.521483 0.240165 0.227198 -0.130898
C53   C     C_R   0.302972 0.720754 0.913270 0.141975
C54   C     C_R   0.298986 0.824895 0.915828 -0.147252
C55   C     C_R   0.220914 0.887783 0.880473 -0.134759
C56   C     C_R   0.458003 0.583974 0.091235 0.040970
C57   C     C_R   0.145752 0.847194 0.843816 -0.075525
C58   C     C_R   0.148227 0.743630 0.843022 -0.138527
C59   C     C_R   0.226237 0.680486 0.878188 -0.170074
C60   C     C_R   0.695500 0.278865 0.086855 0.141440
C61   C     C_R   0.772241 0.318649 0.122484 -0.169625
C62   C     C_R   0.849807 0.255103 0.157996 -0.139719
C63   C     C_R   0.851841 0.151604 0.157013 -0.078312
C64   C     C_R   0.776687 0.111484 0.119814 -0.127395
C65   C     C_R   0.699054 0.174777 0.084123 -0.150301
C66   C     C_R   0.772520 0.367474 0.620856 0.140053
C67   C     C_R   0.384273 0.653634 0.952746 -0.024626
C68   C     C_R   0.789117 0.395713 0.707760 -0.136757
C69   C     C_R   0.781752 0.329638 0.780887 -0.156283
C70   C     C_R   0.757958 0.234653 0.767946 -0.092745
C71   C     C_R   0.737184 0.207442 0.682399 -0.038005
C72   C     C_R   0.743247 0.273917 0.609159 -0.050413
C73   C     C_R   0.227556 0.635904 0.382018 0.142902
C74   C     C_R   0.255364 0.729733 0.395821 -0.040966
C75   C     C_R   0.261632 0.797871 0.323853 -0.071840
C76   C     C_R   0.241817 0.772351 0.237492 -0.085454
C77   C     C_R   0.218786 0.677488 0.222556 -0.147222
C78   C     C_R   0.614498 0.346416 0.047297 -0.024719
C79   C     C_R   0.211786 0.609563 0.294354 -0.131846
C80   C     C_R   0.740225 0.615624 0.367715 0.150759
C81   C     C_R   0.683937 0.709450 0.366612 -0.084365
C82   C     C_R   0.653281 0.757734 0.285679 -0.086347
C83   C     C_R   0.675778 0.711419 0.205389 -0.062402
C84   C     C_R   0.727975 0.616309 0.206010 -0.143017
C85   C     C_R   0.760901 0.568941 0.286660 -0.141494
C86   C     C_R   0.258038 0.381669 0.630319 0.147222
C87   C     C_R   0.236780 0.428690 0.711126 -0.142993
C88   C     C_R   0.268699 0.381466 0.792140 -0.146251
C89   C     C_R   0.395454 0.656169 0.044296 -0.205906
C90   C     C_R   0.320535 0.286153 0.793387 -0.070082
C91   C     C_R   0.343570 0.239458 0.713390 -0.103521
C92   C     C_R   0.313858 0.287567 0.632118 -0.076750
C93   C     C_2   0.869846 0.761308 0.401551 0.918320
C94   C     C_2   0.134372 0.232955 0.572427 0.918062
C95   C     C_2   0.058265 0.770950 0.445810 0.916445
C96   C     C_2   0.939784 0.229448 0.559591 0.915635
H1    H     H_    0.349598 0.711728 0.079518 0.175234
H2    H     H_    0.249704 0.804261 0.626077 0.185415
H3    H     H_    0.301488 0.637551 0.695622 0.150378
H4    H     H_    0.696638 0.360854 0.305298 0.151271
H5    H     H_    0.745832 0.194016 0.375529 0.173262
H6    H     H_    0.655301 0.054775 0.348372 0.135147
H7    H     H_    0.510993 0.084513 0.254875 0.136627
H8    H     H_    0.459759 0.251593 0.184489 0.134811
H9    H     H_    0.356820 0.857120 0.944111 0.141117
H10   H     H_    0.218738 0.967976 0.881384 0.141041
H11   H     H_    0.085490 0.895982 0.816269 0.154996
H12   H     H_    0.648544 0.287940 0.920666 0.175094
H13   H     H_    0.089808 0.712261 0.815013 0.142111
H14   H     H_    0.227289 0.600427 0.877487 0.120996
H15   H     H_    0.771534 0.398640 0.123351 0.120751
H16   H     H_    0.908220 0.286113 0.186427 0.142268
H17   H     H_    0.911758 0.102503 0.184830 0.150518
H18   H     H_    0.778520 0.031338 0.118756 0.145585
H19   H     H_    0.641195 0.142905 0.055482 0.141705
H20   H     H_    0.813226 0.466756 0.718298 0.132644
H21   H     H_    0.797081 0.351068 0.847308 0.138688
H22   H     H_    0.754529 0.182453 0.824252 0.135910
H23   H     H_    0.684261 0.826037 0.618082 0.363291
H24   H     H_    0.718013 0.134180 0.672764 0.173584
H25   H     H_    0.734123 0.248289 0.542985 0.149837
H26   H     H_    0.263785 0.753888 0.462658 0.154453
H27   H     H_    0.280049 0.871129 0.335184 0.164639
H28   H     H_    0.245543 0.825640 0.182062 0.134992
H29   H     H_    0.203955 0.657438 0.155582 0.135689
H30   H     H_    0.188509 0.538492 0.282198 0.132185
H31   H     H_    0.670182 0.748955 0.427390 0.171145
H32   H     H_    0.613152 0.831695 0.285225 0.123495
H33   H     H_    0.652281 0.749004 0.142693 0.151751
H34   H     H_    0.318699 0.170300 0.380516 0.367281
H35   H     H_    0.744810 0.580428 0.143780 0.125941
H36   H     H_    0.804958 0.497089 0.285798 0.116126
H37   H     H_    0.193206 0.500856 0.711482 0.115918
H38   H     H_    0.251481 0.417728 0.854132 0.126374
H39   H     H_    0.343441 0.248758 0.856324 0.152069
H40   H     H_    0.383713 0.165484 0.714303 0.123918
H41   H     H_    0.329235 0.248248 0.571462 0.174251
H42   H     H_    0.786206 0.885019 0.437239 0.350589
H43   H     H_    0.183559 0.114434 0.653251 0.341548
H44   H     H_    0.069765 0.904476 0.384612 0.357231
H45   H     H_    0.546717 0.160562 0.791980 0.326633
H46   H     H_    0.883686 0.128062 0.489824 0.355022
H47   H     H_    0.449577 0.839530 0.208882 0.325950
H48   H     H_    0.538262 0.749528 0.813954 0.135296
H49   H     H_    0.484866 0.916273 0.743808 0.135765
H50   H     H_    0.339061 0.944677 0.652365 0.143733
N1    N     N_R   0.750030 0.500040 0.500070 -0.136367
N2    N     N_R   0.249970 0.499960 0.499930 -0.137071
O1    O     O_R   0.580280 0.500020 0.367860 -0.628470
O2    O     O_R   0.621334 0.858572 0.592628 -0.812101
O3    O     O_2   0.299872 0.012209 0.451625 -0.614240
O4    O     O_R   0.381620 0.137184 0.405497 -0.815958
O5    O     O_2   0.544671 0.304597 0.694472 -0.664971
O6    O     O_R   0.538589 0.222761 0.828088 -0.846083
O7    O     O_2   0.451518 0.695082 0.305892 -0.662917
O8    O     O_R   0.458566 0.777447 0.172624 -0.847105
O9    O     O_2   0.867648 0.788734 0.322716 -0.595328
O10   O     O_R   0.821726 0.821297 0.465203 -0.793479
O11   O     O_2   0.178009 0.198197 0.508053 -0.620927
O12   O     O_R   0.419720 0.499980 0.632140 -0.626641
O13   O     O_R   0.139893 0.180111 0.654866 -0.761551
O14   O     O_2   0.090730 0.794895 0.515619 -0.645753
O15   O     O_R   0.047401 0.838532 0.372150 -0.765570
O16   O     O_2   0.948303 0.174720 0.626961 -0.573130
O17   O     O_R   0.902295 0.197555 0.481793 -0.832466
O18   O     O_R   0.419730 0.500030 0.367840 -0.596807
O19   O     O_R   0.580270 0.499970 0.632160 -0.597974
O20   O     O_R   0.591830 0.359650 0.500030 -0.631613
O21   O     O_R   0.408170 0.640350 0.499970 -0.631058
O22   O     O_R   0.431280 0.359660 0.500010 -0.613449
O23   O     O_R   0.568720 0.640340 0.499990 -0.614145
O24   O     O_2   0.697442 0.992576 0.564505 -0.644310
Zn1   Zn    Zn3+2 0.607200 0.499990 0.500020 0.972139
Zn2   Zn    Zn3+2 0.392800 0.500010 0.499980 0.973811

loop_
_geom_bond_atom_site_label_1
_geom_bond_atom_site_label_2
_ccdc_geom_bond_type
C66   C68   A    
C46   H3    S    
C34   C56   A    
C94   O11   D    
C23   C45   A    
C12   C29   S    
C27   C29   A    
C58   H13   S    
C41   C42   A    
C87   H37   S    
C75   C76   A    
C17   C20   S    
C15   C94   S    
C81   C82   A    
C53   C59   A    
C53   C54   A    
H44   O15   S    
C40   C46   A    
O23   Zn1   S    
C60   C78   S    
C62   C63   A    
C13   C18   A    
C75   H27   S    
C1    O18   A    
C70   H22   S    
C83   H33   S    
C85   H36   S    
C49   H5    S    
C72   H25   S    
C17   O21   A    
H45   O6    S    
C27   C38   S    
C51   H7    S    
C4    N2    A    
C67   C89   A    
C59   H14   S    
C31   C40   S    
C34   C35   A    
C73   C74   A    
C2    H12   S    
C4    C13   A    
C14   C18   A    
C12   O19   A    
C44   H2    S    
C7    C14   A    
C66   C72   A    
C91   H40   S    
C47   C48   A    
C68   C69   A    
C23   C33   A    
O21   Zn2   S    
C31   C33   A    
C1    O1    A    
C70   C71   A    
C9    C10   A    
C14   C93   S    
O19   Zn1   S    
C27   C45   A    
H23   O2    S    
C81   H31   S    
C18   C95   S    
C65   H19   S    
C69   C70   A    
C37   O3    D    
C92   H41   S    
C44   C46   A    
C57   C58   A    
C76   C77   A    
C77   C79   A    
C2    C45   A    
C28   C56   A    
O20   Zn1   S    
C48   H4    S    
C36   O24   D    
O18   Zn2   S    
C74   C75   A    
C55   H10   S    
C51   C52   A    
C76   H28   S    
C32   C35   A    
H43   O13   S    
C64   H18   S    
C24   C25   S    
C41   H48   S    
C95   O14   D    
C56   C89   A    
C91   C92   A    
C5    C7    A    
C86   C87   A    
C6    C8    A    
C28   C39   S    
C58   C59   A    
C22   C37   S    
C82   C83   A    
N2    Zn2   S    
C96   O16   D    
C39   O7    D    
C60   C61   A    
C15   C19   A    
C43   C44   A    
C80   C85   A    
C2    C78   A    
C95   O15   S    
C6    N2    A    
H42   O10   S    
C83   C84   A    
C23   C34   A    
C11   C19   A    
N1    Zn1   S    
C50   C51   A    
C73   C79   A    
C24   C36   S    
C84   C85   A    
C5    C80   S    
C93   O9    D    
C9    C11   A    
C94   O13   S    
C82   H32   S    
C4    C73   S    
C68   H20   S    
C71   H24   S    
C48   C49   A    
C57   H11   S    
C79   H30   S    
C88   C90   A    
C60   C65   A    
C50   H6    S    
C8    C15   A    
C55   C57   A    
H34   O4    S    
C32   C47   S    
C22   C24   D    
C3    C66   S    
C42   C43   A    
C38   O6    S    
C37   O4    S    
C90   C91   A    
C93   O10   S    
C61   H15   S    
C77   H29   S    
C33   C67   A    
O22   Zn2   S    
C7    C9    A    
C21   C25   T    
C54   C55   A    
C52   H8    S    
C35   C78   A    
C54   H9    S    
C74   H26   S    
O12   Zn2   S    
C80   C81   A    
C12   O12   A    
C10   C13   A    
C17   O23   A    
C16   C21   S    
C47   C52   A    
C84   H35   S    
C6    C86   S    
C39   O8    S    
C64   C65   A    
C28   C30   A    
C88   H38   S    
C71   C72   A    
C29   C31   A    
C43   H50   S    
C86   C92   A    
C3    N1    A    
H46   O17   S    
C30   C32   A    
C90   H39   S    
C36   O2    S    
H47   O8    S    
C20   C26   T    
C5    N1    A    
C16   O20   A    
C69   H21   S    
C1    C30   S    
O1    Zn1   S    
C61   C62   A    
C53   C67   S    
C3    C11   A    
C63   C64   A    
C63   H17   S    
C16   O22   A    
C62   H16   S    
C87   C88   A    
C8    C10   A    
C49   C50   A    
C22   C26   S    
C89   H1    S    
C96   O17   S    
C40   C41   A    
C38   O5    D    
C42   H49   S    
C19   C96   S    
