data_mof_unit_47419.cif
_audit_creation_date              2012-12-11T15:11:46-0500
_audit_creation_method            fapswitch 2.2
_symmetry_space_group_name_H-M    P1
_symmetry_Int_Tables_number       1
_space_group_crystal_system       triclinic
_cell_length_a                    31.393393
_cell_length_b                    22.746247
_cell_length_c                    17.954521
_cell_angle_alpha                 89.989631
_cell_angle_beta                  124.340752
_cell_angle_gamma                 90.009022
_cell_volume                      10586.2628636

loop_
_atom_site_label
_atom_site_type_symbol
_atom_type_description
_atom_site_fract_x
_atom_site_fract_y
_atom_site_fract_z
_atom_type_partial_charge
C1    C     C_R   0.533339 0.610481 0.704568 -0.076251
C2    C     C_R   0.242462 0.675564 0.446588 0.087096
C3    C     C_R   0.309027 0.332489 0.936620 0.156078
C4    C     C_R   0.809054 0.167660 0.936696 0.156156
C5    C     C_R   0.130813 0.694673 0.874029 0.149135
C6    C     C_R   0.130757 0.305439 0.873661 0.148770
C7    C     C_R   0.808974 0.832560 0.936573 0.156078
C8    C     C_R   0.231053 0.656548 0.936047 0.076694
C9    C     C_R   0.704930 0.195866 0.861918 0.075459
C10   C     C_R   0.704877 0.804221 0.861859 0.075492
C11   C     C_R   0.231059 0.343502 0.935917 0.076691
C12   C     C_R   0.731094 0.156568 0.936012 0.076685
C13   C     C_R   0.242963 0.322186 0.444469 0.087195
C14   C     C_R   0.204883 0.695843 0.861948 0.075492
C15   C     C_R   0.204914 0.304201 0.861835 0.075523
C16   C     C_R   0.731024 0.843524 0.935939 0.076701
C17   C     C_R   0.729103 0.212369 0.818343 -0.203287
C18   C     C_R   0.203049 0.629898 0.966935 -0.202607
C19   C     C_R   0.203019 0.370165 0.966708 -0.202595
C20   C     C_R   0.729052 0.787768 0.818276 -0.203423
C21   C     C_R   0.229036 0.712306 0.818319 -0.203367
C22   C     C_R   0.703074 0.129877 0.966837 -0.202588
C23   C     C_R   0.702995 0.870161 0.966770 -0.202576
C24   C     C_R   0.756045 0.682197 0.560627 0.083813
C25   C     C_R   0.229103 0.287723 0.818287 -0.203424
C26   C     C_R   0.780084 0.197019 0.854196 -0.187496
C27   C     C_R   0.153053 0.647759 0.934362 -0.191707
C28   C     C_R   0.152991 0.352342 0.934005 -0.191468
C29   C     C_R   0.780017 0.803186 0.854094 -0.187286
C30   C     C_R   0.280003 0.696914 0.854119 -0.187410
C31   C     C_R   0.653055 0.147692 0.934189 -0.191722
C32   C     C_R   0.652982 0.852306 0.934116 -0.191627
C33   C     C_R   0.280077 0.303116 0.854140 -0.187260
C34   C     C_R   0.591977 0.584414 0.422538 0.453955
C35   C     C_R   0.255663 0.816741 0.561267 0.083574
C36   C     C_R   0.407453 0.416949 0.577232 0.423406
C37   C     C_R   0.407379 0.582662 0.577290 0.423707
C38   C     C_R   0.591912 0.415306 0.422606 0.455744
C39   C     C_R   0.092062 0.084081 0.422491 0.453074
C40   C     C_R   0.907405 0.917194 0.577278 0.423171
C41   C     C_R   0.907418 0.082935 0.577217 0.424250
C42   C     C_R   0.091814 0.914971 0.422638 0.456310
C43   C     C_R   0.383396 0.585613 0.259486 -0.104444
C44   C     C_R   0.605722 0.391703 0.707007 -0.101215
C45   C     C_R   0.605697 0.608332 0.706914 -0.101351
C46   C     C_R   0.742748 0.176487 0.446017 0.087009
C47   C     C_R   0.383384 0.414421 0.259457 -0.104448
C48   C     C_R   0.883405 0.085630 0.259492 -0.104474
C49   C     C_R   0.105738 0.891728 0.707109 -0.101218
C50   C     C_R   0.105685 0.108351 0.706831 -0.101369
C51   C     C_R   0.883377 0.914434 0.259454 -0.104401
C52   C     C_R   0.577883 0.642110 0.730382 0.026932
C53   C     C_R   0.401858 0.398633 0.207693 0.030845
C54   C     C_R   0.401878 0.601437 0.207735 0.030998
C55   C     C_R   0.577914 0.357919 0.730490 0.026946
C56   C     C_R   0.077882 0.142133 0.730312 0.027004
C57   C     C_R   0.742707 0.823151 0.445267 0.087195
C58   C     C_R   0.901837 0.898675 0.207660 0.030697
C59   C     C_R   0.901904 0.101488 0.207777 0.031101
C60   C     C_R   0.077921 0.857954 0.730586 0.026966
C61   C     C_R   0.638769 0.601870 0.495285 -0.044026
C62   C     C_R   0.360910 0.398903 0.504499 -0.048331
C63   C     C_R   0.360713 0.600413 0.504636 -0.048621
C64   C     C_R   0.638651 0.397788 0.495429 -0.044685
C65   C     C_R   0.138927 0.101383 0.495173 -0.043706
C66   C     C_R   0.860786 0.899309 0.504603 -0.048299
C67   C     C_R   0.860837 0.100843 0.504485 -0.048628
C68   C     C_R   0.256325 0.181326 0.560062 0.083878
C69   C     C_R   0.138475 0.897268 0.495521 -0.044896
C70   C     C_R   0.649553 0.311357 0.431382 -0.115591
C71   C     C_R   0.349018 0.683493 0.573198 -0.115474
C72   C     C_R   0.349387 0.315482 0.572924 -0.116135
C73   C     C_R   0.649769 0.687786 0.430268 -0.115294
C74   C     C_R   0.149301 0.810639 0.431652 -0.115722
C75   C     C_R   0.849335 0.184484 0.572358 -0.116003
C76   C     C_R   0.849164 0.816131 0.573255 -0.115854
C77   C     C_R   0.150066 0.186874 0.429606 -0.115031
C78   C     C_R   0.672039 0.358295 0.491431 0.126794
C79   C     C_R   0.733629 0.269556 0.500446 0.001480
C80   C     C_R   0.326859 0.637845 0.510645 0.128522
C81   C     C_R   0.327157 0.361047 0.510193 0.128994
C82   C     C_R   0.672224 0.641221 0.491105 0.126720
C83   C     C_R   0.171810 0.857558 0.491739 0.127018
C84   C     C_R   0.827096 0.138598 0.510259 0.128796
C85   C     C_R   0.826972 0.861668 0.510472 0.128807
C86   C     C_R   0.172469 0.140473 0.490773 0.126533
C87   C     C_R   0.724711 0.362455 0.554766 -0.185429
C88   C     C_R   0.274110 0.632598 0.448909 -0.181740
C89   C     C_R   0.274456 0.365644 0.447524 -0.182566
C90   C     C_R   0.264646 0.723356 0.507544 0.000019
C91   C     C_R   0.724850 0.637493 0.555112 -0.185949
C92   C     C_R   0.224451 0.861474 0.555486 -0.185843
C93   C     C_R   0.774348 0.133366 0.448600 -0.181809
C94   C     C_R   0.774254 0.866447 0.448055 -0.182357
C95   C     C_R   0.225098 0.136728 0.554784 -0.185826
C96   C     C_R   0.265207 0.274577 0.505778 0.000045
C97   C     C_R   0.453643 0.415347 0.256314 -0.083740
C98   C     C_R   0.733685 0.730203 0.500173 0.001550
C99   C     C_R   0.233308 0.768483 0.501342 0.001469
C100  C     C_R   0.764976 0.224452 0.506617 0.000001
C101  C     C_R   0.764931 0.775517 0.506533 0.000053
C102  C     C_R   0.233983 0.229231 0.499394 0.001605
C103  C     C_R   0.679906 0.266450 0.434645 -0.035566
C104  C     C_R   0.318394 0.726719 0.572955 -0.031159
C105  C     C_R   0.318876 0.271772 0.572022 -0.031462
C106  C     C_R   0.680057 0.732786 0.433530 -0.035988
C107  C     C_R   0.179621 0.765571 0.435187 -0.035707
C108  C     C_R   0.453666 0.584724 0.256357 -0.084386
C109  C     C_R   0.818750 0.227915 0.571805 -0.031022
C110  C     C_R   0.818618 0.772581 0.572583 -0.031471
C111  C     C_R   0.180369 0.231753 0.432648 -0.036052
C112  C     C_R   0.808936 0.320540 0.625633 -0.287752
C113  C     C_R   0.189406 0.672528 0.382073 -0.283761
C114  C     C_R   0.190012 0.324644 0.379000 -0.283982
C115  C     C_R   0.808899 0.680088 0.626902 -0.288203
C116  C     C_R   0.308563 0.819175 0.627117 -0.288376
C117  C     C_R   0.689678 0.173345 0.381698 -0.283733
C118  C     C_R   0.689725 0.825743 0.380037 -0.283895
C119  C     C_R   0.533364 0.389531 0.704648 -0.076518
C120  C     C_R   0.309176 0.179278 0.626402 -0.288023
C121  C     C_R   0.340272 0.774318 0.633562 0.476906
C122  C     C_R   0.657921 0.218101 0.375536 0.481534
C123  C     C_R   0.658065 0.780780 0.373672 0.481548
C124  C     C_R   0.340791 0.224331 0.632961 0.476971
C125  C     C_R   0.840662 0.275715 0.632012 0.477208
C126  C     C_R   0.157650 0.717301 0.375903 0.481594
C127  C     C_R   0.158380 0.279637 0.372572 0.481515
C128  C     C_R   0.840526 0.725117 0.633472 0.476847
C129  C     C_R   0.369917 0.621078 0.112249 0.113975
C130  C     C_R   0.033350 0.110496 0.704555 -0.076471
C131  C     C_R   0.592854 0.298809 0.772707 0.106620
C132  C     C_R   0.592816 0.701217 0.772598 0.106646
C133  C     C_R   0.369909 0.379006 0.112208 0.114048
C134  C     C_R   0.869960 0.121158 0.112308 0.113973
C135  C     C_R   0.092863 0.798859 0.772847 0.106652
C136  C     C_R   0.092814 0.201250 0.772496 0.106482
C137  C     C_R   0.869874 0.879071 0.112164 0.114049
C138  C     C_R   0.362319 0.660704 0.979605 -0.155444
C139  C     C_R   0.584400 0.219142 0.853482 -0.147944
C140  C     C_R   0.584341 0.780841 0.853375 -0.148031
C141  C     C_R   0.953620 0.915393 0.256270 -0.083435
C142  C     C_R   0.362364 0.339351 0.979644 -0.155455
C143  C     C_R   0.862396 0.160846 0.979727 -0.155616
C144  C     C_R   0.084437 0.719255 0.853739 -0.148122
C145  C     C_R   0.084324 0.280912 0.853204 -0.147312
C146  C     C_R   0.862307 0.839444 0.979566 -0.155451
C147  C     C_R   0.392609 0.638170 0.066998 -0.131026
C148  C     C_R   0.565897 0.271285 0.804284 -0.120875
C149  C     C_R   0.565846 0.728711 0.804156 -0.120873
C150  C     C_R   0.392628 0.361900 0.067018 -0.131049
C151  C     C_R   0.892673 0.138302 0.067113 -0.131029
C152  C     C_R   0.953693 0.084778 0.256408 -0.084794
C153  C     C_R   0.065939 0.771393 0.804529 -0.120924
C154  C     C_R   0.065823 0.228780 0.803989 -0.120373
C155  C     C_R   0.892580 0.861989 0.066941 -0.131029
C156  C     C_R   0.316051 0.624164 0.066387 -0.237459
C157  C     C_R   0.636255 0.270685 0.785207 -0.228326
C158  C     C_R   0.636228 0.729358 0.785146 -0.228404
C159  C     C_R   0.316039 0.375920 0.066301 -0.237396
C160  C     C_R   0.816089 0.124206 0.066398 -0.237482
C161  C     C_R   0.136226 0.770689 0.785264 -0.228354
C162  C     C_R   0.136250 0.229361 0.785096 -0.228404
C163  C     C_R   0.033357 0.889553 0.704679 -0.076414
C164  C     C_R   0.816007 0.875968 0.066286 -0.237375
C165  C     C_R   0.284822 0.647281 0.978694 0.082511
C166  C     C_R   0.656560 0.219227 0.837059 0.083989
C167  C     C_R   0.656517 0.780816 0.836998 0.083973
C168  C     C_R   0.284834 0.352776 0.978624 0.082500
C169  C     C_R   0.784873 0.147337 0.978711 0.082503
C170  C     C_R   0.156535 0.719243 0.837147 0.083979
C171  C     C_R   0.156539 0.280824 0.836934 0.083981
C172  C     C_R   0.784794 0.852824 0.978610 0.082496
C173  C     C_R   0.642606 0.585123 0.572290 -0.226270
C174  C     C_R   0.755985 0.317899 0.560203 0.083483
C175  C     C_R   0.357565 0.414244 0.427265 -0.201562
C176  C     C_R   0.357417 0.585373 0.427355 -0.201689
C177  C     C_R   0.642548 0.414724 0.572376 -0.226539
C178  C     C_R   0.142694 0.084886 0.572222 -0.226227
C179  C     C_R   0.857478 0.914467 0.427334 -0.201531
C180  C     C_R   0.857508 0.085610 0.427258 -0.201903
C181  C     C_R   0.142445 0.914463 0.572432 -0.226346
C182  C     C_R   0.308984 0.667558 0.936622 0.156055
C183  C     C_R   0.630810 0.194607 0.873856 0.149038
C184  C     C_R   0.630753 0.805400 0.873777 0.149060
Cl1   Cl    Cl    0.576669 0.575081 0.312913 -0.600981
Cl2   Cl    Cl    0.591175 0.211833 0.292045 -0.612549
Cl3   Cl    Cl    0.591443 0.786329 0.288973 -0.612373
Cl4   Cl    Cl    0.407378 0.219125 0.718237 -0.653123
Cl5   Cl    Cl    0.907392 0.281730 0.715988 -0.653274
Cl6   Cl    Cl    0.090941 0.711231 0.292045 -0.612364
Cl7   Cl    Cl    0.091785 0.285047 0.287621 -0.612577
Cl8   Cl    Cl    0.907132 0.719794 0.718589 -0.652945
Cl9   Cl    Cl    0.422586 0.427785 0.686785 -0.580407
Cl10  Cl    Cl    0.422731 0.571698 0.686968 -0.580078
Cl11  Cl    Cl    0.576573 0.424078 0.312881 -0.600862
Cl12  Cl    Cl    0.076721 0.074349 0.312905 -0.600990
Cl13  Cl    Cl    0.922650 0.928210 0.686871 -0.580423
Cl14  Cl    Cl    0.922625 0.072215 0.686840 -0.580361
Cl15  Cl    Cl    0.076520 0.923444 0.312900 -0.600752
Cl16  Cl    Cl    0.406949 0.780091 0.718025 -0.652884
H1    H     H_    0.503194 0.625188 0.711241 0.151176
H2    H     H_    0.298913 0.612259 0.101695 0.113858
H3    H     H_    0.298882 0.387848 0.101566 0.113830
H4    H     H_    0.656371 0.708425 0.760091 0.115182
H5    H     H_    0.156310 0.791588 0.760059 0.115168
H6    H     H_    0.798933 0.112253 0.101659 0.113844
H7    H     H_    0.798862 0.887878 0.101576 0.113837
H8    H     H_    0.156416 0.208398 0.760108 0.115191
H9    H     H_    0.531653 0.290865 0.794295 0.162163
H10   H     H_    0.433914 0.636144 0.099754 0.155194
H11   H     H_    0.433936 0.363921 0.099811 0.155180
H12   H     H_    0.476300 0.418384 0.228726 0.175554
H13   H     H_    0.531597 0.709116 0.794145 0.162199
H14   H     H_    0.031726 0.791014 0.794611 0.162161
H15   H     H_    0.933982 0.136304 0.099907 0.155120
H16   H     H_    0.933887 0.864022 0.099714 0.155266
H17   H     H_    0.031555 0.209213 0.793934 0.162096
H18   H     H_    0.380974 0.675399 0.947283 0.159329
H19   H     H_    0.563994 0.199895 0.880069 0.162373
H20   H     H_    0.563925 0.800060 0.879949 0.162339
H21   H     H_    0.381041 0.324647 0.947374 0.159247
H22   H     H_    0.881067 0.175578 0.947449 0.158982
H23   H     H_    0.476364 0.581792 0.228835 0.175434
H24   H     H_    0.064056 0.700050 0.880402 0.162278
H25   H     H_    0.063893 0.300156 0.879733 0.162440
H26   H     H_    0.880975 0.824756 0.947271 0.159325
H27   H     H_    0.709123 0.236746 0.755840 0.137191
H28   H     H_    0.218972 0.594740 0.015892 0.129603
H29   H     H_    0.218932 0.405314 0.015668 0.129594
H30   H     H_    0.709082 0.763386 0.755786 0.137173
H31   H     H_    0.209051 0.736681 0.755816 0.137174
H32   H     H_    0.718998 0.094720 0.015795 0.129597
H33   H     H_    0.718905 0.905312 0.015726 0.129596
H34   H     H_    0.503247 0.374818 0.711388 0.151295
H35   H     H_    0.209136 0.263341 0.755796 0.137184
H36   H     H_    0.676179 0.587519 0.640997 0.127949
H37   H     H_    0.324712 0.410283 0.358064 0.126141
H38   H     H_    0.324486 0.589178 0.358194 0.126318
H39   H     H_    0.676121 0.412324 0.641082 0.128106
H40   H     H_    0.176283 0.087240 0.640921 0.127987
H41   H     H_    0.824585 0.910584 0.358156 0.126180
H42   H     H_    0.824628 0.089515 0.358070 0.126399
H43   H     H_    0.176000 0.912016 0.641148 0.127936
H44   H     H_    0.343891 0.584783 0.239358 0.088343
H45   H     H_    0.003229 0.125212 0.711271 0.151316
H46   H     H_    0.642471 0.381837 0.718395 0.098186
H47   H     H_    0.642423 0.618233 0.718214 0.098260
H48   H     H_    0.343875 0.415258 0.239304 0.088257
H49   H     H_    0.843895 0.084799 0.239338 0.088276
H50   H     H_    0.142521 0.881875 0.718632 0.098128
H51   H     H_    0.142383 0.118262 0.718015 0.098309
H52   H     H_    0.843872 0.915265 0.239325 0.088326
H53   H     H_    0.608008 0.308731 0.385485 0.192744
H54   H     H_    0.390573 0.686926 0.618176 0.184147
H55   H     H_    0.390931 0.312522 0.618606 0.184635
H56   H     H_    0.976246 0.918499 0.228629 0.175683
H57   H     H_    0.608251 0.690163 0.383836 0.193203
H58   H     H_    0.107766 0.808187 0.385455 0.193048
H59   H     H_    0.890901 0.187839 0.617293 0.183848
H60   H     H_    0.890711 0.813024 0.618750 0.184589
H61   H     H_    0.108552 0.189297 0.383159 0.193232
H62   H     H_    0.740847 0.399350 0.601129 0.128566
H63   H     H_    0.258235 0.596485 0.401065 0.124325
H64   H     H_    0.258517 0.401663 0.399498 0.124160
H65   H     H_    0.740987 0.600891 0.602049 0.128375
H66   H     H_    0.240611 0.898347 0.601895 0.128534
H67   H     H_    0.976427 0.081922 0.228947 0.175334
H68   H     H_    0.758427 0.097073 0.401083 0.124394
H69   H     H_    0.758342 0.902452 0.400005 0.124189
H70   H     H_    0.241203 0.100249 0.601953 0.128351
H71   H     H_    0.825654 0.357493 0.671683 0.180272
H72   H     H_    0.172721 0.635744 0.335682 0.177560
H73   H     H_    0.173305 0.361227 0.332208 0.177405
H74   H     H_    0.825616 0.643405 0.673500 0.180257
H75   H     H_    0.325263 0.856030 0.673367 0.180261
H76   H     H_    0.672971 0.136444 0.335543 0.177559
H77   H     H_    0.673020 0.862367 0.333323 0.177475
H78   H     H_    0.003219 0.874855 0.711385 0.151210
H79   H     H_    0.325891 0.142663 0.673129 0.180252
H80   H     H_    0.797767 0.211421 0.820041 0.150114
H81   H     H_    0.133129 0.627379 0.961093 0.144140
H82   H     H_    0.133030 0.372745 0.960638 0.144190
H83   H     H_    0.797700 0.788826 0.819931 0.150378
H84   H     H_    0.297670 0.711283 0.819923 0.150280
H85   H     H_    0.633113 0.127278 0.960864 0.144125
H86   H     H_    0.633031 0.872688 0.960785 0.144170
H87   H     H_    0.297770 0.288738 0.820002 0.150387
H88   H     H_    0.656377 0.291629 0.760111 0.115161
N1    N     N_R   0.532970 0.559900 0.665210 -0.038354
N2    N     N_R   0.402100 0.440070 0.454470 -0.063277
N3    N     N_R   0.402100 0.559930 0.454470 -0.063280
N4    N     N_R   0.597900 0.440070 0.545530 -0.062223
N5    N     N_R   0.097900 0.059930 0.545530 -0.062192
N6    N     N_R   0.902100 0.940070 0.454470 -0.063257
N7    N     N_R   0.902100 0.059930 0.454470 -0.063298
N8    N     N_R   0.097900 0.940070 0.545530 -0.062230
N9    N     N_R   0.567170 0.559950 0.454460 -0.086435
N10   N     N_R   0.432830 0.440050 0.545540 -0.088147
N11   N     N_R   0.432830 0.559950 0.545540 -0.088345
N12   N     N_R   0.467030 0.440100 0.334790 -0.048832
N13   N     N_R   0.567170 0.440050 0.454460 -0.086544
N14   N     N_R   0.067170 0.059950 0.454460 -0.086400
N15   N     N_R   0.932830 0.940050 0.545540 -0.088221
N16   N     N_R   0.932830 0.059950 0.545540 -0.088319
N17   N     N_R   0.067170 0.940050 0.454460 -0.086494
N18   N     N_R   0.421470 0.559970 0.334770 -0.047727
N19   N     N_R   0.578530 0.440030 0.665230 -0.048235
N20   N     N_R   0.578530 0.559970 0.665230 -0.048241
N21   N     N_R   0.421470 0.440030 0.334770 -0.047737
N22   N     N_R   0.921470 0.059970 0.334770 -0.047694
N23   N     N_R   0.467030 0.559900 0.334790 -0.048783
N24   N     N_R   0.078530 0.940030 0.665230 -0.048236
N25   N     N_R   0.078530 0.059970 0.665230 -0.048242
N26   N     N_R   0.921470 0.940030 0.334770 -0.047762
N27   N     N_R   0.532970 0.440100 0.665210 -0.038379
N28   N     N_R   0.032970 0.059900 0.665210 -0.038367
N29   N     N_R   0.967030 0.940100 0.334790 -0.048882
N30   N     N_R   0.967030 0.059900 0.334790 -0.048711
N31   N     N_R   0.032970 0.940100 0.665210 -0.038402
N32   N     N_R   0.597900 0.559930 0.545530 -0.062194
Ni1   Ni    Ni4+2 0.483030 0.500000 0.604430 0.320072
Ni2   Ni    Ni4+2 0.516970 0.500000 0.395570 0.289887
Ni3   Ni    Ni4+2 0.983030 1.000000 0.604430 0.320012
Ni4   Ni    Ni4+2 0.016970 0.000000 0.395570 0.289939
Ni5   Ni    Ni4+2 0.587400 0.500000 0.604430 0.213087
Ni6   Ni    Ni4+2 0.412600 0.500000 0.395570 0.196171
Ni7   Ni    Ni4+2 0.087400 1.000000 0.604430 0.213099
Ni8   Ni    Ni4+2 0.912600 0.000000 0.395570 0.196178

loop_
_geom_bond_atom_site_label_1
_geom_bond_atom_site_label_2
_ccdc_geom_bond_type
C71   C104  A    
C7    C29   A    
C97   H12   S    
C96   C102  A    
C181  N8    A    
C113  H72   S    
C74   C83   A    
C14   C170  A    
C66   C85   S    
C26   H80   S    
C41   C67   A    
C51   N26   A    
C55   C119  A    
C28   H82   S    
C76   H60   S    
C49   C60   A    
C77   H61   S    
C24   C98   A    
C14   C21   A    
C61   C82   S    
C73   H57   S    
C40   Cl13  S    
C60   C163  A    
C38   Cl11  S    
C2    C90   A    
C163  N31   A    
N20   Ni5   S    
C11   C15   A    
C140  H20   S    
C162  C171  A    
C10   C20   A    
N10   Ni1   S    
N7    Ni8   S    
N2    Ni6   S    
C47   C53   A    
C7    C146  A    
C92   H66   S    
C143  C151  A    
C100  C109  A    
C151  H15   S    
C7    C172  A    
C30   C182  A    
C161  H5    S    
C102  C111  A    
C36   C62   A    
N21   Ni6   S    
N15   Ni3   S    
C37   C63   A    
C158  C167  A    
C38   C64   A    
N31   Ni3   S    
C68   C95   A    
C116  C121  A    
C52   C132  S    
C65   C86   S    
C53   C133  S    
C22   C31   A    
C70   C103  A    
C136  C162  A    
C42   N17   A    
C108  N23   A    
C101  C110  A    
C94   H69   S    
C145  H25   S    
C34   C61   A    
C82   C91   A    
C46   C117  A    
C71   H54   S    
C43   C54   A    
N11   Ni1   S    
N24   N31   A    
C1    N1    A    
C19   H29   S    
C87   H62   S    
C90   C104  A    
N6    N15   A    
C49   H50   S    
C62   C81   S    
C180  H42   S    
C180  N7    A    
C72   H55   S    
C21   C30   A    
C87   C174  A    
C175  N2    A    
C129  C156  A    
C43   H44   S    
C66   C179  A    
C98   C106  A    
C80   C88   A    
C10   C16   A    
C37   Cl10  S    
C64   C177  A    
C44   C55   A    
C62   C175  A    
C84   C93   A    
C155  H16   S    
C138  C182  A    
C50   C56   A    
C129  C147  A    
C86   C95   A    
C160  H6    S    
N22   Ni8   S    
C65   C178  A    
C179  N6    A    
C91   H65   S    
C76   C85   A    
C114  H73   S    
C69   C181  A    
C57   C118  A    
C78   C87   A    
C37   N11   A    
C134  C160  A    
N8    Ni7   S    
C173  N32   A    
N12   Ni2   S    
C58   C141  A    
N1    Ni1   S    
C93   H68   S    
C44   N19   A    
C9    C166  A    
C32   H86   S    
C67   C180  A    
C75   C84   A    
C122  Cl2   S    
C134  C151  A    
C12   C22   A    
C137  C155  A    
C77   C111  A    
C126  Cl6   S    
C74   C107  A    
C5    C27   A    
C6    C28   A    
C33   H87   S    
N3    Ni6   S    
C5    C170  A    
C147  H10   S    
C173  H36   S    
C177  H39   S    
C135  C161  A    
C79   C103  A    
C97   N12   A    
C112  H71   S    
C56   C136  S    
C130  H45   S    
C157  H88   S    
C149  H13   S    
C63   C80   S    
C74   H58   S    
C130  N28   A    
C139  C148  A    
C13   C96   A    
C124  Cl4   S    
C113  C126  A    
C45   C52   A    
C127  Cl7   S    
C115  C128  A    
C128  Cl8   S    
C40   N15   A    
C117  C122  A    
C51   H52   S    
C36   N10   A    
C167  C184  A    
C178  N5    A    
N4    N13   A    
N25   Ni7   S    
C154  H17   S    
C48   N22   A    
C19   C28   A    
C179  H41   S    
C145  C154  A    
C75   H59   S    
C16   C23   A    
C57   C94   A    
N5    Ni7   S    
C164  C172  A    
N19   N27   A    
C90   C99   A    
N4    Ni5   S    
C95   H70   S    
C9    C17   A    
C162  H8    S    
C141  H56   S    
C64   C78   S    
C133  C150  A    
C13   C114  A    
C12   C169  A    
C57   C101  A    
C59   C134  S    
N18   N23   A    
C54   C108  A    
C148  H9    S    
C68   C120  A    
C17   H27   S    
N29   Ni4   S    
N26   Ni8   S    
N16   Ni3   S    
C9    C12   A    
C8    C165  A    
C23   H33   S    
C139  H19   S    
C110  C128  A    
N13   Ni2   S    
C152  N30   A    
C140  C149  A    
C56   C130  A    
C181  H43   S    
C25   C33   A    
C176  H38   S    
C96   C105  A    
C39   C65   A    
C112  C174  A    
N2    N10   A    
C1    H1    S    
C143  H22   S    
C178  H40   S    
C63   C176  A    
C59   C152  A    
C11   C19   A    
C140  C184  A    
C48   C59   A    
C39   N14   A    
C165  C182  A    
C42   Cl15  S    
C68   C102  A    
C3    C33   A    
N8    N17   A    
C48   H49   S    
C131  C157  A    
C47   H48   S    
C50   N25   A    
N12   N21   A    
C146  C155  A    
C150  H11   S    
C160  C169  A    
C49   N24   A    
C142  H21   S    
C72   C81   A    
C44   H46   S    
C81   C89   A    
C35   C92   A    
N26   N29   A    
C40   C66   A    
C132  C149  A    
C79   C174  A    
C31   H85   S    
C153  H14   S    
C41   N16   A    
N6    Ni8   S    
C20   H30   S    
C79   C100  A    
C108  H23   S    
C120  H79   S    
C146  H26   S    
C175  H37   S    
C132  C158  A    
C105  C124  A    
C133  C159  A    
C34   Cl1   S    
C121  Cl16  S    
N14   Ni4   S    
C136  C154  A    
C15   C171  A    
C35   C116  A    
C176  N3    A    
N32   Ni5   S    
C18   H28   S    
C55   C131  S    
C11   C168  A    
C119  N27   A    
C73   C82   A    
C6    C145  A    
C38   N13   A    
C166  C183  A    
C5    C144  A    
C118  H77   S    
C4    C26   A    
N9    Ni2   S    
N30   Ni4   S    
C98   C101  A    
C99   C107  A    
C39   Cl12  S    
C47   N21   A    
C23   C32   A    
C142  C150  A    
N18   Ni6   S    
C114  C127  A    
C115  H74   S    
C156  C165  A    
C118  C123  A    
C1    C52   A    
C8    C18   A    
C15   C25   A    
C72   C105  A    
C76   C110  A    
N19   Ni5   S    
C45   N20   A    
C103  C122  A    
C50   H51   S    
N17   Ni4   S    
C70   C78   A    
C158  H4    S    
C156  H2    S    
C45   H47   S    
C4    C143  A    
N1    N20   A    
C83   C92   A    
C34   N9    A    
C17   C26   A    
C2    C113  A    
C21   H31   S    
C141  N29   A    
C159  C168  A    
C144  C153  A    
C36   Cl9   S    
C6    C171  A    
N28   Ni3   S    
C10   C167  A    
C106  C123  A    
C43   N18   A    
C2    C88   A    
N3    N11   A    
C67   C84   S    
C3    C142  A    
C117  H76   S    
C35   C99   A    
C70   H53   S    
C71   C80   A    
C3    C168  A    
C13   C89   A    
C20   C29   A    
C152  H67   S    
C75   C109  A    
C4    C169  A    
C61   C173  A    
C51   C58   A    
N25   N28   A    
C104  C121  A    
N22   N30   A    
C53   C97   A    
C42   C69   A    
C69   C83   S    
C85   C94   A    
C16   C172  A    
C119  H34   S    
C159  H3    S    
C138  C147  A    
C29   H83   S    
N24   Ni7   S    
C30   H84   S    
C112  C125  A    
C131  C148  A    
C89   H64   S    
C60   C135  S    
C25   H35   S    
C161  C170  A    
C58   C137  S    
C109  C125  A    
C77   C86   A    
C111  C127  A    
C24   C91   A    
N23   Ni2   S    
C139  C183  A    
C54   C129  S    
C46   C100  A    
C177  N4    A    
C8    C14   A    
C31   C183  A    
C32   C184  A    
C18   C27   A    
C107  C126  A    
C41   Cl14  S    
C164  H7    S    
C157  C166  A    
C27   H81   S    
C137  C164  A    
C163  H78   S    
C135  C153  A    
N27   Ni1   S    
C116  H75   S    
C73   C106  A    
C46   C93   A    
C123  Cl3   S    
C144  H24   S    
C22   H32   S    
C138  H18   S    
C24   C115  A    
C125  Cl5   S    
N9    N32   A    
N5    N14   A    
C120  C124  A    
C88   H63   S    
N7    N16   A    
