data_mof_unit_53065.cif
_audit_creation_date              2012-10-26T20:20:44-0400
_audit_creation_method            fapswitch 2.2
_symmetry_space_group_name_H-M    P1
_symmetry_Int_Tables_number       1
_space_group_crystal_system       triclinic
_cell_length_a                    8.795853
_cell_length_b                    10.767965
_cell_length_c                    9.539425
_cell_angle_alpha                 89.687545
_cell_angle_beta                  97.42085
_cell_angle_gamma                 90.659979
_cell_volume                      895.877520183

loop_
_atom_site_label
_atom_site_type_symbol
_atom_type_description
_atom_site_fract_x
_atom_site_fract_y
_atom_site_fract_z
_atom_type_partial_charge
C1    C     C_R   0.499733 0.262536 0.500272 0.535474
C2    C     C_R   0.627191 0.064932 0.568855 0.067419
C3    C     C_R   0.498853 0.871130 0.499038 0.011496
C4    C     C_R   0.499075 0.128638 0.500892 -0.009273
C5    C     C_R   0.406338 0.421050 0.064161 -0.004102
C6    C     C_R   0.593557 0.579052 0.935800 -0.007849
C7    C     C_R   0.406064 0.420599 0.915167 0.215497
C8    C     C_R   0.593873 0.579461 0.084811 0.212640
C9    C     C_R   0.499225 0.737384 0.499611 0.575240
C10   C     C_R   0.204533 0.498607 0.464576 0.558345
C11   C     C_R   0.795467 0.501571 0.535394 0.579967
C12   C     C_2   0.040165 0.485081 0.446618 0.086372
C13   C     C_2   0.959804 0.515490 0.553187 0.093279
C14   C     C_R   0.370431 0.063799 0.432942 0.110135
C15   C     C_R   0.626488 0.935317 0.568024 0.107754
C16   C     C_R   0.370503 0.934648 0.431704 0.091920
Cu1   Cu    Cu3+1 0.500000 0.500020 0.640660 0.984580
Cu2   Cu    Cu3+1 0.500000 0.499980 0.359340 0.975771
H1    H     H_    0.331426 0.357976 0.112282 0.101189
H2    H     H_    0.852655 0.894848 0.588397 0.256112
H3    H     H_    0.197187 0.809719 0.438990 0.226286
H4    H     H_    0.269305 0.816151 0.282319 0.243661
H5    H     H_    0.800812 0.189754 0.562166 0.238566
H6    H     H_    0.728082 0.183301 0.718615 0.250949
H7    H     H_    0.336647 0.245839 0.864342 0.206860
H8    H     H_    0.195087 0.351358 0.849779 0.203613
H9    H     H_    0.662904 0.754293 0.135659 0.207585
H10   H     H_    0.804717 0.649026 0.150039 0.204351
H11   H     H_    0.668269 0.642308 0.887596 0.117329
H12   H     H_    0.992295 0.486431 0.232662 0.230861
H13   H     H_    0.015473 0.343444 0.305852 0.221814
H14   H     H_    0.007947 0.515264 0.767116 0.228511
H15   H     H_    0.983803 0.657840 0.692899 0.231940
H16   H     H_    0.267533 0.183062 0.285751 0.230287
H17   H     H_    0.197439 0.184836 0.443512 0.224932
H18   H     H_    0.774411 0.892331 0.741723 0.244499
N1    N     N_R   0.500040 0.500030 0.852080 -0.207492
N2    N     N_3   0.692189 0.664170 0.169483 -0.543047
N3    N     N_R   0.499960 0.499970 0.147920 -0.205733
N4    N     N_3   0.967575 0.430663 0.317036 -0.614063
N5    N     N_3   0.032265 0.570710 0.682341 -0.614503
N6    N     N_3   0.236884 0.127577 0.368015 -0.581507
N7    N     N_3   0.756093 0.867806 0.634922 -0.619970
N8    N     N_3   0.237518 0.869396 0.364837 -0.579677
N9    N     N_3   0.760046 0.130129 0.636126 -0.633609
N10   N     N_3   0.307616 0.335997 0.830465 -0.549916
O1    O     O_R   0.499990 0.319660 0.618740 -0.481069
O2    O     O_R   0.500010 0.680340 0.381260 -0.483765
O3    O     O_R   0.499990 0.319630 0.381170 -0.514224
O4    O     O_R   0.500010 0.680370 0.618830 -0.491389
O5    O     O_R   0.274840 0.500010 0.591370 -0.438899
O6    O     O_R   0.725160 0.499990 0.408630 -0.432689
O7    O     O_R   0.274830 0.499980 0.353800 -0.535921
O8    O     O_R   0.725170 0.500020 0.646200 -0.526539

loop_
_geom_bond_atom_site_label_1
_geom_bond_atom_site_label_2
_ccdc_geom_bond_type
Cu1   O4    S    
C12   N4    S    
C2    C4    A    
H14   N5    S    
C6    H11   S    
H5    N9    S    
C8    N3    A    
H3    N8    S    
C16   N8    S    
H16   N6    S    
C5    N3    A    
H10   N2    S    
C14   N6    S    
C1    C4    S    
H15   N5    S    
Cu1   O5    S    
C13   N5    S    
Cu1   Cu2   S    
C7    N1    A    
C6    N1    A    
H12   N4    S    
Cu1   N1    S    
C12   C13   D    
C2    C15   A    
C11   C13   S    
C11   O8    A    
C10   C12   S    
C5    H1    S    
C10   O5    A    
H7    N10   S    
C3    C9    S    
C8    N2    S    
C2    N9    S    
C4    C14   A    
C14   C16   A    
H6    N9    S    
H9    N2    S    
Cu2   O6    S    
C7    N10   S    
H2    N7    S    
C3    C15   A    
H13   N4    S    
C15   N7    S    
C9    O2    A    
C5    C7    A    
H17   N6    S    
C10   O7    A    
Cu2   N3    S    
H8    N10   S    
C1    O1    A    
H18   N7    S    
C6    C8    A    
C11   O6    A    
Cu2   O7    S    
C1    O3    A    
Cu1   O8    S    
H4    N8    S    
C3    C16   A    
Cu1   O1    S    
Cu2   O3    S    
C9    O4    A    
Cu2   O2    S    
