data_mof_unit_41092.cif
_audit_creation_date              2013-03-05T16:06:00-0500
_audit_creation_method            fapswitch 2.2
_symmetry_space_group_name_H-M    P1
_symmetry_Int_Tables_number       1
_space_group_crystal_system       triclinic
_cell_length_a                    10.79489
_cell_length_b                    9.730512
_cell_length_c                    23.568229
_cell_angle_alpha                 92.27677
_cell_angle_beta                  95.114017
_cell_angle_gamma                 88.624985
_cell_volume                      2463.28061429

loop_
_atom_site_label
_atom_site_type_symbol
_atom_site_description
_atom_site_fract_x
_atom_site_fract_y
_atom_site_fract_z
_atom_type_partial_charge
O1    O     O_R   0.319640 0.618740 0.500000 -0.590381
O2    O     O_R   0.680360 0.381260 0.500000 -0.581204
O3    O     O_R   0.680360 0.618740 0.500000 -0.598214
O4    O     O_R   0.319640 0.381260 0.500000 -0.564783
C1    C     C_R   0.262725 0.501328 0.500329 0.758008
C2    C     C_R   0.737339 0.499389 0.500851 0.752706
O5    O     O_R   0.499960 0.618810 0.417880 -0.562098
O6    O     O_R   0.500040 0.381190 0.582120 -0.592408
O7    O     O_R   0.500040 0.618810 0.582120 -0.589769
O8    O     O_R   0.499960 0.381190 0.417880 -0.581687
C3    C     C_R   0.506280 0.498528 0.391395 0.792256
C4    C     C_R   0.494813 0.502233 0.608351 0.791853
Cu1   Cu    Cu3+1 0.500000 0.640660 0.500000 0.914990
Cu2   Cu    Cu3+1 0.500000 0.359340 0.500000 0.928987
C5    C     C_R   0.604270 0.507115 0.882931 0.542091
C6    C     C_R   0.397963 0.523049 0.117547 0.537295
N1    N     N_R   0.491383 0.502287 0.851368 -0.456779
N2    N     N_R   0.509724 0.498922 0.148013 -0.455823
C7    C     C_R   0.382750 0.504656 0.877222 0.536379
C8    C     C_R   0.617395 0.481518 0.122119 0.539123
C9    C     C_R   0.384985 0.514246 0.936770 -0.044998
C10   C     C_R   0.615756 0.486313 0.062782 -0.048721
C11   C     C_R   0.499653 0.505518 0.969888 -0.056177
C12   C     C_R   0.501499 0.505005 0.029972 -0.055010
C13   C     C_R   0.612025 0.496300 0.942882 -0.024471
C14   C     C_R   0.389582 0.523370 0.057156 -0.021298
C15   C     C_R   0.274541 0.531844 0.963376 -0.155601
C16   C     C_R   0.726176 0.470559 0.035970 -0.155547
C17   C     C_R   0.275030 0.540883 0.022845 0.148167
C18   C     C_R   0.726423 0.475146 0.976694 0.152365
O9    O     O_2   0.707629 0.523853 0.856026 -0.542658
O10   O     O_2   0.296409 0.546234 0.146176 -0.551346
O11   O     O_2   0.272628 0.497242 0.845371 -0.552552
O12   O     O_2   0.725816 0.459173 0.153910 -0.543625
H1    H     H_    0.186759 0.541341 0.937521 0.187602
H2    H     H_    0.813582 0.454315 0.061442 0.187973
C19   C     C_R   0.566134 0.605249 0.242027 -0.184963
C20   C     C_R   0.418627 0.599339 0.759275 -0.165953
H3    H     H_    0.604167 0.688815 0.220444 0.144820
H4    H     H_    0.366798 0.676861 0.782168 0.167401
C21   C     C_R   0.571882 0.607305 0.301741 0.120814
C22   C     C_R   0.410611 0.598238 0.699562 0.119392
C23   C     C_R   0.517533 0.497551 0.328891 -0.099258
C24   C     C_R   0.487827 0.504590 0.670478 -0.098730
C25   C     C_R   0.470216 0.385667 0.294991 -0.276876
C26   C     C_R   0.554984 0.402056 0.701108 -0.262494
H5    H     H_    0.431638 0.300935 0.314443 0.169289
H6    H     H_    0.609090 0.325364 0.678849 0.151719
C27   C     C_R   0.469470 0.382197 0.235631 0.221517
C28   C     C_R   0.550389 0.393284 0.759859 0.223440
C29   C     C_R   0.514447 0.495201 0.209042 0.333665
C30   C     C_R   0.487208 0.497896 0.789903 0.308793
C31   C     C_R   0.061775 0.389500 0.477467 -0.179262
C32   C     C_R   0.937583 0.614807 0.524398 -0.176263
C33   C     C_R   0.933718 0.389934 0.476087 -0.197100
C34   C     C_R   0.065923 0.616726 0.523605 -0.191682
H7    H     H_    0.108095 0.300800 0.459981 0.145921
H8    H     H_    0.890345 0.702151 0.543421 0.129822
H9    H     H_    0.883676 0.305124 0.454752 0.144896
H10   H     H_    0.116151 0.704922 0.542175 0.133984
C35   C     C_R   0.871404 0.500386 0.501037 -0.008247
C36   C     C_R   0.128456 0.503177 0.500451 -0.008387
C37   C     C_R   0.427750 0.070169 0.459733 0.185195
C38   C     C_R   0.578976 0.927216 0.538468 0.207024
C39   C     C_R   0.581914 0.075315 0.537190 0.210121
C40   C     C_R   0.413557 0.926381 0.466104 0.154022
N3    N     N_R   0.500000 0.852070 0.500000 -0.207419
N4    N     N_R   0.500000 0.147930 0.500000 -0.207683
C41   C     C_3   0.151665 0.569169 0.047157 -0.755283
H11   H     H_    0.126400 0.480478 0.071691 0.256007
H12   H     H_    0.156369 0.664695 0.074548 0.263339
H13   H     H_    0.075178 0.586122 0.013337 0.197244
C42   C     C_3   0.849043 0.448286 0.951529 -0.762078
H14   H     H_    0.839727 0.363312 0.918659 0.254334
H15   H     H_    0.880136 0.543162 0.932864 0.261308
H16   H     H_    0.923389 0.415589 0.984110 0.199537
C43   C     C_3   0.643455 0.723580 0.333627 -0.398001
C44   C     C_3   0.766538 0.671047 0.362747 -0.743121
H17   H     H_    0.812734 0.755588 0.389029 0.232675
H18   H     H_    0.751478 0.585232 0.390613 0.241921
H19   H     H_    0.829040 0.633825 0.330182 0.249576
H20   H     H_    0.666126 0.803162 0.303800 0.187547
H21   H     H_    0.587619 0.779912 0.364463 0.220264
C45   C     C_3   0.310800 0.688853 0.669639 -0.439020
C46   C     C_3   0.181174 0.635463 0.676423 -0.789726
H22   H     H_    0.171695 0.529677 0.657173 0.257487
H23   H     H_    0.163580 0.634428 0.722128 0.276221
H24   H     H_    0.109847 0.703451 0.654324 0.230423
H25   H     H_    0.317827 0.795549 0.688137 0.202363
H26   H     H_    0.319028 0.694120 0.623413 0.226393
C47   C     C_3   0.422023 0.257484 0.201239 -0.831239
H27   H     H_    0.337385 0.284937 0.173490 0.258208
H28   H     H_    0.494793 0.216392 0.174323 0.233827
H29   H     H_    0.397722 0.174385 0.229023 0.217338
C48   C     C_3   0.610818 0.269392 0.788175 -0.804715
H30   H     H_    0.713501 0.275255 0.788723 0.249766
H31   H     H_    0.585152 0.259698 0.832317 0.230535
H32   H     H_    0.579935 0.174284 0.763873 0.212685
C49   C     C_3   0.400108 0.115801 0.398795 -0.328787
C50   C     C_3   0.279792 0.200219 0.386009 -0.790218
H33   H     H_    0.200159 0.155154 0.404059 0.217415
H34   H     H_    0.288350 0.308431 0.401009 0.268407
H35   H     H_    0.255839 0.200155 0.339212 0.218787
H36   H     H_    0.483595 0.162081 0.384723 0.203851
H37   H     H_    0.392276 0.024719 0.369048 0.166557
C51   C     C_3   0.650467 0.857394 0.588691 -0.344803
C52   C     C_3   0.581734 0.876188 0.642666 -0.830487
H38   H     H_    0.480851 0.861524 0.632247 0.257487
H39   H     H_    0.617749 0.800247 0.674374 0.250036
H40   H     H_    0.593918 0.980556 0.662615 0.227142
H41   H     H_    0.668669 0.748564 0.580445 0.250357
H42   H     H_    0.746164 0.894106 0.598016 0.165873
C53   C     C_3   0.691063 0.146813 0.570796 -0.338516
C54   C     C_3   0.810516 0.123899 0.540832 -0.851603
H43   H     H_    0.790720 0.136508 0.494369 0.257533
H44   H     H_    0.881331 0.198698 0.558435 0.251865
H45   H     H_    0.851051 0.019341 0.546622 0.224817
H46   H     H_    0.676049 0.256551 0.577870 0.250341
H47   H     H_    0.706815 0.113408 0.615108 0.167560
C55   C     C_3   0.286545 0.869911 0.444280 -0.309531
C56   C     C_3   0.281504 0.780435 0.389097 -0.724084
H48   H     H_    0.363226 0.795088 0.364883 0.230807
H49   H     H_    0.273765 0.670273 0.397929 0.249789
H50   H     H_    0.197105 0.808113 0.361044 0.212507
H51   H     H_    0.240785 0.824515 0.478657 0.201579
H52   H     H_    0.220198 0.955964 0.435910 0.157345

loop_
_geom_bond_atom_site_label_1
_geom_bond_atom_site_label_2
_geom_bond_distance
_ccdc_geom_bond_type
C33   H9    1.079669 S    
C15   C17   1.400396 A    
C52   H39   1.110827 S    
C42   H14   1.110454 S    
C31   C33   1.379760 A    
C48   H30   1.110176 S    
O3    C2    1.301089 A    
C54   H43   1.107961 S    
C48   H32   1.110994 S    
C51   H42   1.101856 S    
C43   C44   1.526565 S    
O5    C3    1.307609 A    
C45   H26   1.104225 S    
O1    C1    1.310739 A    
C2    C35   1.447095 S    
C52   H40   1.107768 S    
C7    C9    1.400910 A    
C12   C14   1.421462 A    
C20   C22   1.401914 A    
C32   H8    1.083076 S    
C19   C29   1.395543 A    
C21   C43   1.520752 S    
C55   H52   1.100985 S    
C28   C48   1.507571 S    
C5    C13   1.415903 A    
C20   C30   1.403479 A    
C51   C52   1.531483 S    
C43   H21   1.105669 S    
C41   H12   1.109984 S    
O7    Cu1   1.955405 S    
C56   H50   1.111176 S    
C37   C49   1.522081 S    
C53   H47   1.103573 S    
C27   C29   1.404333 A    
C28   C30   1.413578 A    
C52   H38   1.106174 S    
C3    C23   1.488502 S    
O3    Cu1   1.953519 S    
C34   C36   1.398651 A    
C8    O12   1.350135 S    
C25   H5    1.069547 S    
C40   N3    1.382896 A    
C9    C15   1.399601 A    
C37   C40   1.426424 A    
C40   C55   1.527850 S    
Cu1   Cu2   2.737388 S    
O4    Cu2   1.953520 S    
C21   C23   1.430215 A    
O2    C2    1.315245 A    
C22   C24   1.418018 A    
C27   C47   1.506548 S    
N1    C30   1.444277 S    
C24   C26   1.404035 A    
N2    C29   1.436557 S    
C17   C41   1.511109 S    
C51   H41   1.085486 S    
C46   H23   1.110834 S    
C6    C14   1.418229 A    
C49   H37   1.108071 S    
C26   H6    1.084359 S    
C38   N3    1.386685 A    
C22   C45   1.517912 S    
C45   C46   1.528029 S    
C7    O11   1.350038 S    
C47   H27   1.108808 S    
C18   C42   1.511024 S    
C31   H7    1.073557 S    
C44   H17   1.110500 S    
C15   H1    1.084032 S    
C46   H22   1.111548 S    
C50   H35   1.110140 S    
C34   H10   1.082684 S    
C41   H13   1.109444 S    
C47   H28   1.110397 S    
C31   C36   1.398631 A    
C49   C50   1.533330 S    
C25   C27   1.397378 A    
O6    C4    1.310647 A    
C39   N4    1.389412 A    
C50   H34   1.100685 S    
C44   H18   1.106399 S    
C38   C51   1.527781 S    
C23   C25   1.403324 A    
C56   H48   1.107486 S    
C8    C10   1.399610 A    
C9    C11   1.405930 A    
O8    Cu2   1.955405 S    
C42   H16   1.110081 S    
C10   C12   1.408072 A    
O1    Cu1   1.963696 S    
C45   H25   1.111581 S    
C42   H15   1.109913 S    
C55   C56   1.533666 S    
C53   C54   1.532061 S    
Cu1   N3    2.057128 S    
C46   H24   1.110503 S    
C13   C18   1.424017 A    
C5    N1    1.370738 A    
C37   N4    1.385927 A    
O6    Cu2   1.938615 S    
C55   H51   1.098113 S    
C39   C53   1.526036 S    
O4    C1    1.306983 A    
C54   H44   1.110132 S    
C48   H31   1.108343 S    
C32   C34   1.387792 A    
C5    O9    1.347790 S    
C32   C35   1.404440 A    
C6    O10   1.347544 S    
C26   C28   1.396033 A    
C38   C39   1.443764 A    
C16   C18   1.399768 A    
C19   H3    1.083799 S    
C47   H29   1.110997 S    
C20   H4    1.083678 S    
C44   H19   1.110836 S    
C43   H20   1.112072 S    
C33   C35   1.392463 A    
C50   H33   1.100159 S    
N1    C7    1.368200 A    
C1    C36   1.449355 S    
C49   H36   1.099841 S    
N2    C8    1.364134 A    
C11   C13   1.418635 A    
C19   C21   1.402534 A    
C41   H11   1.110210 S    
O2    Cu2   1.963695 S    
O7    C4    1.318015 A    
C56   H49   1.106554 S    
C54   H45   1.106440 S    
O8    C3    1.328851 A    
C11   C12   1.414639 A    
C53   H46   1.084733 S    
O5    Cu1   1.938615 S    
C16   H2    1.083987 S    
C14   C17   1.426406 A    
C6    N2    1.368047 A    
Cu2   N4    2.057129 S    
C4    C24   1.472094 S    
C10   C16   1.400517 A    
