data_mof_unit_43849.cif
_audit_creation_date              2013-03-05T15:53:47-0500
_audit_creation_method            fapswitch 2.2
_symmetry_space_group_name_H-M    P1
_symmetry_Int_Tables_number       1
_space_group_crystal_system       triclinic
_cell_length_a                    10.64453
_cell_length_b                    10.715503
_cell_length_c                    9.895245
_cell_angle_alpha                 88.749661
_cell_angle_beta                  90.001802
_cell_angle_gamma                 91.740731
_cell_volume                      1127.8767218

loop_
_atom_site_label
_atom_site_type_symbol
_atom_site_description
_atom_site_fract_x
_atom_site_fract_y
_atom_site_fract_z
_atom_type_partial_charge
O1    O     O_R   0.500000 0.316780 0.614690 -0.657505
O2    O     O_R   0.499990 0.316750 0.385360 -0.640029
C1    C     C_R   0.505676 0.259563 0.502571 0.950271
O3    O     O_R   0.314800 0.499990 0.614670 -0.667068
O4    O     O_R   0.314790 0.499970 0.385330 -0.643632
C2    C     C_R   0.257875 0.498117 0.499826 0.916272
Zn1   Zn    Zn3+2 0.500010 0.500020 0.653130 0.953175
Zn2   Zn    Zn3+2 0.499990 0.499980 0.346870 0.961024
O5    O     O_R   0.500010 0.683250 0.614640 -0.611530
O6    O     O_R   0.500000 0.683220 0.385310 -0.622023
O7    O     O_R   0.685210 0.500030 0.614670 -0.624477
O8    O     O_R   0.685200 0.500010 0.385330 -0.614837
C3    C     C_R   0.486755 0.738587 0.498932 0.924741
C4    C     C_R   0.742026 0.499341 0.499799 0.949508
C5    C     C_3   0.068316 0.381122 0.587260 0.094368
H1    H     H_    0.095424 0.399942 0.693905 0.071122
C6    C     C_3   0.922190 0.379252 0.580890 0.047769
H2    H     H_    0.888729 0.387453 0.687139 0.096642
H3    H     H_    0.117865 0.630483 0.664216 0.166244
H4    H     H_    0.908374 0.606243 0.681040 0.107986
C7    C     C_3   0.077493 0.618199 0.561333 -0.531364
C8    C     C_3   0.070594 0.488552 0.352014 -0.359830
C9    C     C_3   0.121459 0.494657 0.499375 -0.021634
C10   C     C_3   0.878306 0.497310 0.499380 -0.142938
C11   C     C_3   0.932934 0.615610 0.571590 0.131942
C12   C     C_3   0.928614 0.495181 0.351577 -0.354287
H5    H     H_    0.887547 0.415597 0.294894 0.223931
H6    H     H_    0.900587 0.579382 0.293069 0.222916
H7    H     H_    0.112879 0.699254 0.498507 0.230854
H8    H     H_    0.539480 0.115880 0.292180 0.167815
C13   C     C_R   0.495990 0.102722 0.763382 -0.114034
C14   C     C_R   0.446788 0.036469 0.875276 -0.151020
H9    H     H_    0.456439 0.074348 0.975436 0.152737
C15   C     C_R   0.383093 0.923004 0.857703 -0.122981
H10   H     H_    0.340097 0.873806 0.943371 0.143464
C16   C     C_R   0.380453 0.869963 0.730542 -0.116200
H11   H     H_    0.331610 0.780595 0.720310 0.145128
C17   C     C_R   0.441311 0.931228 0.619143 0.106511
C18   C     C_R   0.481953 0.055719 0.630886 0.135379
C19   C     C_R   0.507650 0.125224 0.509000 -0.050330
C20   C     C_R   0.517499 0.065135 0.385581 -0.144215
H12   H     H_    0.521079 0.892950 0.286397 0.169398
C21   C     C_R   0.502710 0.938174 0.380987 -0.157518
C22   C     C_R   0.468785 0.870598 0.497912 -0.123204
H13   H     H_    0.644063 0.637523 0.122240 0.160791
C23   C     C_R   0.332003 0.339471 0.143623 -0.167928
H14   H     H_    0.328077 0.332292 0.250599 0.242238
C24   C     C_R   0.247552 0.262113 0.075334 -0.202367
H15   H     H_    0.182904 0.200577 0.131392 0.203344
C25   C     C_R   0.247070 0.262648 0.935568 -0.185726
C26   C     C_R   0.331529 0.340025 0.863352 -0.177603
C27   C     C_R   0.416884 0.421193 0.929391 0.147613
C28   C     C_R   0.417026 0.421087 0.074019 0.159642
N1    N     N_R   0.498810 0.498800 0.142780 -0.126973
C29   C     C_R   0.579318 0.575714 0.069769 -0.121440
H16   H     H_    0.644009 0.637474 0.871069 0.172790
C30   C     C_R   0.579301 0.575662 0.926505 -0.106479
N2    N     N_R   0.498760 0.498720 0.857170 -0.130930
N3    N     N_R   0.880337 0.732843 0.520107 0.233416
O9    O     O_R   0.807675 0.795824 0.597444 -0.356861
O10   O     O_R   0.910416 0.778879 0.401264 -0.376045
H17   H     H_    0.549453 0.186971 0.784813 0.185884
N4    N     N_R   0.120441 0.259120 0.555591 0.242314
O11   O     O_R   0.098643 0.164383 0.637602 -0.351831
O12   O     O_R   0.191197 0.243581 0.450543 -0.442287
H18   H     H_    0.182565 0.200820 0.882958 0.213428
H19   H     H_    0.329023 0.331706 0.756417 0.223005
N5    N     N_R   0.866910 0.261734 0.529548 0.251002
O13   O     O_R   0.792434 0.193503 0.607148 -0.376059
O14   O     O_R   0.897609 0.219695 0.412028 -0.337670
H20   H     H_    0.110068 0.568202 0.289599 0.194377
H21   H     H_    0.098144 0.401587 0.302448 0.231812

loop_
_geom_bond_atom_site_label_1
_geom_bond_atom_site_label_2
_geom_bond_distance
_ccdc_geom_bond_type
O4    Zn2   2.007774 S    
C21   C22   1.393189 A    
N4    O12   1.300274 A    
H8    C20   1.083955 S    
C17   C22   1.411473 A    
C26   C27   1.409157 A    
C20   C21   1.366519 A    
Zn1   N2    2.018812 S    
C12   H6    1.109857 S    
C13   C14   1.395489 A    
C5    N4    1.475498 S    
Zn2   O8    2.007851 S    
C14   H9    1.082869 S    
C5    C9    1.571110 S    
C25   C26   1.391137 A    
C12   H5    1.109577 S    
C10   C11   1.565356 S    
N3    O9    1.301386 A    
C26   H19   1.064099 S    
C28   N1    1.376557 A    
H16   C30   1.081897 S    
Zn1   O7    2.007774 S    
C24   C25   1.382909 A    
C25   H18   1.081109 S    
C13   H17   1.077475 S    
C30   N2    1.366447 A    
C17   C18   1.397093 A    
C4    C10   1.451464 S    
C16   H11   1.082399 S    
O3    Zn1   2.007849 S    
C2    C9    1.451447 S    
C23   C28   1.408536 A    
C16   C17   1.417156 A    
C24   H15   1.082841 S    
H3    C7    1.113919 S    
C10   C12   1.558386 S    
C1    C19   1.440316 S    
C6    H2    1.116197 S    
C15   C16   1.391884 A    
C29   C30   1.417644 A    
C7    C9    1.555785 S    
C8    C12   1.515133 S    
O4    C2    1.284277 A    
C27   N2    1.374978 A    
O7    C4    1.287842 A    
C23   C24   1.389592 A    
N3    O10   1.301495 A    
C6    C10   1.568589 S    
H12   C21   1.083839 S    
Zn2   N1    2.019872 S    
C5    H1    1.115026 S    
O8    C4    1.284059 A    
Zn1   O5    1.991825 S    
C8    H20   1.114298 S    
O5    C3    1.287595 A    
C27   C28   1.431109 A    
H13   C29   1.081876 S    
O3    C2    1.288101 A    
C15   H10   1.082524 S    
H4    C11   1.115824 S    
C8    H21   1.109729 S    
C18   C19   1.425701 A    
C5    C6    1.556250 S    
N5    O14   1.301475 A    
C7    C11   1.541486 S    
N1    C29   1.366288 A    
C19   C20   1.398381 A    
C6    N5    1.474104 S    
O2    C1    1.302155 A    
C11   N3    1.471673 S    
O1    Zn1   2.008142 S    
C3    C22   1.432998 S    
C23   H14   1.060401 S    
C7    H7    1.113240 S    
Zn2   O6    2.008141 S    
O2    Zn2   1.991825 S    
C8    C9    1.557453 S    
N4    O11   1.301030 A    
C13   C18   1.420976 A    
N5    O13   1.301143 A    
O1    C1    1.281549 A    
O6    C3    1.292346 A    
C14   C15   1.388284 A    
