data_mof_unit_5024.cif
_audit_creation_date              2012-12-10T17:10:26-0500
_audit_creation_method            fapswitch 2.2
_symmetry_space_group_name_H-M    P1
_symmetry_Int_Tables_number       1
_space_group_crystal_system       triclinic
_cell_length_a                    10.738463
_cell_length_b                    12.996779
_cell_length_c                    11.715231
_cell_angle_alpha                 100.633973
_cell_angle_beta                  95.579019
_cell_angle_gamma                 91.465083
_cell_volume                      1597.76632976

loop_
_atom_site_label
_atom_site_type_symbol
_atom_type_description
_atom_site_fract_x
_atom_site_fract_y
_atom_site_fract_z
_atom_type_partial_charge
C1    C     C_R   0.498487 0.298882 0.478063 0.820108
C2    C     C_R   0.501512 0.701118 0.521937 0.820107
C3    C     C_R   0.500612 0.814785 0.534566 -0.050271
C4    C     C_R   0.499388 0.185215 0.465433 -0.050270
C5    C     C_R   0.514140 0.013635 0.346511 -0.201392
C6    C     C_R   0.485860 0.986365 0.653489 -0.201392
C7    C     C_R   0.510915 0.121819 0.356615 -0.171121
C8    C     C_R   0.489085 0.878181 0.643385 -0.171121
C9    C     C_R   0.490739 0.139757 0.564149 -0.258644
C10   C     C_R   0.509261 0.860243 0.435851 -0.258644
C11   C     C_R   0.494076 0.031769 0.554840 0.169770
C12   C     C_R   0.505924 0.968231 0.445160 0.169770
C13   C     C_R   0.365513 0.413410 0.016665 0.059124
C14   C     C_R   0.634486 0.586590 0.983335 0.059125
C15   C     C_R   0.384934 0.415063 0.139128 0.331979
C16   C     C_R   0.615066 0.584937 0.860872 0.331980
C17   C     C_R   0.555641 0.538579 0.159821 -0.032774
C18   C     C_R   0.444359 0.461421 0.840179 -0.032774
C19   C     C_R   0.548273 0.531465 0.036132 -0.029203
C20   C     C_R   0.451726 0.468535 0.963868 -0.029203
C21   C     C_R   0.262402 0.513014 0.499984 0.834600
C22   C     C_R   0.737598 0.486986 0.500015 0.834600
C23   C     C_R   0.133238 0.605996 0.712177 0.205440
C24   C     C_R   0.866762 0.394004 0.287822 0.205440
C25   C     C_R   0.091728 0.592977 0.819840 0.223899
C26   C     C_R   0.908272 0.407023 0.180160 0.223899
C27   C     C_R   0.986688 0.527183 0.819664 -0.194968
C28   C     C_R   0.013312 0.472817 0.180336 -0.194969
C29   C     C_R   0.916086 0.483345 0.715286 -0.157614
C30   C     C_R   0.083914 0.516655 0.284714 -0.157614
C31   C     C_R   0.952541 0.499841 0.607517 0.055897
C32   C     C_R   0.047459 0.500159 0.392483 0.055897
C33   C     C_R   0.072243 0.545915 0.605892 0.027309
C34   C     C_R   0.927756 0.454085 0.394108 0.027309
C35   C     C_R   0.873989 0.469962 0.501377 -0.204404
C36   C     C_R   0.126011 0.530038 0.498623 -0.204404
Cu1   Cu    Cu3+1 0.509250 0.507730 0.615930 0.951580
Cu2   Cu    Cu3+1 0.490750 0.492270 0.384070 0.951579
H1    H     H_    0.044941 0.485868 0.099091 0.147427
H2    H     H_    0.955059 0.514132 0.900909 0.147427
H3    H     H_    0.834321 0.434482 0.719797 0.169302
H4    H     H_    0.165679 0.565518 0.280202 0.169303
H5    H     H_    0.518616 0.811766 0.351487 0.153144
H6    H     H_    0.481384 0.188233 0.648512 0.153144
H7    H     H_    0.481454 0.844207 0.720295 0.174746
H8    H     H_    0.518546 0.155792 0.279705 0.174746
H9    H     H_    0.523393 0.965630 0.261950 0.141319
H10   H     H_    0.476607 0.034370 0.738049 0.141319
H11   H     H_    0.375273 0.409977 0.782393 0.164887
H12   H     H_    0.624727 0.590023 0.217607 0.164887
N1    N     N_R   0.523180 0.519350 0.790130 -0.222135
N2    N     N_R   0.476820 0.480650 0.209870 -0.222135
O1    O     O_R   0.506570 0.354460 0.582000 -0.596100
O2    O     O_R   0.493430 0.645540 0.418000 -0.596100
O3    O     O_R   0.490940 0.341410 0.386200 -0.565463
O4    O     O_R   0.509060 0.658590 0.613800 -0.565463
O5    O     O_R   0.327470 0.506520 0.597900 -0.577412
O6    O     O_R   0.672530 0.493480 0.402100 -0.577412
O7    O     O_R   0.311840 0.493460 0.402100 -0.560076
O8    O     O_R   0.688160 0.506540 0.597900 -0.560076
C37   C     C_3   0.253199 0.354569 0.941817 -0.873450
H13   H     H_    0.178091 0.332566 0.991869 0.261568
H14   H     H_    0.207273 0.405368 0.885394 0.233451
H15   H     H_    0.283833 0.282868 0.886353 0.239150
C38   C     C_3   0.746801 0.645431 0.058183 -0.873450
H16   H     H_    0.821908 0.667436 0.008132 0.261568
H17   H     H_    0.716166 0.717132 0.113648 0.239149
H18   H     H_    0.792727 0.594631 0.114605 0.233451
C39   C     C_3   0.230080 0.692871 0.711848 -0.806600
H19   H     H_    0.320838 0.676492 0.757428 0.254233
H20   H     H_    0.244374 0.704374 0.622534 0.204703
H21   H     H_    0.197859 0.768470 0.757602 0.223361
C40   C     C_3   0.769920 0.307129 0.288152 -0.806600
H22   H     H_    0.755626 0.295626 0.377466 0.204703
H23   H     H_    0.679162 0.323508 0.242572 0.254233
H24   H     H_    0.802141 0.231529 0.242398 0.223361
C41   C     C_3   0.158156 0.648445 0.934957 -0.871872
H25   H     H_    0.115415 0.626649 0.010157 0.222889
H26   H     H_    0.257770 0.627442 0.941621 0.238920
H27   H     H_    0.153006 0.734531 0.942326 0.245391
C42   C     C_3   0.841844 0.351555 0.065043 -0.871873
H28   H     H_    0.884585 0.373351 0.989843 0.222889
H29   H     H_    0.846993 0.265469 0.057674 0.245391
H30   H     H_    0.742230 0.372558 0.058379 0.238920
I1    I     I_    0.723549 0.697790 0.794517 -0.380697
I2    I     I_    0.276451 0.302210 0.205483 -0.380697

loop_
_geom_bond_atom_site_label_1
_geom_bond_atom_site_label_2
_ccdc_geom_bond_type
C27   C29   A    
C40   H22   S    
C23   C39   S    
C19   C20   A    
C16   N1    A    
C42   H28   S    
C21   C36   S    
C41   H25   S    
C22   C35   S    
C5    H9    S    
C6    H10   S    
C25   C41   S    
C32   C36   A    
C24   C26   A    
C21   O7    A    
C22   O8    A    
Cu1   N1    S    
C24   C40   S    
Cu2   N2    S    
C33   C36   A    
C37   H14   S    
C34   C35   A    
C39   H20   S    
C1    O1    A    
C8    H7    S    
Cu2   O6    S    
Cu1   O4    S    
Cu2   O3    S    
C38   H17   S    
C31   C33   A    
C18   C20   A    
Cu1   O1    S    
C40   H23   S    
C37   H13   S    
C4    C7    A    
C17   N2    A    
C42   H29   S    
C18   N1    A    
C41   H26   S    
C7    H8    S    
C5    C12   A    
C3    C8    A    
C2    O2    A    
C6    C11   A    
C5    C7    A    
C6    C8    A    
C28   H1    S    
C23   C33   A    
C24   C34   A    
C32   C34   A    
C39   H21   S    
C21   O5    A    
Cu1   Cu2   S    
Cu2   O2    S    
C27   H2    S    
C38   H18   S    
C15   N2    A    
C9    C11   A    
C10   C12   A    
C15   I2    S    
C26   C42   S    
C13   C15   A    
C16   I1    S    
C40   H24   S    
C14   C16   A    
C42   H30   S    
C41   H27   S    
C9    H6    S    
C13   C20   A    
C29   H3    S    
C10   H5    S    
C14   C19   A    
C17   H12   S    
C22   O6    A    
C11   C12   A    
C25   C27   A    
C26   C28   A    
C1    C4    S    
C28   C30   A    
C2    C3    S    
C1    O3    A    
C29   C31   A    
C3    C10   A    
C2    O4    A    
C37   H15   S    
C30   C32   A    
C17   C19   A    
C14   C38   S    
C31   C35   A    
C23   C25   A    
C39   H19   S    
Cu1   O8    S    
Cu2   O7    S    
C13   C37   S    
C38   H16   S    
C30   H4    S    
C4    C9    A    
Cu1   O5    S    
C18   H11   S    
