data_mof_unit_58302.cif
_audit_creation_date              2012-12-10T17:22:43-0500
_audit_creation_method            fapswitch 2.2
_symmetry_space_group_name_H-M    P1
_symmetry_Int_Tables_number       1
_space_group_crystal_system       triclinic
_cell_length_a                    10.621995
_cell_length_b                    10.854557
_cell_length_c                    9.584838
_cell_angle_alpha                 90.725351
_cell_angle_beta                  89.805365
_cell_angle_gamma                 92.731182
_cell_volume                      1103.75547653

loop_
_atom_site_label
_atom_site_type_symbol
_atom_type_description
_atom_site_fract_x
_atom_site_fract_y
_atom_site_fract_z
_atom_type_partial_charge
C1    C     C_R   0.510180 0.263239 0.499742 0.796596
C2    C     C_3   0.959801 0.502773 0.367181 -0.120807
C3    C     C_3   0.036977 0.400217 0.430737 -0.179779
C4    C     C_3   0.122270 0.500357 0.500943 0.008249
C5    C     C_R   0.598855 0.126398 0.746291 -0.161817
C6    C     C_R   0.592301 0.070427 0.876209 -0.151489
C7    C     C_R   0.530500 0.955616 0.889355 -0.150063
C8    C     C_R   0.487569 0.891253 0.770629 -0.161864
C9    C     C_R   0.506246 0.941237 0.635505 0.097040
C10   C     C_R   0.543647 0.067153 0.627191 0.094568
C11   C     C_R   0.521825 0.129598 0.501084 -0.119524
C12   C     C_R   0.259330 0.499818 0.500274 0.792586
C13   C     C_R   0.492748 0.062207 0.379149 -0.222471
C14   C     C_R   0.481255 0.934973 0.381951 -0.244731
C15   C     C_R   0.488630 0.872556 0.508438 -0.113893
C16   C     C_R   0.668014 0.664444 0.145531 -0.286748
C17   C     C_R   0.750108 0.746426 0.074031 0.433293
C18   C     C_R   0.751762 0.742614 0.930016 -0.254242
C19   C     C_R   0.668743 0.663066 0.857378 -0.241050
C20   C     C_R   0.582607 0.580665 0.925952 0.201143
C21   C     C_R   0.582482 0.580898 0.075486 0.161737
C22   C     C_R   0.421790 0.422893 0.073131 -0.060687
C23   C     C_R   0.493537 0.737699 0.502050 0.772434
C24   C     C_R   0.421748 0.423001 0.925137 -0.065500
C25   C     C_R   0.740596 0.500678 0.499714 0.759138
C26   C     C_3   0.039828 0.498618 0.632703 -0.126911
C27   C     C_3   0.952355 0.398448 0.562373 -0.166590
C28   C     C_3   0.877472 0.500946 0.498952 0.025866
C29   C     C_3   0.962615 0.601144 0.569127 -0.173182
C30   C     C_3   0.047315 0.602927 0.437501 -0.152546
Cu1   Cu    Cu3+1 0.499990 0.499990 0.640660 0.920050
Cu2   Cu    Cu3+1 0.500010 0.500010 0.359340 0.927093
H1    H     H_    0.435267 0.805414 0.788656 0.172691
H2    H     H_    0.464958 0.885420 0.284342 0.161318
H3    H     H_    0.357751 0.359677 0.127794 0.132038
H4    H     H_    0.676536 0.669041 0.255287 0.208639
H5    H     H_    0.816531 0.803849 0.873276 0.169071
H6    H     H_    0.357669 0.359855 0.869107 0.140710
H7    H     H_    0.075081 0.496912 0.741546 0.140254
H8    H     H_    0.089175 0.686586 0.386479 0.144088
H9    H     H_    0.924304 0.504733 0.258433 0.149727
H10   H     H_    0.648586 0.215427 0.740235 0.156556
H11   H     H_    0.631413 0.117954 0.967340 0.135553
N1    N     N_R   0.501210 0.501210 0.147910 -0.182977
N2    N     N_R   0.501250 0.501290 0.852040 -0.193456
O1    O     O_R   0.499990 0.319640 0.618810 -0.584887
O2    O     O_R   0.500000 0.319660 0.381240 -0.581672
O3    O     O_R   0.316850 0.499960 0.618770 -0.584704
O4    O     O_R   0.316860 0.499980 0.381190 -0.576456
O5    O     O_R   0.500000 0.680340 0.618760 -0.610731
O6    O     O_R   0.500010 0.680360 0.381190 -0.599580
O7    O     O_R   0.683140 0.500020 0.618810 -0.600184
O8    O     O_R   0.683150 0.500040 0.381230 -0.598849
H12   H     H_    0.910153 0.314865 0.613269 0.124007
H13   H     H_    0.517857 0.915050 0.991366 0.125718
O9    O     O_3   0.837017 0.824601 0.142856 -0.579027
C31   C     C_3   0.774149 0.907717 0.230424 0.075469
H14   H     H_    0.741465 0.861263 0.327607 0.144113
H15   H     H_    0.692563 0.947164 0.176662 0.136796
C32   C     C_3   0.865182 0.014206 0.271787 -0.790521
H16   H     H_    0.899051 0.064043 0.177316 0.244202
H17   H     H_    0.816738 0.079515 0.341520 0.201859
H18   H     H_    0.947165 0.978900 0.327820 0.245349
H19   H     H_    0.675524 0.671527 0.747485 0.220561
H20   H     H_    0.928814 0.683226 0.625628 0.124110
H21   H     H_    0.070379 0.317986 0.374209 0.130981
H22   H     H_    0.478280 0.107762 0.280958 0.163333

loop_
_geom_bond_atom_site_label_1
_geom_bond_atom_site_label_2
_ccdc_geom_bond_type
C14   H2    S    
C24   H6    S    
C5    H10   S    
Cu2   O6    S    
C29   C30   S    
C8    C9    A    
C4    C12   S    
C21   N1    A    
C9    C10   A    
Cu1   O7    S    
C4    C26   S    
C20   N2    A    
C1    C11   S    
C7    H13   S    
C19   H19   S    
C12   O3    A    
C4    C30   S    
C19   C20   A    
C15   C23   S    
C12   O4    A    
Cu2   N1    S    
C27   H12   S    
C30   H8    S    
C5    C10   A    
C13   C14   A    
C16   H4    S    
C25   C28   S    
C22   H3    S    
C11   C13   A    
C17   O9    S    
C31   H14   S    
C6    C7    A    
O9    C31   S    
C32   H16   S    
C32   H18   S    
C29   H20   S    
C24   N2    A    
C3    C27   S    
C28   C29   S    
C18   H5    S    
C25   O8    A    
C17   C18   A    
C2    C3    S    
C6    H11   S    
C26   C27   S    
Cu1   O3    S    
C26   H7    S    
Cu2   O2    S    
C22   C24   A    
Cu2   O4    S    
C25   O7    A    
C3    H21   S    
C31   H15   S    
C10   C11   A    
Cu1   O5    S    
C3    C4    S    
Cu2   O8    S    
C7    C8    A    
C2    C30   S    
C20   C21   A    
C26   C29   S    
C32   H17   S    
C18   C19   A    
Cu1   N2    S    
C27   C28   S    
C5    C6    A    
C14   C15   A    
C1    O2    A    
C23   O5    A    
C2    C28   S    
C13   H22   S    
C2    H9    S    
C1    O1    A    
C9    C15   A    
C16   C21   A    
C22   N1    A    
C23   O6    A    
Cu1   Cu2   S    
C16   C17   A    
C8    H1    S    
C31   C32   S    
Cu1   O1    S    
