data_mof_unit_10034.cif
_audit_creation_date              2012-12-10T16:44:17-0500
_audit_creation_method            fapswitch 2.2
_symmetry_space_group_name_H-M    P1
_symmetry_Int_Tables_number       1
_space_group_crystal_system       triclinic
_cell_length_a                    7.601909
_cell_length_b                    8.75442
_cell_length_c                    13.545122
_cell_angle_alpha                 100.621966
_cell_angle_beta                  80.006928
_cell_angle_gamma                 103.783337
_cell_volume                      852.503427944

loop_
_atom_site_label
_atom_site_type_symbol
_atom_type_description
_atom_site_fract_x
_atom_site_fract_y
_atom_site_fract_z
_atom_type_partial_charge
C1    C     C_R   0.546981 0.800151 0.501605 0.811390
C2    C     C_R   0.429430 0.410450 0.960154 0.031857
C3    C     C_R   0.488732 0.430574 0.856857 0.020304
C4    C     C_R   0.561741 0.462837 0.029692 0.085525
C5    C     C_R   0.749706 0.512987 0.992445 0.146421
C6    C     C_R   0.805099 0.508521 0.889806 -0.254998
C7    C     C_R   0.678905 0.457525 0.823146 -0.177628
C8    C     C_R   0.514350 0.475932 0.135230 -0.191996
C9    C     C_R   0.833577 0.559282 0.160499 -0.169721
C10   C     C_R   0.356212 0.418616 0.791029 -0.078160
C11   C     C_2   0.571380 0.969009 0.503174 -0.338609
C12   C     C_R   0.404124 0.472449 0.690053 0.755723
C13   C     C_2   0.429846 0.030680 0.494726 -0.350689
C14   C     C_R   0.454235 0.199531 0.496116 0.871272
C15   C     C_R   0.596316 0.510339 0.307765 0.812166
C16   C     C_R   0.882970 0.562292 0.057706 -0.197636
C17   C     C_R   0.649163 0.515818 0.199644 -0.084425
C18   C     C_R   0.174347 0.349043 0.821357 -0.257282
C19   C     C_R   0.120259 0.302433 0.916346 -0.262544
C20   C     C_R   0.244234 0.332122 0.986953 0.395682
Cu1   Cu    Cu3+1 0.321300 0.483160 0.488710 0.968914
Cu2   Cu    Cu3+1 0.678700 0.516840 0.511290 0.984346
H1    H     H_    0.939542 0.593219 0.209350 0.179446
H2    H     H_    0.294692 0.956856 0.486733 0.183734
H3    H     H_    0.947921 0.543591 0.860366 0.172935
H4    H     H_    0.026231 0.599714 0.028833 0.150294
H5    H     H_    0.373939 0.460766 0.169493 0.220561
H6    H     H_    0.073249 0.326304 0.770112 0.181099
H7    H     H_    0.979252 0.243042 0.935239 0.150797
H8    H     H_    0.738490 0.431256 0.745853 0.194885
H9    H     H_    0.706478 0.042817 0.511337 0.192471
N1    N     N_2   0.947230 0.542220 0.528320 -0.071478
N2    N     N_2   0.052770 0.457780 0.471680 0.068544
O1    O     O_R   0.383920 0.714220 0.492660 -0.603267
O2    O     O_R   0.685730 0.742660 0.511730 -0.619921
O3    O     O_R   0.275440 0.478800 0.636790 -0.617052
O4    O     O_R   0.577250 0.507240 0.655860 -0.640564
O5    O     O_R   0.314270 0.257340 0.488270 -0.593828
O6    O     O_R   0.616080 0.285780 0.507340 -0.536516
O7    O     O_R   0.422750 0.492760 0.344140 -0.596167
O8    O     O_R   0.724560 0.521200 0.363210 -0.532073
C21   C     C_R   0.989733 0.670041 0.620944 0.246144
C22   C     C_R   0.851365 0.751706 0.678597 -0.117842
C23   C     C_R   0.863763 0.852132 0.771621 -0.208876
C24   C     C_R   0.021721 0.889018 0.814461 -0.071648
C25   C     C_R   0.169193 0.833222 0.760732 -0.229618
C26   C     C_R   0.154854 0.733403 0.667274 -0.135537
H10   H     H_    0.721800 0.747295 0.661729 0.192982
H11   H     H_    0.748248 0.901818 0.810755 0.132322
H12   H     H_    0.031640 0.964046 0.887110 0.146145
H13   H     H_    0.298055 0.869025 0.791557 0.133423
H14   H     H_    0.287251 0.720540 0.644419 0.191014
O9    O     O_3   0.975668 0.353358 0.397806 -0.585498
H15   H     H_    0.074079 0.299724 0.361031 0.342195
O10   O     O_3   0.189890 0.270618 0.076948 -0.766547
H16   H     H_    0.057711 0.220402 0.082783 0.327530

loop_
_geom_bond_atom_site_label_1
_geom_bond_atom_site_label_2
_ccdc_geom_bond_type
C23   H11   S    
C2    C4    A    
O10   H16   S    
C18   H6    S    
C26   H14   S    
C14   O5    A    
C22   H10   S    
C19   C20   A    
C1    C11   S    
C4    C8    A    
N1    N2    D    
C2    C3    A    
C11   H9    S    
C3    C10   A    
C13   C14   S    
C16   H4    S    
Cu2   O2    S    
C11   C13   D    
C15   O8    A    
C6    C7    A    
Cu1   O7    S    
Cu2   N1    S    
C24   H12   S    
C10   C18   A    
C20   O10   S    
Cu2   O6    S    
C10   C12   S    
Cu1   Cu2   S    
C19   H7    S    
C9    C16   A    
C1    O1    A    
C3    C7    A    
C21   C26   A    
C22   C23   A    
N2    O9    S    
C5    C6    A    
C15   O7    A    
C6    H3    S    
C12   O3    A    
C21   C22   A    
C2    C20   A    
Cu2   O8    S    
C24   C25   A    
Cu1   N2    S    
C23   C24   A    
C1    O2    A    
C15   C17   S    
C18   C19   A    
C9    C17   A    
C12   O4    A    
Cu1   O3    S    
C8    H5    S    
N1    C21   S    
C25   C26   A    
C9    H1    S    
C5    C16   A    
Cu1   O1    S    
C14   O6    A    
O9    H15   S    
Cu2   O4    S    
C25   H13   S    
Cu1   O5    S    
C8    C17   A    
C13   H2    S    
C4    C5    A    
C7    H8    S    
