data_mof_unit_18037.cif
_audit_creation_date              2013-03-05T16:41:35-0500
_audit_creation_method            fapswitch 2.2
_symmetry_space_group_name_H-M    P1
_symmetry_Int_Tables_number       1
_space_group_crystal_system       triclinic
_cell_length_a                    12.869238
_cell_length_b                    10.792056
_cell_length_c                    9.872726
_cell_angle_alpha                 88.569162
_cell_angle_beta                  97.471096
_cell_angle_gamma                 90.376073
_cell_volume                      1359.10682258

loop_
_atom_site_label
_atom_site_type_symbol
_atom_site_description
_atom_site_fract_x
_atom_site_fract_y
_atom_site_fract_z
_atom_type_partial_charge
O1    O     O_R   0.500010 0.316790 0.614690 -0.623511
O2    O     O_R   0.500000 0.316760 0.385350 -0.635149
C1    C     C_R   0.498101 0.259842 0.500595 0.873132
O3    O     O_R   0.346360 0.499990 0.595720 -0.571114
O4    O     O_R   0.346350 0.499960 0.366370 -0.637128
C2    C     C_R   0.298155 0.505078 0.472837 0.931660
Zn1   Zn    Zn3+2 0.500010 0.500020 0.653130 0.961635
Zn2   Zn    Zn3+2 0.499990 0.499980 0.346870 0.934499
O5    O     O_R   0.500000 0.683240 0.614650 -0.628961
O6    O     O_R   0.499990 0.683210 0.385310 -0.622946
O7    O     O_R   0.653650 0.500040 0.633630 -0.630858
O8    O     O_R   0.653640 0.500010 0.404280 -0.628210
C3    C     C_R   0.500500 0.739679 0.498777 0.898255
C4    C     C_R   0.701662 0.499982 0.527202 0.876070
C5    C     C_R   0.813476 0.506446 0.544421 -0.037774
C6    C     C_R   0.185469 0.511850 0.455866 -0.163921
C7    C     C_R   0.021645 0.441956 0.337063 -0.209651
C8    C     C_R   0.128424 0.457257 0.342559 -0.257451
C9    C     C_R   0.134781 0.562525 0.559587 0.262541
C10   C     C_R   0.027406 0.543739 0.556947 0.054554
C11   C     C_R   0.971535 0.481754 0.444988 0.143029
C12   C     C_R   0.865312 0.462963 0.440259 -0.256596
C13   C     C_R   0.867410 0.565675 0.656770 -0.227912
C14   C     C_R   0.974118 0.585779 0.662435 -0.162951
H1    H     H_    0.822384 0.416554 0.353808 0.149974
H2    H     H_    0.826473 0.600241 0.737187 0.149613
H3    H     H_    0.978664 0.396873 0.249932 0.147440
H4    H     H_    0.013452 0.635011 0.748599 0.192121
H5    H     H_    0.166480 0.422835 0.260292 0.170429
C15   C     C_R   0.456548 0.058499 0.604706 0.061078
C16   C     C_R   0.488882 0.127726 0.496790 -0.086973
C17   C     C_R   0.507984 0.066809 0.377956 -0.226168
H6    H     H_    0.528240 0.117213 0.288914 0.159846
C18   C     C_R   0.508896 0.938629 0.376543 -0.255653
H7    H     H_    0.528967 0.893535 0.286780 0.172461
C19   C     C_R   0.493005 0.870899 0.494829 -0.116736
C20   C     C_R   0.464870 0.932441 0.606647 0.145918
C21   C     C_3   0.498683 0.923943 0.758778 0.170299
C22   C     C_3   0.482677 0.064108 0.756181 -0.553028
H8    H     H_    0.411655 0.089207 0.801898 0.190457
H9    H     H_    0.553871 0.119846 0.789649 0.202049
C23   C     C_R   0.418531 0.447974 0.059381 0.172472
N1    N     N_R   0.499290 0.499140 0.142710 -0.120732
C24   C     C_R   0.578608 0.554694 0.083691 -0.134684
H10   H     H_    0.642853 0.597762 0.147382 0.153122
C25   C     C_R   0.579589 0.552537 0.940303 -0.175252
H11   H     H_    0.646056 0.590472 0.896844 0.139685
N2    N     N_R   0.499290 0.499180 0.857070 -0.119238
C26   C     C_R   0.416949 0.451889 0.915705 0.294580
C27   C     C_3   0.385654 0.320533 0.904075 -0.549476
C28   C     C_3   0.392800 0.312571 0.058139 -0.169195
H12   H     H_    0.305999 0.308979 0.846855 0.218331
H13   H     H_    0.449328 0.270434 0.865874 0.201061
H14   H     H_    0.459946 0.255396 0.106045 0.171075
C29   C     C_3   0.614698 0.885460 0.805443 -0.384433
C30   C     C_3   0.696487 0.933827 0.715426 -0.345575
C31   C     C_3   0.807759 0.913389 0.786822 -0.888209
H15   H     H_    0.821465 0.968591 0.880994 0.260535
H16   H     H_    0.820722 0.813836 0.814366 0.255040
H17   H     H_    0.865056 0.943248 0.717493 0.261493
H18   H     H_    0.688360 0.883484 0.618022 0.220525
H19   H     H_    0.686228 0.034255 0.691160 0.228915
H20   H     H_    0.637026 0.918558 0.911021 0.197950
H21   H     H_    0.619553 0.783309 0.810336 0.203251
C32   C     C_3   0.289769 0.280336 0.112805 -0.350357
C33   C     C_3   0.262316 0.142846 0.094463 -0.364367
C34   C     C_3   0.161214 0.110259 0.152791 -0.863877
H22   H     H_    0.169797 0.129216 0.263801 0.266108
H23   H     H_    0.094904 0.165375 0.099372 0.257731
H24   H     H_    0.143365 0.010265 0.138547 0.256918
H25   H     H_    0.252670 0.120513 0.984224 0.233411
H26   H     H_    0.326706 0.085050 0.148400 0.235566
H27   H     H_    0.300473 0.298798 0.223778 0.222843
H28   H     H_    0.224994 0.338921 0.060680 0.211643
N3    N     N_R   0.191565 0.637982 0.661991 0.196311
O9    O     O_R   0.238238 0.738150 0.625060 -0.453361
O10   O     O_R   0.206175 0.600169 0.789226 -0.454728
C35   C     C_3   0.417676 0.852365 0.834925 -0.305016
C36   C     C_3   0.435977 0.866334 0.990680 -0.466313
C37   C     C_3   0.346234 0.807442 0.057083 -0.763801
H29   H     H_    0.270964 0.853585 0.018225 0.260199
H30   H     H_    0.339825 0.707185 0.034641 0.278422
H31   H     H_    0.360618 0.817612 0.169465 0.253632
H32   H     H_    0.510153 0.819881 0.033665 0.224559
H33   H     H_    0.442067 0.965886 0.016581 0.222424
H34   H     H_    0.337532 0.886217 0.796438 0.238743
H35   H     H_    0.419828 0.752308 0.812708 0.257695

loop_
_geom_bond_atom_site_label_1
_geom_bond_atom_site_label_2
_geom_bond_distance
_ccdc_geom_bond_type
C35   H35   1.108474 S    
C29   C30   1.543704 S    
C9    C10   1.392282 A    
Zn2   N1    2.014712 S    
N1    C24   1.367517 A    
C22   H9    1.111040 S    
Zn1   O7    2.011338 S    
O4    C2    1.290535 A    
C19   C20   1.390908 A    
O3    Zn1   1.984880 S    
C15   C16   1.392083 A    
O7    C4    1.286348 A    
C31   H16   1.109974 S    
C32   H27   1.109202 S    
C30   C31   1.526431 S    
C18   H7    1.082414 S    
C28   C32   1.530050 S    
C13   H2    1.083139 S    
O5    C3    1.283278 A    
C5    C12   1.389011 A    
C33   H26   1.111180 S    
C21   C29   1.559982 S    
C33   H25   1.111574 S    
C12   H1    1.086104 S    
C29   H20   1.111755 S    
C27   H12   1.112093 S    
C13   C14   1.383010 A    
C23   C28   1.496198 S    
C35   H34   1.112523 S    
C5    C13   1.396438 A    
C33   C34   1.525429 S    
C11   C12   1.375592 A    
C36   H32   1.110386 S    
C37   H31   1.108933 S    
C24   C25   1.418097 A    
C7    C8    1.377181 A    
C25   N2    1.367378 A    
C27   H13   1.096546 S    
C34   H22   1.111132 S    
C7    H3    1.084563 S    
C10   C14   1.405061 A    
C3    C19   1.419260 S    
O3    C2    1.288831 A    
C22   H8    1.108661 S    
C35   C36   1.536138 S    
C31   H17   1.110473 S    
C21   C35   1.553361 S    
C7    C11   1.393138 A    
C32   H28   1.112919 S    
C15   C20   1.364796 A    
O1    C1    1.293960 A    
C17   C18   1.383885 A    
N3    O9    1.300411 A    
C20   C21   1.509077 S    
C16   C17   1.408805 A    
C4    C5    1.428289 S    
Zn2   O8    1.984880 S    
C29   H21   1.104103 S    
C27   C28   1.512138 S    
C8    H5    1.076305 S    
C1    C16   1.430976 S    
N3    O10   1.301460 A    
C37   H30   1.110240 S    
N2    C26   1.362406 A    
O8    C4    1.288273 A    
C26   C27   1.474312 S    
C30   H19   1.109135 S    
C23   N1    1.361867 A    
C36   H33   1.110507 S    
C24   H10   1.081367 S    
Zn1   O5    2.004145 S    
C25   H11   1.079552 S    
O1    Zn1   2.022803 S    
C6    C8    1.396824 A    
O2    Zn2   2.004145 S    
C14   H4    1.081314 S    
C37   H29   1.110680 S    
O6    C3    1.287817 A    
O4    Zn2   2.011340 S    
C28   H14   1.112337 S    
Zn1   N2    2.014463 S    
C34   H24   1.110400 S    
C9    N3    1.435436 S    
O2    C1    1.282421 A    
C17   H6    1.081895 S    
C31   H15   1.110880 S    
C21   C22   1.527102 S    
C6    C9    1.406965 A    
C15   C22   1.492201 S    
C18   C19   1.399072 A    
C23   C26   1.415550 A    
C2    C6    1.440152 S    
C36   C37   1.527751 S    
C10   C11   1.417813 A    
Zn2   O6    2.022800 S    
C32   C33   1.532700 S    
C30   H18   1.109086 S    
C34   H23   1.110913 S    
