data_mof_unit_28211.cif
_audit_creation_date              2012-12-11T15:39:19-0500
_audit_creation_method            fapswitch 2.2
_symmetry_space_group_name_H-M    P1
_symmetry_Int_Tables_number       1
_space_group_crystal_system       triclinic
_cell_length_a                    14.294991
_cell_length_b                    14.807775
_cell_length_c                    33.252463
_cell_angle_alpha                 97.71054
_cell_angle_beta                  90.253883
_cell_angle_gamma                 118.834974
_cell_volume                      6090.89982922

loop_
_atom_site_label
_atom_site_type_symbol
_atom_type_description
_atom_site_fract_x
_atom_site_fract_y
_atom_site_fract_z
_atom_type_partial_charge
C1    C     C_R   0.617388 0.910053 0.437212 0.532525
C2    C     C_R   0.711936 0.438049 0.948875 0.523386
C3    C     C_R   0.660817 0.840641 0.773567 -0.132382
C4    C     C_R   0.661159 0.855656 0.733257 -0.157172
C5    C     C_R   0.641802 0.774085 0.701789 0.019725
C6    C     C_R   0.616116 0.675197 0.710976 -0.087397
C7    C     C_R   0.612156 0.659067 0.751494 -0.008683
C8    C     C_R   0.637701 0.743028 0.782770 0.052318
C9    C     C_R   0.553415 0.729797 0.631541 0.254780
C10   C     C_R   0.550815 0.758215 0.593148 0.231405
C11   C     C_R   0.728800 0.908541 0.609917 0.202804
C12   C     C_1   0.549668 0.418922 0.114401 0.233980
C13   C     C_R   0.738261 0.719297 0.945239 0.555177
C14   C     C_3   0.397815 0.262696 0.386243 0.011690
C15   C     C_3   0.381640 0.356318 0.382254 -0.278025
C16   C     C_3   0.301245 0.331195 0.346514 -0.459031
C17   C     C_1   0.937561 0.463067 0.183775 0.211199
C18   C     C_1   0.197903 0.709140 0.289612 0.196334
C19   C     C_1   0.222925 0.697721 0.373309 0.231710
C20   C     C_1   0.114067 0.009362 0.194875 0.175788
C21   C     C_3   0.879835 0.354741 0.077169 0.025786
C22   C     C_3   0.899539 0.284748 0.102227 -0.278795
C23   C     C_3   0.877484 0.182478 0.076171 -0.471438
C24   C     C_R   0.837732 0.447481 0.165546 -0.015801
C25   C     C_1   0.854642 0.994908 0.325606 0.164071
C26   C     C_1   0.894927 0.385052 0.373385 0.222961
C27   C     C_1   0.830146 0.301909 0.697516 0.185318
C28   C     C_3   0.851605 0.222595 0.612261 0.054683
C29   C     C_3   0.973763 0.289587 0.620060 -0.249931
C30   C     C_3   0.026847 0.226338 0.629918 -0.463146
C31   C     C_1   0.484044 0.308814 0.616791 0.252724
C32   C     C_1   0.497545 0.347717 0.901098 0.202354
C33   C     C_3   0.405147 0.254209 0.702629 0.027268
C34   C     C_3   0.331457 0.302561 0.705695 -0.245996
C35   C     C_R   0.827452 0.447316 0.123558 0.244806
C36   C     C_3   0.216392 0.222515 0.710715 -0.510797
C37   C     C_1   0.088361 0.649200 0.645482 0.181425
C38   C     C_3   0.860258 0.238941 0.281417 0.025948
C39   C     C_3   0.824547 0.151742 0.244455 -0.270329
C40   C     C_3   0.909531 0.179658 0.213662 -0.468583
C41   C     C_3   0.339587 0.022676 0.859377 0.018116
C42   C     C_3   0.393973 0.060349 0.902793 -0.267596
C43   C     C_3   0.511084 0.086153 0.903055 -0.477449
C44   C     C_3   0.034652 0.956562 0.721109 0.000549
C45   C     C_3   0.945411 0.957524 0.745966 -0.267018
C46   C     C_R   0.773891 0.350822 0.245038 -0.134399
C47   C     C_3   0.948230 0.062704 0.749691 -0.476491
C48   C     C_3   0.027329 0.586484 0.781064 0.007179
C49   C     C_3   0.920207 0.583491 0.790286 -0.293477
C50   C     C_3   0.855199 0.566219 0.750789 -0.446618
C51   C     C_3   0.401209 0.542139 0.839485 0.009977
C52   C     C_3   0.305735 0.492914 0.807681 -0.253703
C53   C     C_3   0.229514 0.379230 0.811542 -0.477019
C54   C     C_1   0.585830 0.557971 0.761353 0.191789
C55   C     C_3   0.396557 0.655203 0.662764 0.026743
C56   C     C_3   0.326039 0.558150 0.682010 -0.260133
C57   C     C_R   0.768894 0.333733 0.285673 0.282598
C58   C     C_3   0.258422 0.578254 0.713551 -0.483155
C59   C     C_3   0.472627 0.609209 0.545968 0.035373
C60   C     C_3   0.527636 0.634848 0.506384 -0.286698
C61   C     C_3   0.535070 0.541948 0.483847 -0.464158
C62   C     C_3   0.867695 0.954515 0.569041 0.014849
C63   C     C_3   0.939482 0.918954 0.588440 -0.273050
C64   C     C_3   0.994497 0.882483 0.556163 -0.470476
C65   C     C_3   0.804075 0.656388 0.241950 0.015274
C66   C     C_3   0.863636 0.735240 0.280268 -0.281852
C67   C     C_3   0.945882 0.839735 0.269053 -0.446100
C68   C     C_R   0.745542 0.397283 0.314777 0.000816
C69   C     C_R   0.733325 0.479023 0.303156 -0.140569
C70   C     C_R   0.740243 0.496523 0.262792 0.272021
C71   C     C_R   0.758638 0.430116 0.233334 -0.010204
C72   C     C_R   0.752767 0.435543 0.189511 -0.045294
C73   C     C_R   0.616720 0.349905 0.367848 -0.133471
C74   C     C_R   0.594440 0.206306 0.456693 0.566940
C75   C     C_R   0.575902 0.302862 0.402600 0.266053
C76   C     C_R   0.744696 0.303766 0.415174 -0.175753
C77   C     C_R   0.784722 0.352281 0.381234 0.021765
C78   C     C_R   0.717579 0.368846 0.355739 0.004810
C79   C     C_R   0.639229 0.274325 0.425095 0.020956
C80   C     C_R   0.249511 0.878752 0.391905 -0.008652
C81   C     C_R   0.244284 0.963359 0.379372 -0.144236
C82   C     C_R   0.229584 0.967012 0.338254 -0.138628
C83   C     C_R   0.731173 0.879615 0.647935 -0.161149
C84   C     C_R   0.218499 0.885498 0.308640 0.010863
C85   C     C_R   0.213572 0.795510 0.320414 -0.016028
C86   C     C_R   0.296250 0.892760 0.434028 0.537793
C87   C     C_R   0.227862 0.791163 0.362061 -0.033439
C88   C     C_R   0.207922 0.815751 0.161456 -0.115599
C89   C     C_R   0.172182 0.788202 0.120277 -0.115471
C90   C     C_R   0.102037 0.908863 0.128195 -0.133730
C91   C     C_R   0.136914 0.936044 0.169731 -0.001596
C92   C     C_R   0.187243 0.886630 0.186671 0.018734
C93   C     C_1   0.204456 0.895404 0.230111 -0.013485
C94   C     C_R   0.642897 0.792876 0.659506 -0.055358
C95   C     C_1   0.212645 0.894547 0.266127 -0.013240
C96   C     C_R   0.115063 0.831269 0.103573 0.003862
C97   C     C_R   0.639902 0.877169 0.396289 0.000969
C98   C     C_R   0.614253 0.903398 0.550952 0.551584
C99   C     C_R   0.557331 0.794978 0.369671 -0.137442
C100  C     C_R   0.571221 0.780287 0.328284 -0.120263
C101  C     C_R   0.667596 0.847157 0.313109 0.021653
C102  C     C_R   0.753498 0.924835 0.339963 0.002061
C103  C     C_R   0.739364 0.938855 0.381400 -0.124539
C104  C     C_R   0.789619 0.901107 0.177190 -0.136878
C105  C     C_R   0.633156 0.855335 0.584296 -0.030726
C106  C     C_R   0.803598 0.893676 0.135659 -0.133045
C107  C     C_R   0.618766 0.756157 0.121730 -0.119868
C108  C     C_R   0.604391 0.765495 0.163268 -0.102231
C109  C     C_R   0.690714 0.836016 0.191021 0.024350
C110  C     C_R   0.591414 0.202454 0.570445 0.558427
C111  C     C_1   0.680286 0.837811 0.233813 -0.030662
C112  C     C_1   0.673974 0.840526 0.269880 -0.013616
C113  C     C_R   0.719432 0.818203 0.107689 0.017768
C114  C     C_R   0.627359 0.258294 0.613032 -0.028470
C115  C     C_R   0.560218 0.286749 0.636170 -0.063010
C116  C     C_R   0.052438 0.781400 0.063746 0.545367
C117  C     C_R   0.571090 0.300063 0.678813 0.233444
C118  C     C_R   0.654439 0.293800 0.698302 -0.028697
C119  C     C_R   0.734696 0.287377 0.675703 -0.045875
C120  C     C_R   0.722115 0.270460 0.632442 0.233626
C121  C     C_R   0.759892 0.338908 0.844951 -0.140196
C122  C     C_R   0.291381 0.888097 0.549339 0.540851
C123  C     C_R   0.769538 0.368519 0.887110 -0.151647
C124  C     C_R   0.589296 0.346283 0.883647 -0.023535
C125  C     C_R   0.581113 0.317136 0.841471 -0.122168
C126  C     C_R   0.667346 0.317302 0.822043 0.012501
C127  C     C_R   0.743500 0.486000 0.066286 0.546033
C128  C     C_1   0.663854 0.305843 0.778462 -0.002589
C129  C     C_1   0.659894 0.299967 0.742009 0.030473
C130  C     C_R   0.686857 0.377522 0.907007 -0.000501
C131  C     C_R   0.077983 0.757942 0.910451 -0.081658
C132  C     C_R   0.130195 0.860907 0.902802 -0.134414
C133  C     C_R   0.175468 0.883977 0.865931 0.231694
C134  C     C_R   0.737337 0.448947 0.106197 -0.023332
C135  C     C_R   0.159026 0.801685 0.834790 0.019703
C136  C     C_R   0.110533 0.697773 0.843030 0.247501
C137  C     C_R   0.074114 0.678055 0.881414 -0.114846
C138  C     C_R   0.743304 0.788939 0.066559 0.546326
C139  C     C_R   0.252759 0.814093 0.771079 -0.141029
C140  C     C_R   0.253986 0.819772 0.729590 -0.185962
C141  C     C_R   0.175303 0.832779 0.709838 0.033647
C142  C     C_R   0.098030 0.845264 0.731943 0.267197
C143  C     C_R   0.097401 0.839927 0.773550 -0.085221
C144  C     C_R   0.173485 0.822921 0.792947 0.012117
C145  C     C_R   0.229079 0.941691 0.655961 -0.132561
C146  C     C_R   0.649630 0.430098 0.130260 -0.069599
C147  C     C_R   0.256581 0.955810 0.616427 -0.151063
C148  C     C_R   0.180442 0.768533 0.596873 -0.138145
C149  C     C_R   0.021979 0.732023 0.947507 0.535177
C150  C     C_R   0.150166 0.753935 0.636411 -0.003569
C151  C     C_R   0.180615 0.841649 0.666553 0.057414
C152  C     C_R   0.237616 0.869795 0.587176 -0.004874
C153  C     C_R   0.706641 0.715009 0.903073 -0.011023
C154  C     C_R   0.599157 0.673562 0.888749 -0.113365
C155  C     C_R   0.573851 0.681371 0.848823 0.277131
C156  C     C_R   0.658158 0.734288 0.824682 0.050447
C157  C     C_R   0.764566 0.771994 0.838714 -0.171730
C158  C     C_R   0.658157 0.422739 0.171295 -0.121805
C159  C     C_R   0.788640 0.761987 0.877577 -0.147607
Cr1   Cr    Cr6+3 0.424820 0.846020 0.489780 1.050034
Cr2   Cr    Cr6+3 0.657880 0.078580 0.505700 1.021081
Cr3   Cr    Cr6+3 0.417280 0.075360 0.504550 1.039781
Cr4   Cr    Cr6+3 0.903360 0.812540 0.006510 1.011801
Cr5   Cr    Cr6+3 0.914630 0.587050 0.006280 1.029944
Cr6   Cr    Cr6+3 0.673560 0.582680 0.008540 1.053006
H1    H     H_    0.795632 0.286779 0.433437 0.137851
H2    H     H_    0.479846 0.746241 0.380289 0.146302
H3    H     H_    0.436606 0.723621 0.687474 0.128984
H4    H     H_    0.272524 0.493258 0.657768 0.171242
H5    H     H_    0.377532 0.533593 0.697268 0.177439
H6    H     H_    0.310843 0.636638 0.739725 0.164490
H7    H     H_    0.203856 0.504501 0.724847 0.157629
H8    H     H_    0.209488 0.607453 0.699911 0.175943
H9    H     H_    0.390502 0.542166 0.538281 0.161498
H10   H     H_    0.515362 0.582638 0.565513 0.160010
H11   H     H_    0.481456 0.656331 0.486363 0.185920
H12   H     H_    0.609833 0.702228 0.513326 0.141471
H13   H     H_    0.527543 0.714636 0.173842 0.128847
H14   H     H_    0.585230 0.522282 0.502601 0.167885
H15   H     H_    0.572143 0.561608 0.454746 0.152715
H16   H     H_    0.454008 0.472896 0.476984 0.167833
H17   H     H_    0.917943 0.019672 0.552360 0.144579
H18   H     H_    0.808167 0.890671 0.545616 0.118917
H19   H     H_    0.001201 0.984374 0.610539 0.162467
H20   H     H_    0.890498 0.853193 0.605064 0.176840
H21   H     H_    0.934285 0.820083 0.532761 0.145639
H22   H     H_    0.039218 0.850191 0.570733 0.170355
H23   H     H_    0.051386 0.948868 0.541308 0.149356
H24   H     H_    0.552970 0.696735 0.100838 0.134355
H25   H     H_    0.775598 0.693136 0.221509 0.170130
H26   H     H_    0.860308 0.636814 0.224731 0.135473
H27   H     H_    0.805855 0.746759 0.299559 0.186153
H28   H     H_    0.905263 0.704831 0.298102 0.159396
H29   H     H_    0.997222 0.827893 0.246513 0.158961
H30   H     H_    0.996764 0.892067 0.296664 0.179240
H31   H     H_    0.905024 0.877239 0.255483 0.174222
H32   H     H_    0.504870 0.719964 0.307816 0.135855
H33   H     H_    0.844890 0.391236 0.903689 0.134499
H34   H     H_    0.827013 0.338690 0.830007 0.126668
H35   H     H_    0.508871 0.298705 0.823445 0.122442
H36   H     H_    0.136246 0.923672 0.925486 0.149104
H37   H     H_    0.035554 0.598242 0.887351 0.154130
H38   H     H_    0.315411 0.812839 0.712675 0.109574
H39   H     H_    0.183488 0.728319 0.102093 0.147273
H40   H     H_    0.311109 0.799943 0.785839 0.137582
H41   H     H_    0.034250 0.843289 0.790385 0.110608
H42   H     H_    0.251316 0.009263 0.678963 0.092582
H43   H     H_    0.300070 0.034762 0.609697 0.137190
H44   H     H_    0.162780 0.701537 0.574118 0.140893
H45   H     H_    0.536243 0.639310 0.908887 0.127477
H46   H     H_    0.783633 0.298706 0.221646 0.114741
H47   H     H_    0.871852 0.793163 0.888186 0.134849
H48   H     H_    0.802317 0.925708 0.668616 0.140744
H49   H     H_    0.678849 0.931682 0.726566 0.116207
H50   H     H_    0.246074 0.776808 0.174156 0.138290
H51   H     H_    0.681533 0.905778 0.797639 0.117439
H52   H     H_    0.600176 0.611533 0.686795 0.167298
H53   H     H_    0.828996 0.809099 0.819406 0.110629
H54   H     H_    0.591093 0.408850 0.189539 0.164581
H55   H     H_    0.713510 0.526720 0.325258 0.125247
H56   H     H_    0.569099 0.369118 0.349042 0.105878
H57   H     H_    0.322120 0.201760 0.395917 0.145631
H58   H     H_    0.409821 0.226724 0.356439 0.121769
H59   H     H_    0.351294 0.377250 0.410714 0.169022
H60   H     H_    0.458718 0.425311 0.378024 0.161614
H61   H     H_    0.257283 0.029731 0.401417 0.133792
H62   H     H_    0.331334 0.313006 0.317497 0.159710
H63   H     H_    0.289662 0.399609 0.344872 0.174886
H64   H     H_    0.222744 0.263417 0.350486 0.167015
H65   H     H_    0.930311 0.368190 0.050946 0.155383
H66   H     H_    0.795052 0.314039 0.063928 0.109164
H67   H     H_    0.984052 0.326541 0.115380 0.193754
H68   H     H_    0.846161 0.266184 0.127581 0.150324
H69   H     H_    0.792927 0.138752 0.063104 0.153007
H70   H     H_    0.891614 0.133526 0.095286 0.156999
H71   H     H_    0.931638 0.198029 0.051079 0.155467
H72   H     H_    0.058008 0.942781 0.115862 0.125896
H73   H     H_    0.834302 0.170868 0.582670 0.203295
H74   H     H_    0.817124 0.170550 0.635677 0.153604
H75   H     H_    0.007417 0.325979 0.592687 0.164085
H76   H     H_    0.994361 0.353826 0.645722 0.218065
H77   H     H_    0.991061 0.184861 0.655981 0.172239
H78   H     H_    0.113735 0.279539 0.638120 0.140477
H79   H     H_    0.017921 0.169170 0.602992 0.168404
H80   H     H_    0.400556 0.216789 0.729945 0.139123
H81   H     H_    0.376531 0.192647 0.675205 0.105967
H82   H     H_    0.360427 0.366040 0.732212 0.184252
H83   H     H_    0.230496 0.035315 0.329483 0.119053
H84   H     H_    0.333468 0.336943 0.677786 0.181679
H85   H     H_    0.185356 0.157416 0.684732 0.140325
H86   H     H_    0.165262 0.260106 0.711775 0.152435
H87   H     H_    0.212699 0.192148 0.739725 0.140486
H88   H     H_    0.895601 0.218079 0.305978 0.185196
H89   H     H_    0.926595 0.314783 0.274808 0.151507
H90   H     H_    0.808991 0.077766 0.254759 0.175573
H91   H     H_    0.748194 0.136608 0.229022 0.180166
H92   H     H_    0.928801 0.255082 0.203830 0.159966
H93   H     H_    0.879224 0.119108 0.186192 0.148531
H94   H     H_    0.882418 0.941347 0.125848 0.126138
H95   H     H_    0.983597 0.185497 0.227350 0.197125
H96   H     H_    0.374667 0.089662 0.842240 0.149360
H97   H     H_    0.358509 0.963194 0.843200 0.127686
H98   H     H_    0.389198 0.130689 0.916238 0.188212
H99   H     H_    0.352383 0.998937 0.922136 0.165894
H100  H     H_    0.516250 0.013830 0.893903 0.155697
H101  H     H_    0.550963 0.122061 0.934169 0.153251
H102  H     H_    0.553976 0.141477 0.881658 0.162175
H103  H     H_    0.031342 0.983054 0.691677 0.147706
H104  H     H_    0.113976 0.013917 0.737518 0.117396
H105  H     H_    0.857127 0.954560 0.198649 0.134491
H106  H     H_    0.867150 0.895270 0.731000 0.189449
H107  H     H_    0.953667 0.941025 0.776957 0.153935
H108  H     H_    0.024889 0.125408 0.765921 0.154927
H109  H     H_    0.881249 0.059831 0.767270 0.152766
H110  H     H_    0.939476 0.081333 0.719106 0.150400
H111  H     H_    0.007846 0.506685 0.766697 0.181078
H112  H     H_    0.066317 0.635421 0.757414 0.163160
H113  H     H_    0.873927 0.519521 0.807981 0.174268
H114  H     H_    0.932746 0.657698 0.808317 0.152063
H115  H     H_    0.896415 0.634490 0.734598 0.183443
H116  H     H_    0.804225 0.002063 0.401612 0.135234
H117  H     H_    0.775602 0.556415 0.757758 0.181481
H118  H     H_    0.844366 0.495493 0.730572 0.176843
H119  H     H_    0.371228 0.541242 0.870313 0.146890
H120  H     H_    0.442491 0.494218 0.835959 0.151787
H121  H     H_    0.261500 0.537631 0.811379 0.210158
H122  H     H_    0.335414 0.496727 0.776806 0.165543
H123  H     H_    0.271675 0.332685 0.807089 0.154737
H124  H     H_    0.161394 0.346110 0.787960 0.152641
H125  H     H_    0.197521 0.373667 0.842026 0.165413
H126  H     H_    0.345277 0.669555 0.642111 0.161420
N1    N     N_1   0.469483 0.409935 0.101839 -0.283755
N2    N     N_1   0.423819 0.348786 0.914887 -0.306188
N3    N     N_1   0.037912 0.565206 0.652632 -0.316099
N4    N     N_1   0.565269 0.478258 0.770571 -0.290069
N5    N     N_1   0.017388 0.475356 0.198250 -0.280196
N6    N     N_1   0.185743 0.640347 0.265079 -0.263515
N7    N     N_1   0.219070 0.623077 0.382151 -0.271675
N8    N     N_1   0.095775 0.068032 0.215089 -0.323708
N9    N     N_1   0.935853 0.051343 0.314310 -0.338003
N10   N     N_1   0.983324 0.411499 0.367192 -0.287791
N11   N     N_1   0.905584 0.313123 0.715421 -0.361864
N12   N     N_1   0.423384 0.326707 0.601348 -0.309464
O1    O     O_R   0.318160 0.824460 0.443680 -0.498186
O2    O     O_R   0.668160 0.499860 0.053480 -0.499230
O3    O     O_R   0.689170 0.693840 0.050110 -0.489338
O4    O     O_R   0.525040 0.857250 0.449830 -0.509361
O5    O     O_R   0.803860 0.812940 0.962540 -0.502811
O6    O     O_R   0.982950 0.787950 0.964120 -0.516760
O7    O     O_R   0.007050 0.649970 0.960540 -0.514571
O8    O     O_R   0.807910 0.482370 0.965590 -0.514725
O9    O     O_R   0.643310 0.460980 0.963840 -0.496831
O10   O     O_R   0.666140 0.657800 0.967020 -0.496828
O11   O     O_3   0.830520 0.660760 0.007110 -0.267696
O12   O     O_R   0.645130 0.163230 0.552140 -0.467907
O13   O     O_R   0.684760 0.998800 0.456360 -0.522901
O14   O     O_R   0.647540 0.166310 0.470260 -0.512857
O15   O     O_R   0.500960 0.181750 0.467450 -0.453591
O16   O     O_R   0.331100 0.981120 0.457080 -0.502282
O17   O     O_R   0.315560 0.821140 0.532010 -0.488860
O18   O     O_R   0.522630 0.854180 0.531710 -0.455335
O19   O     O_R   0.682160 0.995480 0.544690 -0.507468
O20   O     O_3   0.479547 0.290331 0.417202 -0.551646
O21   O     O_3   0.910397 0.453598 0.100495 -0.539864
O22   O     O_3   0.807810 0.289119 0.608700 -0.554005
O23   O     O_R   0.498360 0.178430 0.555780 -0.515385
O24   O     O_3   0.511235 0.335284 0.701720 -0.540525
O25   O     O_3   0.771308 0.247026 0.296370 -0.564083
O26   O     O_3   0.228019 0.987061 0.859611 -0.567751
O27   O     O_3   0.017913 0.853440 0.712059 -0.576155
O28   O     O_3   0.100512 0.613687 0.815433 -0.585608
O29   O     O_3   0.469388 0.646370 0.833687 -0.574105
O30   O     O_3   0.470921 0.636656 0.640282 -0.564416
O31   O     O_3   0.462590 0.694688 0.565781 -0.532646
O32   O     O_3   0.819597 0.991859 0.599224 -0.587553
O33   O     O_3   0.712683 0.568172 0.251931 -0.572762
O34   O     O_R   0.328690 0.978040 0.538950 -0.508078
O35   O     O_3   0.499990 0.999990 0.500010 -0.254911
O36   O     O_R   0.828710 0.851830 0.052170 -0.517308
O37   O     O_R   0.005980 0.823990 0.047210 -0.503719
O38   O     O_R   0.031900 0.688850 0.050170 -0.490435
O39   O     O_R   0.830940 0.518420 0.048680 -0.453506

loop_
_geom_bond_atom_site_label_1
_geom_bond_atom_site_label_2
_ccdc_geom_bond_type
Cr4   O37   S    
C56   H4    S    
C123  H33   S    
C76   C79   A    
C52   H122  S    
C114  C115  A    
C55   H126  S    
Cr5   O8    S    
C32   N2    T    
Cr6   O3    S    
C132  H36   S    
Cr3   O16   S    
C19   C87   S    
C21   O21   S    
C5    C6    A    
C39   H90   S    
C137  H37   S    
C143  C144  A    
C108  C109  A    
C121  H34   S    
C80   C86   S    
C83   H48   S    
C62   H18   S    
C23   H69   S    
Cr6   O10   S    
C11   C105  A    
C36   H85   S    
C76   H1    S    
C110  O23   A    
C74   O14   A    
C90   H72   S    
C59   C60   S    
C21   C22   S    
C73   C75   A    
C55   H3    S    
Cr4   O11   S    
C35   C134  A    
C99   H2    S    
C45   C47   S    
C134  C146  A    
C18   C85   S    
C4    H49   S    
C41   O26   S    
C51   C52   S    
C26   C77   S    
C140  C141  A    
C43   H101  S    
C3    C8    A    
C40   H93   S    
C42   H98   S    
C60   H12   S    
C77   C78   A    
C127  O39   A    
Cr3   O34   S    
C6    H52   S    
C14   H58   S    
C40   H92   S    
C124  C130  A    
C33   H81   S    
C116  O37   A    
C53   H124  S    
C154  C155  A    
C97   C103  A    
C38   H89   S    
C61   H14   S    
C82   C84   A    
C74   C79   S    
C60   H11   S    
C131  C149  S    
C39   C40   S    
C16   H63   S    
C4    C5    A    
C139  C140  A    
C6    C7    A    
C73   H56   S    
C82   H83   S    
C89   C96   A    
C17   C24   S    
C154  H45   S    
C118  C129  S    
C31   N12   T    
C21   H65   S    
C25   N9    T    
C157  H53   S    
C36   H87   S    
C58   H6    S    
C69   C70   A    
C121  C123  A    
C88   C89   A    
C18   N6    T    
C155  C156  A    
C133  C135  A    
C22   C23   S    
C96   C116  S    
C75   C79   A    
C64   H21   S    
C122  O17   A    
C69   H55   S    
C111  C112  T    
C127  C134  S    
C37   C150  S    
C128  C129  T    
C40   H95   S    
C7    C8    A    
C101  C112  S    
C15   H60   S    
C41   H97   S    
C148  C150  A    
C109  C111  S    
C28   H74   S    
C52   H121  S    
C38   C39   S    
C25   C102  S    
C143  H41   S    
Cr5   O7    S    
C50   H115  S    
C16   H64   S    
Cr2   O14   S    
C15   H59   S    
C107  C113  A    
C65   H26   S    
Cr1   O18   S    
C75   O20   S    
C107  C108  A    
Cr2   O13   S    
Cr3   O35   S    
C9    C10   A    
C110  C114  S    
C23   H70   S    
C120  O22   S    
C93   C95   T    
C30   H79   S    
C35   O21   S    
C142  O27   S    
C31   C115  S    
C57   O25   S    
C149  O7    A    
C81   H61   S    
C106  C113  A    
C138  O36   A    
C125  H35   S    
C91   C92   A    
C68   C69   A    
C63   H20   S    
C84   C95   S    
C122  C152  S    
C43   H102  S    
C29   C30   S    
C28   O22   S    
C65   H25   S    
C64   H23   S    
C48   H111  S    
Cr2   O19   S    
C2    O8    A    
C123  C130  A    
C106  H94   S    
C55   O30   S    
C51   H119  S    
C57   C68   A    
C67   H31   S    
C145  H42   S    
C52   C53   S    
Cr1   O17   S    
Cr4   O36   S    
C126  C128  S    
C56   H5    S    
C113  C138  S    
C148  C152  A    
C136  C137  A    
C90   C96   A    
C146  C158  A    
C12   N1    T    
Cr6   O2    S    
C71   C72   S    
C65   O33   S    
C148  H44   S    
C48   O28   S    
C100  C101  A    
C56   C58   S    
C34   C36   S    
C102  C103  A    
C110  O12   A    
C104  H105  S    
C63   C64   S    
C138  O3    A    
C62   O32   S    
C89   H39   S    
C49   C50   S    
C30   H77   S    
C1    O13   A    
C34   H82   S    
C14   C15   S    
C74   O15   A    
C9    C94   A    
C3    C4    A    
C44   H104  S    
C45   H107  S    
C55   C56   S    
C101  C102  A    
C88   H50   S    
Cr5   O38   S    
Cr1   O35   S    
C41   C42   S    
C59   H9    S    
C104  C106  A    
C5    C94   S    
C47   H109  S    
C135  C136  A    
C9    O30   S    
C48   H112  S    
C44   O27   S    
C1    O4    A    
C24   C72   A    
C11   O32   S    
C50   H117  S    
C27   N11   T    
C28   C29   S    
C43   H100  S    
C49   H114  S    
C46   H46   S    
C13   O5    A    
C20   N8    T    
Cr4   O5    S    
C139  H40   S    
C28   H73   S    
C98   O18   A    
C158  H54   S    
C115  C117  A    
C33   H80   S    
C70   C71   A    
C67   H29   S    
C29   H75   S    
C157  C159  A    
C145  C147  A    
Cr5   O11   S    
C68   C78   S    
C20   C91   S    
C33   O24   S    
Cr3   O15   S    
C84   C85   A    
C42   H99   S    
C39   H91   S    
C11   C83   A    
C3    H51   S    
C83   C94   A    
C159  H47   S    
C60   C61   S    
C58   H7    S    
C62   C63   S    
C131  C137  A    
C62   H17   S    
C22   H68   S    
Cr2   O35   S    
Cr3   O23   S    
Cr6   O11   S    
C117  O24   S    
C107  H24   S    
C10   O31   S    
C108  H13   S    
Cr1   O1    S    
C13   C153  S    
C46   C71   A    
C48   C49   S    
C125  C126  A    
C58   H8    S    
C42   C43   S    
C131  C132  A    
C66   H28   S    
C44   C45   S    
C63   H19   S    
C26   N10   T    
C51   H120  S    
C119  C120  A    
Cr1   O4    S    
C61   H16   S    
C19   N7    T    
C41   H96   S    
C122  O34   A    
C133  O26   S    
C90   C91   A    
C59   O31   S    
C92   C93   S    
C2    C130  S    
C34   H84   S    
C53   H125  S    
C38   H88   S    
C51   O29   S    
C61   H15   S    
C142  C143  A    
C7    C54   S    
C117  C118  A    
C114  C120  A    
C127  O2    A    
C16   H62   S    
C37   N3    T    
C32   C124  S    
C81   C82   A    
C44   H103  S    
C149  O6    A    
C98   C105  S    
C156  C157  A    
C80   C87   A    
C59   H10   S    
C104  C109  A    
C47   H110  S    
C15   C16   S    
C21   H66   S    
C36   H86   S    
C72   C158  A    
C12   C146  S    
C118  C119  A    
C88   C92   A    
C132  C133  A    
C73   C78   A    
Cr4   O6    S    
C54   N4    T    
C100  H32   S    
C2    O9    A    
C147  H43   S    
C67   H30   S    
C97   C99   A    
C85   C87   A    
C24   C35   A    
C76   C77   A    
Cr2   O12   S    
C140  H38   S    
C1    C97   S    
C53   H123  S    
Cr6   O9    S    
C155  O29   S    
C66   H27   S    
C116  O38   A    
C153  C159  A    
C139  C144  A    
C99   C100  A    
C33   C34   S    
C145  C151  A    
C23   H71   S    
C135  C144  S    
C30   H78   S    
C46   C57   A    
C13   O10   A    
C141  C151  S    
C45   H106  S    
Cr5   O39   S    
C150  C151  A    
C14   H57   S    
C136  O28   S    
C80   C81   A    
C14   O20   S    
C47   H108  S    
C27   C119  S    
C86   O1    A    
C50   H118  S    
C147  C152  A    
C121  C126  A    
C141  C142  A    
C86   O16   A    
C49   H113  S    
C66   C67   S    
C8    C156  S    
C38   O25   S    
C64   H22   S    
C70   O33   S    
C22   H67   S    
C98   O19   A    
C65   C66   S    
C29   H76   S    
C10   C105  A    
C153  C154  A    
C103  H116  S    
C124  C125  A    
C17   N5    T    
