data_mof_unit_44418.cif
_audit_creation_date              2012-12-11T17:22:17-0500
_audit_creation_method            fapswitch 2.2
_symmetry_space_group_name_H-M    P1
_symmetry_Int_Tables_number       1
_space_group_crystal_system       triclinic
_cell_length_a                    20.617733
_cell_length_b                    7.188823
_cell_length_c                    20.534376
_cell_angle_alpha                 90.233707
_cell_angle_beta                  101.829866
_cell_angle_gamma                 90.298029
_cell_volume                      2978.82397548

loop_
_atom_site_label
_atom_site_type_symbol
_atom_type_description
_atom_site_fract_x
_atom_site_fract_y
_atom_site_fract_z
_atom_type_partial_charge
O1    O     O_R   0.807340 0.614490 0.194100 -0.530100
O2    O     O_R   0.192660 0.385510 0.805900 -0.534050
O3    O     O_R   0.692660 0.114490 0.305900 -0.528532
O4    O     O_R   0.307340 0.885510 0.694100 -0.530323
O5    O     O_R   0.672910 0.282300 0.178070 -0.547990
O6    O     O_R   0.327090 0.717700 0.821930 -0.540169
O7    O     O_R   0.827090 0.782300 0.321930 -0.545580
O8    O     O_R   0.172910 0.217700 0.678070 -0.547163
C1    C     C_R   0.649652 0.452616 0.160080 0.753524
C2    C     C_R   0.350571 0.547526 0.839371 0.740111
C3    C     C_R   0.850443 0.953962 0.339603 0.753328
C4    C     C_R   0.149550 0.046040 0.660405 0.745584
O9    O     O_R   0.805620 0.284620 0.186180 -0.539256
O10   O     O_R   0.194380 0.715380 0.813820 -0.538884
O11   O     O_R   0.694380 0.784620 0.313820 -0.538817
O12   O     O_R   0.305620 0.215380 0.686180 -0.539811
O13   O     O_R   0.826310 0.116750 0.314070 -0.528853
O14   O     O_R   0.173690 0.883250 0.685930 -0.531099
O15   O     O_R   0.673690 0.616750 0.185930 -0.529154
O16   O     O_R   0.326310 0.383250 0.814070 -0.512580
C5    C     C_R   0.824851 0.453330 0.171417 0.725216
C6    C     C_R   0.175043 0.546715 0.828464 0.707228
C7    C     C_R   0.675159 0.953228 0.328574 0.725558
C8    C     C_R   0.324840 0.046770 0.671422 0.728587
O17   O     O_3   0.756630 0.448770 0.291950 -0.377009
O18   O     O_3   0.243370 0.551230 0.708050 -0.381823
O19   O     O_3   0.743370 0.948770 0.208050 -0.379601
O20   O     O_3   0.256630 0.051230 0.791950 -0.365513
V1    V     V_3+5 0.748770 0.172970 0.242220 1.393161
V2    V     V_3+5 0.251230 0.827030 0.757780 1.428649
V3    V     V_3+5 0.751230 0.672970 0.257780 1.395528
V4    V     V_3+5 0.248770 0.327030 0.742220 1.413485
H1    H     H_    0.545418 0.287246 0.459103 0.113385
H2    H     H_    0.454716 0.712747 0.541032 0.112658
H3    H     H_    0.951148 0.786718 0.037024 0.112612
H4    H     H_    0.049107 0.213535 0.963129 0.113026
C9    C     C_R   0.480968 0.174644 0.519651 -0.156116
C10   C     C_R   0.519169 0.825348 0.480487 -0.155217
C11   C     C_R   0.017142 0.674351 0.978187 -0.156550
C12   C     C_R   0.983061 0.325865 0.021936 -0.156180
H5    H     H_    0.466706 0.310847 0.534387 0.111717
H6    H     H_    0.533428 0.689145 0.465748 0.112341
H7    H     H_    0.029798 0.810227 0.961655 0.111789
H8    H     H_    0.970399 0.189983 0.038457 0.111536
C13   C     C_R   0.454774 0.013562 0.543273 0.135788
C14   C     C_R   0.545352 0.986431 0.456852 0.135637
C15   C     C_R   0.045324 0.513632 0.956784 0.135592
C16   C     C_R   0.954821 0.486580 0.043290 0.136165
C17   C     C_R   0.474243 0.838824 0.523374 -0.154432
C18   C     C_R   0.525894 0.161168 0.476764 -0.153006
C19   C     C_R   0.027971 0.339305 0.979019 -0.157828
C20   C     C_R   0.972252 0.660920 0.021119 -0.155523
C21   C     C_1   0.408464 0.027228 0.588054 -0.059714
C22   C     C_1   0.591617 0.972768 0.412024 -0.057848
C23   C     C_1   0.091460 0.527198 0.911839 -0.066379
C24   C     C_1   0.908502 0.473017 0.088073 -0.061131
C25   C     C_1   0.629930 0.962715 0.374272 -0.175008
C26   C     C_1   0.370109 0.037285 0.625764 -0.178407
C27   C     C_1   0.870134 0.462987 0.125775 -0.178154
C28   C     C_1   0.129731 0.537197 0.874055 -0.186447
C29   C     C_R   0.911614 0.961866 0.392761 -0.212226
C30   C     C_R   0.088368 0.038132 0.607258 -0.210116
C31   C     C_R   0.589050 0.456441 0.105898 -0.207278
C32   C     C_R   0.411079 0.543063 0.893188 -0.202520
C33   C     C_R   0.976492 0.152323 0.565275 0.440438
C34   C     C_R   0.023484 0.847670 0.434753 0.440941
C35   C     C_R   0.524359 0.651268 0.934717 0.435529
C36   C     C_R   0.479928 0.322844 0.059211 0.451611
C37   C     C_R   0.035020 0.150418 0.613899 -0.355395
C38   C     C_R   0.964965 0.849592 0.386123 -0.355287
C39   C     C_R   0.465729 0.650667 0.886186 -0.329454
C40   C     C_R   0.536992 0.334378 0.109812 -0.350341
C41   C     C_R   0.082802 0.923542 0.550220 0.374962
C42   C     C_R   0.917170 0.076433 0.449807 0.375209
C43   C     C_R   0.414637 0.434318 0.950976 0.394689
C44   C     C_R   0.584039 0.571495 0.049399 0.374977
C45   C     C_R   0.026880 0.941752 0.496271 -0.149128
C46   C     C_R   0.973092 0.058231 0.503758 -0.148919
C47   C     C_R   0.473393 0.437408 0.002190 -0.152087
C48   C     C_R   0.527528 0.555730 0.995675 -0.159335
H9    H     H_    0.962195 0.766564 0.341438 0.149945
H10   H     H_    0.037801 0.233475 0.658579 0.149949
H11   H     H_    0.540383 0.246871 0.153223 0.148978
H12   H     H_    0.463859 0.730839 0.841249 0.151376
O21   O     O_3   0.865716 0.195586 0.454324 -0.542617
C49   C     C_3   0.883380 0.378218 0.438689 0.190763
H13   H     H_    0.882105 0.390621 0.384504 0.118914
H14   H     H_    0.933818 0.419620 0.466173 0.109326
C50   C     C_3   0.834133 0.514834 0.457640 -0.633659
H15   H     H_    0.834973 0.506655 0.511732 0.225535
H16   H     H_    0.847615 0.658771 0.446311 0.166777
H17   H     H_    0.783299 0.482735 0.429577 0.216094
O22   O     O_3   0.134248 0.804359 0.545705 -0.542836
C51   C     C_3   0.116569 0.621734 0.561332 0.190160
H18   H     H_    0.066122 0.580379 0.533857 0.109594
H19   H     H_    0.117857 0.609315 0.615520 0.118164
C52   C     C_3   0.165793 0.485085 0.542359 -0.634511
H20   H     H_    0.216635 0.517132 0.570412 0.215106
H21   H     H_    0.152298 0.341155 0.553681 0.166736
H22   H     H_    0.164939 0.493279 0.488265 0.225974
O23   O     O_3   0.637437 0.684570 0.044434 -0.542242
C53   C     C_3   0.623609 0.869956 0.060290 0.181262
H23   H     H_    0.621805 0.883752 0.113819 0.111909
H24   H     H_    0.575799 0.918825 0.030188 0.098745
C54   C     C_3   0.677759 0.997519 0.045263 -0.620324
H25   H     H_    0.678554 0.991633 0.991444 0.218876
H26   H     H_    0.668036 0.143192 0.058226 0.166289
H27   H     H_    0.726858 0.954555 0.074246 0.216239
O24   O     O_3   0.361526 0.320162 0.955808 -0.528521
C55   C     C_3   0.315520 0.423088 0.983552 0.161703
H28   H     H_    0.296809 0.545154 0.952187 0.067777
H29   H     H_    0.338147 0.471952 0.034690 0.136227
C56   C     C_3   0.256721 0.298859 0.988182 -0.681818
H30   H     H_    0.273062 0.181843 0.022635 0.226549
H31   H     H_    0.218997 0.380409 0.007399 0.169723
H32   H     H_    0.234014 0.242072 0.938302 0.223775
O25   O     O_3   0.923227 0.251284 0.578192 -0.541994
C57   C     C_3   0.888499 0.137339 0.615511 0.149316
H33   H     H_    0.919057 0.112100 0.666026 0.100498
H34   H     H_    0.874411 0.001275 0.590044 0.120470
C58   C     C_3   0.825198 0.234568 0.623347 -0.710301
H35   H     H_    0.792072 0.252934 0.573882 0.234467
H36   H     H_    0.798926 0.149306 0.654916 0.171883
H37   H     H_    0.837127 0.372883 0.647228 0.214311
O26   O     O_3   0.076755 0.748750 0.421830 -0.542075
C59   C     C_3   0.111542 0.862870 0.384623 0.147669
H38   H     H_    0.125610 0.998841 0.410167 0.120844
H39   H     H_    0.081036 0.888296 0.334098 0.100777
C60   C     C_3   0.174864 0.765704 0.376819 -0.706435
H40   H     H_    0.162957 0.627470 0.352867 0.214608
H41   H     H_    0.201182 0.851100 0.345329 0.173434
H42   H     H_    0.207940 0.747176 0.426302 0.234270
O27   O     O_3   0.578658 0.746070 0.921475 -0.540750
C61   C     C_3   0.611219 0.629391 0.883009 0.154664
H43   H     H_    0.579950 0.607462 0.832483 0.099800
H44   H     H_    0.623272 0.491863 0.907379 0.121893
C62   C     C_3   0.675890 0.720816 0.875345 -0.708946
H45   H     H_    0.709821 0.734313 0.924678 0.233644
H46   H     H_    0.700226 0.634170 0.842504 0.171077
H47   H     H_    0.666125 0.860901 0.852975 0.215639
O28   O     O_3   0.429516 0.202786 0.067216 -0.535246
C63   C     C_3   0.447565 0.019395 0.054058 0.168611
H48   H     H_    0.489098 0.971209 0.093810 0.075601
H49   H     H_    0.461823 0.009032 0.004623 0.122149
C64   C     C_3   0.388945 0.889853 0.052962 -0.702433
H50   H     H_    0.348562 0.922157 0.009838 0.228287
H51   H     H_    0.404889 0.744355 0.048353 0.154199
H52   H     H_    0.370309 0.904454 0.099761 0.219907

loop_
_geom_bond_atom_site_label_1
_geom_bond_atom_site_label_2
_ccdc_geom_bond_type
C29   C38   A    
O17   V3    S    
O1    C5    A    
O23   C53   S    
O19   V1    S    
O13   V1    S    
C54   H25   S    
O3    C7    A    
C41   O22   S    
O15   V3    S    
C64   H52   S    
C61   C62   S    
C52   H20   S    
C10   C17   A    
C34   C38   A    
C45   C46   A    
O7    C3    A    
C54   H26   S    
O22   C51   S    
O9    V1    S    
C35   O27   S    
C5    C27   S    
C16   C20   A    
C6    C28   S    
O4    C8    A    
C49   H14   S    
C31   C44   A    
O1    V3    S    
C58   H36   S    
C53   C54   S    
O2    V4    S    
C32   C39   A    
O3    V1    S    
C38   H9    S    
C12   C16   A    
C57   H33   S    
C58   H37   S    
C37   H10   S    
C64   H51   S    
C55   H28   S    
C1    O15   A    
C15   C19   A    
C2    O16   A    
O2    C6    A    
C30   C41   A    
O14   V2    S    
C50   H16   S    
C36   C40   A    
C60   H42   S    
C36   C47   A    
O11   C7    A    
C11   C20   A    
C13   C21   S    
O12   C8    A    
C23   C28   T    
C63   C64   S    
C53   H23   S    
O10   V2    S    
C33   O25   S    
C52   H21   S    
C64   H50   S    
O5    V1    S    
C62   H47   S    
C43   O24   S    
O7    V3    S    
O8    V4    S    
C56   H30   S    
C49   H13   S    
C61   H44   S    
C59   C60   S    
H1    C18   S    
O21   C49   S    
C11   C15   A    
C30   C37   A    
C57   C58   S    
C53   H24   S    
O5    C1    A    
C4    C30   S    
C13   C17   A    
O8    C4    A    
C14   C22   S    
O9    C5    A    
C36   O28   S    
C54   H27   S    
C50   H17   S    
C51   H19   S    
C62   H46   S    
C55   C56   S    
C58   H35   S    
H4    C19   S    
C7    C25   S    
C57   H34   S    
O6    V2    S    
O27   C61   S    
C63   H49   S    
C9    C13   A    
C52   H22   S    
C15   C23   S    
C39   H12   S    
O16   V4    S    
C44   O23   S    
C16   C24   S    
C34   C45   A    
C3    O13   A    
H2    C17   S    
C59   H39   S    
C33   C46   A    
C1    C31   S    
C2    C32   S    
C35   C48   A    
C44   C48   A    
C3    C29   S    
C49   C50   S    
O6    C2    A    
C11   H7    S    
C21   C26   T    
C24   C27   T    
O11   V3    S    
C61   H43   S    
O18   V4    S    
C29   C42   A    
O12   V4    S    
C12   C19   A    
C62   H45   S    
C14   C18   A    
O25   C57   S    
C51   C52   S    
C34   O26   S    
C56   H32   S    
O20   V2    S    
C60   H40   S    
O28   C63   S    
C9    C18   A    
O10   C6    A    
O26   C59   S    
C59   H38   S    
C33   C37   A    
C32   C43   A    
C35   C39   A    
C42   O21   S    
C9    H5    S    
C51   H18   S    
C55   H29   S    
C10   C14   A    
C40   H11   S    
C47   C48   A    
C10   H6    S    
C12   H8    S    
C31   C40   A    
C8    C26   S    
C42   C46   A    
C4    O14   A    
H3    C20   S    
C41   C45   A    
C63   H48   S    
C56   H31   S    
C50   H15   S    
O24   C55   S    
C43   C47   A    
O4    V2    S    
C60   H41   S    
C22   C25   T    
