data_mof_unit_27864.cif
_audit_creation_date              2012-12-10T20:45:36-0500
_audit_creation_method            fapswitch 2.2
_symmetry_space_group_name_H-M    P1
_symmetry_Int_Tables_number       1
_space_group_crystal_system       triclinic
_cell_length_a                    10.693063
_cell_length_b                    10.68965
_cell_length_c                    9.850949
_cell_angle_alpha                 89.465764
_cell_angle_beta                  90.0177
_cell_angle_gamma                 89.919687
_cell_volume                      1125.96360722

loop_
_atom_site_label
_atom_site_type_symbol
_atom_type_description
_atom_site_fract_x
_atom_site_fract_y
_atom_site_fract_z
_atom_type_partial_charge
C1    C     C_R   0.502573 0.260076 0.500396 0.915262
C2    C     C_R   0.226795 0.795048 0.079965 -0.110257
C3    C     C_R   0.932318 0.557199 0.394779 -0.244615
C4    C     C_R   0.872391 0.493984 0.500822 -0.071419
C5    C     C_R   0.939373 0.437360 0.608129 -0.007896
C6    C     C_R   0.067524 0.444529 0.605355 -0.242495
C7    C     C_R   0.127633 0.507690 0.499304 -0.067006
C8    C     C_R   0.060614 0.567092 0.393274 0.009188
C9    C     C_R   0.890223 0.419668 0.855700 -0.155240
C10   C     C_R   0.830441 0.360450 0.964910 -0.118847
C11   C     C_R   0.760931 0.251760 0.943773 -0.117655
C12   C     C_R   0.260174 0.503990 0.499681 0.900591
C13   C     C_R   0.751560 0.201837 0.813527 -0.131208
C14   C     C_R   0.810294 0.261319 0.703703 -0.110407
C15   C     C_R   0.879550 0.371142 0.724100 0.140793
C16   C     C_R   0.500005 0.062454 0.622072 0.041771
C17   C     C_R   0.517522 0.128573 0.501594 -0.081266
C18   C     C_R   0.554259 0.065782 0.383560 -0.222278
C19   C     C_R   0.554175 0.936256 0.383169 -0.251389
C20   C     C_R   0.517419 0.871342 0.500783 -0.083196
C21   C     C_R   0.500951 0.935086 0.622077 0.063976
C22   C     C_3   0.402786 0.925632 0.730846 -0.130981
C23   C     C_R   0.502741 0.739893 0.499632 0.884551
C24   C     C_3   0.400193 0.069440 0.728945 -0.146410
C25   C     C_R   0.445192 0.404304 0.072584 0.107949
C26   C     C_R   0.564591 0.587581 0.071142 -0.125564
C27   C     C_R   0.564927 0.587350 0.927073 -0.110180
C28   C     C_R   0.443161 0.405615 0.929756 0.216760
C29   C     C_3   0.307217 0.373246 0.927611 -0.605020
C30   C     C_3   0.311457 0.367213 0.081811 -0.218274
C31   C     C_R   0.739836 0.496195 0.500330 0.856971
C32   C     C_R   0.255483 0.816598 0.216006 -0.102220
C33   C     C_R   0.201865 0.742252 0.317822 -0.094904
C34   C     C_R   0.119248 0.645169 0.284580 0.126311
C35   C     C_R   0.088676 0.626182 0.147341 -0.192186
C36   C     C_R   0.143333 0.700011 0.045550 -0.147478
H1    H     H_    0.268732 0.852573 0.001529 0.117685
H2    H     H_    0.714491 0.206114 0.028336 0.114839
H3    H     H_    0.698714 0.117037 0.797866 0.120305
H4    H     H_    0.801391 0.222425 0.603023 0.107892
H5    H     H_    0.576225 0.115887 0.290479 0.157332
H6    H     H_    0.575917 0.887865 0.289926 0.159862
H7    H     H_    0.440652 0.884974 0.826734 0.142976
H8    H     H_    0.434719 0.111533 0.824650 0.141785
H9    H     H_    0.614687 0.659696 0.124873 0.134091
H10   H     H_    0.319031 0.891130 0.242570 0.139977
H11   H     H_    0.615520 0.659129 0.871947 0.137424
H12   H     H_    0.248572 0.451670 0.888560 0.216985
H13   H     H_    0.288795 0.282300 0.878947 0.209308
H14   H     H_    0.252458 0.438482 0.131788 0.213064
H15   H     H_    0.224780 0.759819 0.422567 0.094714
H16   H     H_    0.024639 0.552514 0.119066 0.129359
H17   H     H_    0.120942 0.683547 0.940043 0.131435
H18   H     H_    0.878405 0.604330 0.316105 0.154557
H19   H     H_    0.120640 0.397829 0.684879 0.164637
H20   H     H_    0.943082 0.504377 0.873083 0.115265
H21   H     H_    0.837579 0.399044 0.065825 0.135979
N1    N     N_R   0.499160 0.499140 0.142800 -0.103778
N2    N     N_R   0.499160 0.499180 0.857150 -0.091413
O1    O     O_R   0.500020 0.316790 0.614690 -0.604297
O2    O     O_R   0.500000 0.316760 0.385350 -0.623868
O3    O     O_R   0.316770 0.500030 0.614670 -0.619242
O4    O     O_R   0.316750 0.499990 0.385330 -0.602606
O5    O     O_R   0.500000 0.683240 0.614650 -0.610143
O6    O     O_R   0.499980 0.683210 0.385310 -0.633666
O7    O     O_R   0.683250 0.500010 0.614670 -0.613938
O8    O     O_R   0.683230 0.499970 0.385330 -0.632669
Zn1   Zn    Zn3+2 0.500010 0.500020 0.653130 0.965710
Zn2   Zn    Zn3+2 0.499990 0.499980 0.346870 0.952222
N3    N     N_3   0.288447 0.862571 0.686010 -0.438972
H22   H     H_    0.218029 0.879311 0.757068 0.180571
H23   H     H_    0.258545 0.897733 0.592338 0.186558
N4    N     N_3   0.284433 0.128332 0.679301 -0.443748
H24   H     H_    0.264017 0.102419 0.579660 0.216282
H25   H     H_    0.210412 0.100929 0.742051 0.183783
C37   C     C_2   0.296812 0.237411 0.139504 0.472166
H26   H     H_    0.350396 0.160064 0.098489 0.023668
O9    O     O_2   0.224834 0.218188 0.233488 -0.577824

loop_
_geom_bond_atom_site_label_1
_geom_bond_atom_site_label_2
_ccdc_geom_bond_type
C31   O7    A    
O7    Zn1   S    
C16   C21   A    
N4    H24   S    
C35   C36   A    
C6    H19   S    
C7    C8    A    
C29   H13   S    
C25   C28   A    
C31   O8    A    
C26   C27   A    
O5    Zn1   S    
C28   C29   S    
C37   O9    D    
C18   C19   A    
C5    C6    A    
C3    H18   S    
C24   N4    S    
C27   H11   S    
C12   O3    A    
C2    C32   A    
C34   C35   A    
C36   H17   S    
C26   H9    S    
C19   C20   A    
C16   C17   A    
N3    H22   S    
C9    C10   A    
C19   H6    S    
C30   H14   S    
C16   C24   S    
C21   C22   S    
N4    H25   S    
C33   C34   A    
C7    C12   S    
C13   H3    S    
C29   H12   S    
O4    Zn2   S    
C10   H21   S    
C37   H26   S    
C3    C8    A    
C18   H5    S    
C12   O4    A    
O8    Zn2   S    
C11   H2    S    
C29   C30   S    
N2    Zn1   S    
C30   C37   S    
C22   H7    S    
C20   C23   S    
C17   C18   A    
C9    H20   S    
C8    C34   S    
C26   N1    A    
C23   O5    A    
C24   H8    S    
C22   C24   S    
C1    O1    A    
C25   N1    A    
C3    C4    A    
C28   N2    A    
C2    C36   A    
C25   C30   S    
C32   H10   S    
C4    C5    A    
C1    O2    A    
N1    Zn2   S    
C6    C7    A    
C33   H15   S    
C1    C17   S    
O3    Zn1   S    
O2    Zn2   S    
C32   C33   A    
C23   O6    A    
C9    C15   A    
C27   N2    A    
C11   C13   A    
C2    H1    S    
O6    Zn2   S    
C5    C15   S    
C4    C31   S    
C10   C11   A    
C14   H4    S    
C20   C21   A    
O1    Zn1   S    
C35   H16   S    
C14   C15   A    
N3    H23   S    
C13   C14   A    
C22   N3    S    
