data_mof_unit_49538.cif
_audit_creation_date              2012-12-10T16:47:26-0500
_audit_creation_method            fapswitch 2.2
_symmetry_space_group_name_H-M    P1
_symmetry_Int_Tables_number       1
_space_group_crystal_system       triclinic
_cell_length_a                    10.612401
_cell_length_b                    8.723165
_cell_length_c                    7.504108
_cell_angle_alpha                 103.128486
_cell_angle_beta                  95.296721
_cell_angle_gamma                 93.342083
_cell_volume                      671.383350602

loop_
_atom_site_label
_atom_site_type_symbol
_atom_type_description
_atom_site_fract_x
_atom_site_fract_y
_atom_site_fract_z
_atom_type_partial_charge
C1    C     C_R   0.495548 0.200120 0.453483 0.796207
C2    C     C_R   0.504452 0.799880 0.546516 0.796207
C3    C     C_R   0.259628 0.497436 0.499948 0.776087
C4    C     C_R   0.740372 0.502564 0.500052 0.776087
C5    C     C_3   0.043165 0.402995 0.605987 -0.195037
C6    C     C_3   0.956835 0.597005 0.394013 -0.195036
C7    C     C_3   0.944226 0.351715 0.432383 -0.254947
C8    C     C_3   0.055774 0.648285 0.567617 -0.254948
C9    C     C_3   0.876801 0.502460 0.499989 -0.013546
C10   C     C_3   0.123199 0.497540 0.500011 -0.013546
C11   C     C_3   0.974304 0.552568 0.669442 0.235298
C12   C     C_3   0.025696 0.447432 0.330558 0.235298
C13   C     C_2   0.489732 0.032502 0.427664 0.267103
C14   C     C_2   0.510268 0.967498 0.572336 0.267104
Cu1   Cu    Cu3+1 0.514140 0.517380 0.684380 1.038876
Cu2   Cu    Cu3+1 0.485860 0.482620 0.315620 1.038876
H1    H     H_    0.896626 0.231700 0.373809 0.146065
H2    H     H_    0.103374 0.768300 0.626191 0.146065
H3    H     H_    0.080442 0.326624 0.695179 0.145677
H4    H     H_    0.919558 0.673376 0.304821 0.145677
N1    N     N_2   0.464560 0.456420 0.038510 0.024853
N2    N     N_2   0.535440 0.543580 0.961490 0.024853
O1    O     O_R   0.509190 0.286130 0.619780 -0.534272
O2    O     O_R   0.490810 0.713870 0.380220 -0.534272
O3    O     O_R   0.485310 0.256770 0.308360 -0.551530
O4    O     O_R   0.514690 0.743230 0.691640 -0.551530
O5    O     O_R   0.328790 0.514640 0.655680 -0.574561
O6    O     O_R   0.671210 0.485360 0.344320 -0.574561
O7    O     O_R   0.304910 0.485280 0.344260 -0.583003
O8    O     O_R   0.695090 0.514720 0.655740 -0.583003
N3    N     N_3   0.944113 0.611086 0.857010 -0.588628
H5    H     H_    0.030058 0.637948 0.941819 0.236887
H6    H     H_    0.903079 0.717830 0.862166 0.207529
N4    N     N_3   0.055886 0.388914 0.142990 -0.588628
H7    H     H_    0.969942 0.362052 0.058181 0.236887
H8    H     H_    0.096921 0.282170 0.137834 0.207529
N5    N     N_3   0.369953 0.356320 0.922735 -0.397167
H9    H     H_    0.379515 0.243629 0.945454 0.260074
H10   H     H_    0.283463 0.391261 0.967242 0.212949
N6    N     N_3   0.630047 0.643680 0.077264 -0.397168
H11   H     H_    0.620484 0.756371 0.054548 0.260074
H12   H     H_    0.716536 0.608740 0.032756 0.212950
F1    F     F_    0.460413 0.944427 0.252147 -0.654914
F2    F     F_    0.539587 0.055573 0.747853 -0.654914

loop_
_geom_bond_atom_site_label_1
_geom_bond_atom_site_label_2
_ccdc_geom_bond_type
Cu2   O6    S    
N3    H6    S    
C5    C11   S    
N5    H9    S    
C5    H3    S    
C6    H4    S    
Cu2   O2    S    
C14   F2    S    
Cu1   O5    S    
N3    H5    S    
N2    N6    S    
C6    C9    S    
C3    O5    A    
Cu2   O7    S    
C11   N3    S    
C5    C10   S    
C2    O4    A    
C3    C10   S    
N1    N2    D    
C1    O3    A    
C9    C11   S    
C3    O7    A    
Cu2   N1    S    
C10   C12   S    
C8    C11   S    
C6    C12   S    
Cu1   O1    S    
N6    H11   S    
C4    O6    A    
C1    O1    A    
N4    H8    S    
C2    O2    A    
C7    C12   S    
C2    C14   S    
C4    O8    A    
C8    C10   S    
C1    C13   S    
C12   N4    S    
Cu1   Cu2   S    
C7    C9    S    
C13   F1    S    
N1    N5    S    
Cu1   O8    S    
N5    H10   S    
N4    H7    S    
Cu2   O3    S    
C5    C7    S    
Cu1   O4    S    
C6    C8    S    
C4    C9    S    
C13   C14   D    
Cu1   N2    S    
C8    H2    S    
N6    H12   S    
C7    H1    S    
