data_mof_unit_44104.cif
_audit_creation_date              2012-12-10T16:54:33-0500
_audit_creation_method            fapswitch 2.2
_symmetry_space_group_name_H-M    P1
_symmetry_Int_Tables_number       1
_space_group_crystal_system       triclinic
_cell_length_a                    15.073781
_cell_length_b                    10.914608
_cell_length_c                    9.683378
_cell_angle_alpha                 89.172247
_cell_angle_beta                  90.07259
_cell_angle_gamma                 90.12992
_cell_volume                      1592.9804947

loop_
_atom_site_label
_atom_site_type_symbol
_atom_type_description
_atom_site_fract_x
_atom_site_fract_y
_atom_site_fract_z
_atom_type_partial_charge
C1    C     C_R   0.497381 0.265222 0.501128 0.880340
C2    C     C_R   0.907300 0.533182 0.617697 0.117925
C3    C     C_R   0.954364 0.432936 0.255985 0.439332
C4    C     C_R   0.047207 0.434874 0.258509 -0.267217
C5    C     C_R   0.093241 0.468034 0.377781 0.029269
C6    C     C_R   0.046521 0.500318 0.497613 0.069260
C7    C     C_R   0.092982 0.532973 0.618503 0.109891
C8    C     C_R   0.046384 0.566384 0.737036 -0.153926
C9    C     C_R   0.954072 0.567147 0.736325 -0.125922
C10   C     C_R   0.185730 0.468871 0.379124 -0.161295
C11   C     C_R   0.231882 0.500233 0.499335 -0.053872
C12   C     C_R   0.328660 0.500010 0.499894 0.831627
C13   C     C_R   0.185416 0.531986 0.618739 -0.218947
C14   C     C_2   0.459231 0.936347 0.395157 0.469188
C15   C     C_2   0.498732 0.867438 0.494813 -0.439063
C16   C     C_2   0.472845 0.069444 0.391442 -0.188482
C17   C     C_2   0.487260 0.133371 0.506150 -0.386831
C18   C     C_2   0.446647 0.432352 0.923044 -0.041109
C19   C     C_2   0.448111 0.430175 0.078879 -0.030302
C20   C     C_R   0.497179 0.734796 0.498620 0.912017
C21   C     C_R   0.671368 0.499858 0.500007 0.809160
C22   C     C_R   0.815007 0.532370 0.618156 -0.207966
C23   C     C_R   0.768233 0.499386 0.499576 -0.099091
C24   C     C_R   0.813801 0.466292 0.379803 -0.135487
C25   C     C_R   0.906727 0.466018 0.376118 -0.025414
C26   C     C_R   0.953466 0.499840 0.496910 0.009717
Cu1   Cu    Cu3+1 0.500020 0.500020 0.638630 0.975385
Cu2   Cu    Cu3+1 0.499980 0.499980 0.361370 1.026470
H1    H     H_    0.779588 0.558519 0.710549 0.156225
H2    H     H_    0.538536 0.909061 0.574873 0.132572
H3    H     H_    0.467373 0.116270 0.292010 0.209993
H4    H     H_    0.486005 0.090028 0.607664 0.167223
H5    H     H_    0.398802 0.373699 0.872402 0.155492
H6    H     H_    0.546027 0.552344 0.893176 0.205056
H7    H     H_    0.403039 0.367441 0.131296 0.151021
H8    H     H_    0.540372 0.560566 0.105123 0.217026
H9    H     H_    0.775719 0.439851 0.290531 0.225262
H10   H     H_    0.084120 0.409859 0.167271 0.191542
H11   H     H_    0.221773 0.443720 0.286937 0.155635
H12   H     H_    0.221119 0.557121 0.711459 0.161214
H13   H     H_    0.081313 0.592103 0.830164 0.160327
H14   H     H_    0.919245 0.594233 0.828663 0.192984
N1    N     N_2   0.499020 0.498660 0.846910 -0.278353
N2    N     N_2   0.499000 0.498630 0.153040 -0.262012
O1    O     O_R   0.500020 0.321960 0.617040 -0.576731
O2    O     O_R   0.499980 0.321920 0.382900 -0.581390
O3    O     O_R   0.370270 0.499990 0.617090 -0.592731
O4    O     O_R   0.370240 0.499950 0.382940 -0.561889
O5    O     O_R   0.500020 0.678080 0.617100 -0.579186
O6    O     O_R   0.499980 0.678040 0.382960 -0.506580
O7    O     O_R   0.629760 0.500050 0.617060 -0.583569
O8    O     O_R   0.629730 0.500010 0.382910 -0.581801
S1    S     S_3+6 0.900703 0.387486 0.101647 -0.019012
O9    O     O_2   0.967224 0.362720 0.989980 -0.291674
O10   O     O_2   0.847920 0.272932 0.130419 -0.281363
O11   O     O_3   0.831749 0.499439 0.048038 -0.574256
H15   H     H_    0.797245 0.463239 0.971580 0.366692
S2    S     S_3+6 0.389640 0.875395 0.264762 0.018318
O12   O     O_2   0.445943 0.819130 0.154561 -0.285980
O13   O     O_2   0.328870 0.779624 0.325808 -0.291985
O14   O     O_3   0.328287 0.988355 0.193566 -0.543070
H16   H     H_    0.292849 0.948188 0.120778 0.380348

loop_
_geom_bond_atom_site_label_1
_geom_bond_atom_site_label_2
_ccdc_geom_bond_type
C2    C22   A    
C10   H11   S    
C11   C12   S    
C6    C7    A    
C22   H1    S    
C11   C13   A    
C21   O8    A    
C1    C17   S    
C7    C13   A    
C12   O4    A    
Cu2   O2    S    
Cu1   O1    S    
S2    O14   S    
S1    O10   D    
C24   H9    S    
C6    C26   A    
C5    C10   A    
C2    C26   A    
C19   H7    S    
S1    O9    D    
C24   C25   A    
C16   H3    S    
C8    H13   S    
Cu2   O8    S    
C1    O1    A    
C9    H14   S    
C20   O5    A    
C12   O3    A    
C5    C6    A    
C25   C26   A    
C4    H10   S    
C21   C23   S    
O14   H16   S    
C14   S2    S    
C18   H5    S    
C14   C16   S    
C1    O2    A    
H8    N2    S    
C7    C8    A    
C10   C11   A    
C23   C24   A    
S2    O13   D    
C3    C4    A    
Cu1   N1    S    
C21   O7    A    
C3    C25   A    
C19   N2    D    
C15   H2    S    
C15   C20   S    
C18   C19   S    
S1    O11   S    
Cu1   O3    S    
Cu1   Cu2   S    
O11   H15   S    
C17   H4    S    
C14   C15   D    
C4    C5    A    
C13   H12   S    
C20   O6    A    
C3    S1    S    
S2    O12   D    
C18   N1    D    
C2    C9    A    
Cu2   O6    S    
Cu2   N2    S    
C22   C23   A    
Cu2   O4    S    
H6    N1    S    
Cu1   O5    S    
C16   C17   D    
Cu1   O7    S    
C8    C9    A    
