data_mof_unit_56753.cif
_audit_creation_date              2012-12-10T17:23:11-0500
_audit_creation_method            fapswitch 2.2
_symmetry_space_group_name_H-M    P1
_symmetry_Int_Tables_number       1
_space_group_crystal_system       triclinic
_cell_length_a                    15.850131
_cell_length_b                    10.772318
_cell_length_c                    9.615863
_cell_angle_alpha                 90.012557
_cell_angle_beta                  90.144508
_cell_angle_gamma                 92.650138
_cell_volume                      1640.0766759

loop_
_atom_site_label
_atom_site_type_symbol
_atom_type_description
_atom_site_fract_x
_atom_site_fract_y
_atom_site_fract_z
_atom_type_partial_charge
C1    C     C_R   0.497409 0.262617 0.500016 0.785291
C2    C     C_3   0.082839 0.503629 0.500931 0.188684
C3    C     C_3   0.975042 0.587801 0.593789 -0.145582
C4    C     C_3   0.917511 0.503967 0.501345 0.181299
C5    C     C_3   0.031864 0.617328 0.466075 -0.147595
C6    C     C_3   0.972770 0.533521 0.373656 -0.160156
C7    C     C_1   0.174581 0.502596 0.500342 -0.060045
C8    C     C_1   0.825673 0.503224 0.501090 -0.073429
C9    C     C_R   0.358653 0.119439 0.633165 -0.208191
C10   C     C_R   0.292818 0.049859 0.695849 -0.184700
C11   C     C_R   0.292313 0.920393 0.694334 0.047537
C12   C     C_R   0.339951 0.499854 0.499872 0.801755
C13   C     C_R   0.358301 0.860253 0.630883 -0.213298
C14   C     C_R   0.426115 0.929110 0.568062 0.084372
C15   C     C_R   0.426110 0.060357 0.568633 0.097274
C16   C     C_R   0.492164 0.128401 0.499922 -0.091339
C17   C     C_R   0.554549 0.067908 0.427774 -0.193290
C18   C     C_R   0.554781 0.939813 0.427826 -0.209874
C19   C     C_R   0.492498 0.870506 0.499732 -0.073262
C20   C     C_R   0.611849 0.666045 0.144228 -0.133793
C21   C     C_R   0.666266 0.747542 0.072348 -0.212060
C22   C     C_R   0.666313 0.747472 0.929041 -0.202224
C23   C     C_R   0.498079 0.737105 0.499954 0.760794
C24   C     C_R   0.611897 0.665965 0.856668 -0.129810
C25   C     C_R   0.554909 0.581652 0.925484 0.206855
C26   C     C_R   0.554890 0.581639 0.074950 0.210997
C27   C     C_R   0.447766 0.422275 0.073580 -0.051671
C28   C     C_R   0.447781 0.422309 0.925810 -0.050032
C29   C     C_R   0.660078 0.500661 0.500194 0.804905
C30   C     C_3   0.968549 0.390338 0.536243 -0.163615
C31   C     C_3   0.025282 0.419860 0.408546 -0.160814
C32   C     C_1   0.250180 0.501304 0.499872 -0.176040
C33   C     C_1   0.749973 0.502086 0.500665 -0.178949
C34   C     C_3   0.027611 0.474131 0.628652 -0.145766
Cu1   Cu    Cu3+1 0.499990 0.499990 0.640660 0.933081
Cu2   Cu    Cu3+1 0.500010 0.500010 0.359340 0.939588
H1    H     H_    0.047246 0.350909 0.332513 0.132825
H2    H     H_    0.354883 0.759772 0.628540 0.152900
H3    H     H_    0.604813 0.894463 0.373796 0.132426
H4    H     H_    0.404917 0.358470 0.128383 0.139050
H5    H     H_    0.709029 0.810905 0.873186 0.148148
H6    H     H_    0.617548 0.673201 0.747051 0.194479
H7    H     H_    0.404952 0.358506 0.870556 0.135515
H8    H     H_    0.941244 0.297152 0.565073 0.132184
H9    H     H_    0.948912 0.557907 0.268985 0.135772
H10   H     H_    0.059279 0.710489 0.437388 0.137141
H11   H     H_    0.953097 0.656752 0.669837 0.137335
H12   H     H_    0.604379 0.120384 0.373619 0.149310
H13   H     H_    0.354972 0.219409 0.633342 0.143065
N1    N     N_R   0.500800 0.501210 0.147910 -0.199044
N2    N     N_R   0.500830 0.501290 0.852040 -0.198694
O1    O     O_R   0.499990 0.319640 0.618810 -0.576813
O2    O     O_R   0.500000 0.319660 0.381240 -0.574322
O3    O     O_R   0.379070 0.499980 0.618770 -0.583346
O4    O     O_R   0.379080 0.500000 0.381190 -0.567496
O5    O     O_R   0.500000 0.680340 0.618760 -0.600336
O6    O     O_R   0.500010 0.680360 0.381190 -0.589158
O7    O     O_R   0.620920 0.500000 0.618810 -0.588030
O8    O     O_R   0.620930 0.500020 0.381230 -0.591820
C35   C     C_1   0.222943 0.848628 0.755291 0.213930
N3    N     N_1   0.167205 0.790787 0.803997 -0.299657
H14   H     H_    0.617501 0.673400 0.253854 0.189920
H15   H     H_    0.708921 0.811058 0.128605 0.144378
H16   H     H_    0.051510 0.449806 0.733314 0.136291
H17   H     H_    0.241541 0.097271 0.743818 0.137153

loop_
_geom_bond_atom_site_label_1
_geom_bond_atom_site_label_2
_ccdc_geom_bond_type
C19   C23   S    
C18   H3    S    
C27   N1    A    
C24   C25   A    
C7    C32   T    
C6    H9    S    
C22   H5    S    
C24   H6    S    
C9    C10   A    
C29   O8    A    
C28   H7    S    
C2    C7    S    
C17   H12   S    
C27   H4    S    
C4    C8    S    
Cu2   O8    S    
C2    C34   S    
C34   H16   S    
C17   C18   A    
Cu1   O5    S    
Cu2   N1    S    
C23   O5    A    
C1    C16   S    
C21   C22   A    
C12   C32   S    
Cu1   O3    S    
C20   H14   S    
C11   C13   A    
C30   H8    S    
C13   H2    S    
C30   C31   S    
C20   C26   A    
Cu1   O7    S    
C4    C30   S    
Cu2   O4    S    
C3    H11   S    
C28   N2    A    
C18   C19   A    
C8    C33   T    
C26   N1    A    
Cu1   N2    S    
C5    C6    S    
C1    O1    A    
C22   C24   A    
C25   N2    A    
C21   H15   S    
C2    C5    S    
C16   C17   A    
C10   C11   A    
C30   C34   S    
C4    C6    S    
C15   C16   A    
C12   O4    A    
C29   C33   S    
Cu1   O1    S    
C9    H13   S    
C29   O7    A    
C20   C21   A    
Cu2   O6    S    
C5    H10   S    
C10   H17   S    
C27   C28   A    
C23   O6    A    
C1    O2    A    
C14   C15   A    
C35   N3    T    
C6    C31   S    
Cu2   O2    S    
C3    C34   S    
C25   C26   A    
C13   C14   A    
C14   C19   A    
C12   O3    A    
C3    C4    S    
C11   C35   S    
C9    C15   A    
C31   H1    S    
C2    C31   S    
C3    C5    S    
Cu1   Cu2   S    
