data_mof_unit_34202.cif
_audit_creation_date              2012-12-10T16:58:31-0500
_audit_creation_method            fapswitch 2.2
_symmetry_space_group_name_H-M    P1
_symmetry_Int_Tables_number       1
_space_group_crystal_system       triclinic
_cell_length_a                    7.796992
_cell_length_b                    8.564095
_cell_length_c                    23.502529
_cell_angle_alpha                 92.195668
_cell_angle_beta                  86.916623
_cell_angle_gamma                 92.690783
_cell_volume                      1564.35451278

loop_
_atom_site_label
_atom_site_type_symbol
_atom_type_description
_atom_site_fract_x
_atom_site_fract_y
_atom_site_fract_z
_atom_type_partial_charge
C1    C     C_R   0.544800 0.794275 0.498852 0.946129
C2    C     C_R   0.338072 0.502284 0.298455 0.498316
C3    C     C_R   0.654232 0.482704 0.760747 -0.202936
C4    C     C_R   0.345766 0.517294 0.239253 -0.202937
C5    C     C_R   0.496511 0.480642 0.791751 0.242368
C6    C     C_R   0.503487 0.519357 0.208249 0.242367
C7    C     C_2   0.568832 0.957134 0.499240 -0.376283
C8    C     C_2   0.431168 0.042866 0.500760 -0.376282
C9    C     C_R   0.503224 0.499112 0.610635 0.878354
C10   C     C_R   0.496775 0.500888 0.389365 0.878353
C11   C     C_R   0.428225 0.387286 0.120443 0.531844
C12   C     C_R   0.455200 0.205725 0.501147 0.946129
C13   C     C_R   0.571772 0.612712 0.879557 0.531843
C14   C     C_R   0.585582 0.633646 0.118076 0.543279
C15   C     C_R   0.414415 0.366353 0.881924 0.543278
C16   C     C_R   0.587352 0.630989 0.058239 -0.119636
C17   C     C_R   0.412645 0.369010 0.941760 -0.119636
C18   C     C_R   0.502376 0.503028 0.029893 -0.079970
C19   C     C_R   0.497621 0.496970 0.970107 -0.079970
C20   C     C_R   0.421632 0.381022 0.061274 -0.064357
C21   C     C_R   0.578365 0.618977 0.938726 -0.064358
C22   C     C_R   0.668523 0.752626 0.026134 0.527650
C23   C     C_R   0.343504 0.479167 0.763678 -0.104734
C24   C     C_R   0.331474 0.247373 0.973866 0.527649
C25   C     C_R   0.665320 0.743897 0.966738 -0.293051
C26   C     C_R   0.334677 0.256102 0.033262 -0.293051
C27   C     C_3   0.675070 0.011778 0.051773 -0.187747
C28   C     C_3   0.324928 0.988221 0.948227 -0.187748
C29   C     C_3   0.908307 0.650519 0.689991 -0.220232
C30   C     C_3   0.091696 0.349476 0.310010 -0.220232
C31   C     C_3   0.952993 0.221585 0.442941 -0.177982
C32   C     C_3   0.047007 0.778414 0.557059 -0.177983
C33   C     C_R   0.656494 0.520831 0.236322 -0.104733
C34   C     C_R   0.348475 0.480808 0.704719 -0.304268
C35   C     C_R   0.651524 0.519190 0.295280 -0.304267
C36   C     C_R   0.506565 0.492139 0.672938 -0.152182
C37   C     C_R   0.493434 0.507860 0.327062 -0.152182
C38   C     C_R   0.661928 0.497715 0.701545 0.498317
H1    H     H_    0.732783 0.835357 0.942660 0.210056
H2    H     H_    0.300312 0.994182 0.501184 0.159323
H3    H     H_    0.745362 0.103783 0.076971 0.206218
H4    H     H_    0.543447 0.996775 0.072232 0.169281
H5    H     H_    0.669317 0.054123 0.007827 0.124078
H6    H     H_    0.456551 0.003224 0.927768 0.169281
H7    H     H_    0.254636 0.896216 0.923029 0.206218
H8    H     H_    0.330681 0.945875 0.992173 0.124078
H9    H     H_    0.945679 0.646266 0.734810 0.148489
H10   H     H_    0.831976 0.754897 0.684184 0.162147
H11   H     H_    0.030049 0.664389 0.664043 0.194111
H12   H     H_    0.267214 0.164641 0.057340 0.210056
H13   H     H_    0.168026 0.245100 0.315821 0.162146
H14   H     H_    0.054332 0.353723 0.265190 0.148490
H15   H     H_    0.969951 0.335609 0.335956 0.194109
H16   H     H_    0.831535 0.224799 0.420631 0.169794
H17   H     H_    0.932851 0.174231 0.486314 0.140609
H18   H     H_    0.037178 0.140549 0.417833 0.133093
H19   H     H_    0.067147 0.825770 0.513687 0.140609
H20   H     H_    0.168465 0.775201 0.579369 0.169794
H21   H     H_    0.962822 0.859450 0.582168 0.133094
H22   H     H_    0.220727 0.476805 0.787569 0.162923
H23   H     H_    0.779271 0.523193 0.212431 0.162923
H24   H     H_    0.227596 0.474177 0.684091 0.209390
H25   H     H_    0.772404 0.525821 0.315909 0.209391
H26   H     H_    0.771158 0.477361 0.783306 0.154435
H27   H     H_    0.228840 0.522637 0.216694 0.154436
H28   H     H_    0.699688 0.005818 0.498816 0.159323
N1    N     N_R   0.506915 0.513131 0.147456 -0.348072
N2    N     N_R   0.493083 0.486867 0.852544 -0.348072
N3    N     N_2   0.950330 0.457950 0.484560 0.199016
N4    N     N_2   0.049670 0.542050 0.515440 0.199015
O1    O     O_R   0.389250 0.738570 0.503790 -0.654250
O2    O     O_2   0.642614 0.731988 0.849016 -0.571257
O3    O     O_2   0.658784 0.756150 0.147033 -0.499220
O4    O     O_2   0.341213 0.243849 0.852967 -0.499220
O5    O     O_3   0.764706 0.872557 0.052053 -0.557614
O6    O     O_3   0.235291 0.127441 0.947947 -0.557613
O7    O     O_3   0.819635 0.511386 0.671637 -0.577827
O8    O     O_3   0.180364 0.488613 0.328363 -0.577826
O9    O     O_3   0.036438 0.369848 0.445088 -0.496239
O10   O     O_3   0.963562 0.630152 0.554912 -0.496240
O11   O     O_R   0.610750 0.261430 0.496210 -0.654250
O12   O     O_R   0.678390 0.711620 0.493890 -0.599795
O13   O     O_R   0.321610 0.288380 0.506110 -0.599795
O14   O     O_R   0.355400 0.513520 0.588790 -0.641699
O15   O     O_R   0.644600 0.486480 0.411210 -0.641699
O16   O     O_R   0.644550 0.486570 0.578900 -0.527223
O17   O     O_R   0.355450 0.513430 0.421100 -0.527223
O18   O     O_2   0.357383 0.268011 0.150984 -0.571257
Zn1   Zn    Zn3+2 0.306930 0.518000 0.506610 1.045672
Zn2   Zn    Zn3+2 0.693070 0.482000 0.493390 1.045673

loop_
_geom_bond_atom_site_label_1
_geom_bond_atom_site_label_2
_ccdc_geom_bond_type
C30   H13   S    
C10   O15   A    
C27   H4    S    
C32   H20   S    
C7    C8    D    
C29   H11   S    
C3    H26   S    
C28   H8    S    
C1    O1    A    
C29   H9    S    
C10   C37   S    
C22   O5    S    
C35   C37   A    
C24   C26   A    
C26   H12   S    
C4    H27   S    
C34   H24   S    
C18   C19   A    
C30   H14   S    
C33   C35   A    
C3    C38   A    
C22   C25   A    
C5    C23   A    
C9    C36   S    
C14   N1    A    
C31   H18   S    
C18   C20   A    
C32   H19   S    
C5    N2    S    
C27   O5    S    
C11   N1    A    
C23   H22   S    
O13   Zn1   S    
C30   H15   S    
C11   C20   A    
C17   C24   A    
C29   H10   S    
N4    O10   S    
C14   O3    S    
C4    C6    A    
O16   Zn2   S    
C28   H7    S    
C24   O6    S    
C1    O12   A    
C28   H6    S    
C12   O13   A    
C2    C4    A    
C2    O8    S    
C9    O16   A    
C32   O10   S    
C27   H3    S    
O1    Zn1   S    
C11   O18   S    
C8    C12   S    
C23   C34   A    
C13   C21   A    
C10   O17   A    
O11   Zn2   S    
C33   H23   S    
C6    N1    S    
C38   O7    S    
O17   Zn1   S    
C14   C16   A    
N3    O9    S    
N4    Zn1   S    
O14   Zn1   S    
N3    Zn2   S    
C28   O6    S    
C15   C17   A    
C21   C25   A    
C16   C22   A    
C19   C21   A    
C1    C7    S    
C3    C5    A    
O15   Zn2   S    
C31   O9    S    
C13   O2    S    
O12   Zn2   S    
C6    C33   A    
C36   C38   A    
C25   H1    S    
C7    H28   S    
C2    C37   A    
C20   C26   A    
C15   N2    A    
C17   C19   A    
C12   O11   A    
C34   C36   A    
C31   H16   S    
N3    N4    D    
C9    O14   A    
C30   O8    S    
C27   H5    S    
C15   O4    S    
C29   O7    S    
C16   C18   A    
C35   H25   S    
C8    H2    S    
C32   H21   S    
C31   H17   S    
C13   N2    A    
