data_mof_unit_17429.cif
_audit_creation_date              2013-03-05T16:18:41-0500
_audit_creation_method            fapswitch 2.2
_symmetry_space_group_name_H-M    P1
_symmetry_Int_Tables_number       1
_space_group_crystal_system       triclinic
_cell_length_a                    15.734568
_cell_length_b                    10.676857
_cell_length_c                    9.711442
_cell_angle_alpha                 90.165954
_cell_angle_beta                  89.748433
_cell_angle_gamma                 90.117744
_cell_volume                      1631.45484054

loop_
_atom_site_label
_atom_site_type_symbol
_atom_site_description
_atom_site_fract_x
_atom_site_fract_y
_atom_site_fract_z
_atom_type_partial_charge
O1    O     O_R   0.499980 0.314910 0.616040 -0.612931
O2    O     O_R   0.500040 0.314680 0.383960 -0.594954
C1    C     C_R   0.500789 0.257467 0.499773 1.000921
O3    O     O_R   0.376750 0.500100 0.616020 -0.563121
O4    O     O_R   0.376810 0.499870 0.383940 -0.632751
C2    C     C_R   0.337898 0.499711 0.500219 0.964742
Zn1   Zn    Zn3+2 0.499960 0.500150 0.654960 1.013765
Zn2   Zn    Zn3+2 0.500040 0.499850 0.345040 0.996643
O5    O     O_R   0.499960 0.685320 0.616040 -0.641939
O6    O     O_R   0.500020 0.685090 0.383960 -0.617164
O7    O     O_R   0.623190 0.500130 0.616060 -0.620230
O8    O     O_R   0.623250 0.499900 0.383980 -0.609255
C3    C     C_R   0.496361 0.741832 0.500262 0.963740
C4    C     C_R   0.662089 0.500348 0.499753 0.976647
C5    C     C_3   0.970526 0.402178 0.575182 -0.219890
C6    C     C_3   0.026626 0.394134 0.445504 0.353507
H1    H     H_    0.945418 0.321378 0.634637 0.221166
H2    H     H_    0.947734 0.479575 0.261665 0.203272
C7    C     C_1   0.249156 0.499400 0.500705 -0.022281
C8    C     C_1   0.750813 0.500328 0.499183 -0.047990
C9    C     C_3   0.028121 0.509766 0.631037 -0.233284
C10   C     C_3   0.083240 0.499019 0.500002 -0.000030
C11   C     C_3   0.973282 0.605454 0.553934 0.353567
C12   C     C_3   0.916691 0.500539 0.499466 0.002230
C13   C     C_3   0.029404 0.597389 0.424284 -0.227697
C14   C     C_3   0.971788 0.489827 0.368439 -0.238102
C15   C     C_1   0.173971 0.499138 0.500610 0.111122
C16   C     C_1   0.825985 0.500416 0.499084 0.104772
H3    H     H_    0.052182 0.520007 0.737810 0.213673
C17   C     C_3   0.461317 0.072734 0.636931 -0.402276
H4    H     H_    0.395394 0.107009 0.648434 0.285106
C18   C     C_3   0.464170 0.929575 0.643638 0.104876
C19   C     C_3   0.446189 0.069821 0.375899 0.105315
C20   C     C_3   0.597075 0.069619 0.491172 0.356511
C21   C     C_3   0.501792 0.120686 0.499056 -0.264896
C22   C     C_3   0.496205 0.877605 0.500859 -0.202948
C23   C     C_3   0.437293 0.927423 0.385480 -0.389510
C24   C     C_3   0.590595 0.922314 0.478593 -0.022697
H5    H     H_    0.628205 0.878522 0.562114 0.167613
H6    H     H_    0.451754 0.885006 0.283612 0.206751
C25   C     C_3   0.448339 0.392856 0.083584 -0.239657
H7    H     H_    0.382464 0.397431 0.124917 0.233992
H8    H     H_    0.475299 0.303534 0.122259 0.187935
C26   C     C_3   0.448714 0.389951 0.921006 0.238264
H9    H     H_    0.480288 0.301013 0.889221 0.108912
H10   H     H_    0.393646 0.625531 0.115296 0.190780
H11   H     H_    0.401603 0.637342 0.874050 0.237141
C27   C     C_3   0.460720 0.615694 0.080281 -0.243457
C28   C     C_3   0.585682 0.488447 0.080861 -0.239679
N1    N     N_3   0.498170 0.499750 0.138610 -0.094172
H12   H     H_    0.625158 0.568513 0.117049 0.206394
H13   H     H_    0.616297 0.402226 0.120921 0.215461
N2    N     N_3   0.498850 0.496730 0.861320 -0.119004
C29   C     C_3   0.464797 0.616429 0.918227 -0.198384
C30   C     C_3   0.586106 0.485077 0.918414 -0.324905
H14   H     H_    0.615766 0.396477 0.881657 0.208564
H15   H     H_    0.627042 0.562195 0.878836 0.202187
H16   H     H_    0.495308 0.698940 0.120276 0.199627
H17   H     H_    0.505904 0.695714 0.884700 0.169631
N3    N     N_R   0.055265 0.276400 0.384977 0.235172
O9    O     O_R   0.999670 0.194470 0.343398 -0.282310
O10   O     O_R   0.135870 0.252653 0.371170 -0.280187
N4    N     N_R   0.381484 0.880566 0.691858 0.242630
O11   O     O_R   0.336254 0.802398 0.619637 -0.390106
O12   O     O_R   0.355079 0.910511 0.814764 -0.331120
N5    N     N_R   0.361886 0.129252 0.367053 0.220018
O13   O     O_R   0.303072 0.107906 0.458685 -0.297287
O14   O     O_R   0.341682 0.191117 0.256860 -0.354172
H18   H     H_    0.370406 0.900152 0.405369 0.255009
N6    N     N_R   0.648313 0.119186 0.374643 0.238992
O15   O     O_R   0.615390 0.178099 0.270910 -0.405697
O16   O     O_R   0.729883 0.098713 0.372737 -0.243851
N7    N     N_R   0.642101 0.107580 0.619047 0.197817
O17   O     O_R   0.671099 0.221359 0.630781 -0.377862
O18   O     O_R   0.653103 0.031549 0.722047 -0.375592
N8    N     N_R   0.627579 0.873159 0.349211 0.252379
O19   O     O_R   0.691230 0.795680 0.354402 -0.339535
O20   O     O_R   0.599779 0.907825 0.229232 -0.357238
H19   H     H_    0.479588 0.089134 0.277573 0.201074
N9    N     N_R   0.361428 0.385465 0.868077 0.233744
O21   O     O_R   0.304496 0.465796 0.909042 -0.379054
O22   O     O_R   0.336899 0.289441 0.795655 -0.347005
H20   H     H_    0.054488 0.678183 0.364796 0.213624
N10   N     N_R   0.944536 0.723288 0.614153 0.235541
O23   O     O_R   0.000071 0.804843 0.656817 -0.285200
O24   O     O_R   0.863919 0.748165 0.625059 -0.325663
H21   H     H_    0.494946 0.110631 0.728564 0.215197
H22   H     H_    0.511817 0.903269 0.722924 0.149063

loop_
_geom_bond_atom_site_label_1
_geom_bond_atom_site_label_2
_geom_bond_distance
_ccdc_geom_bond_type
N5    O14   1.300187 A    
C30   H14   1.112859 S    
N4    O12   1.301342 A    
C23   H18   1.107695 S    
C25   H8    1.111594 S    
C25   H7    1.111006 S    
H2    C14   1.110433 S    
C24   N8    1.477787 S    
N2    C29   1.490616 S    
C27   C29   1.574840 S    
C2    C7    1.396294 S    
C17   C21   1.567065 S    
C18   C22   1.573261 S    
C22   C23   1.553157 S    
C12   C14   1.540669 S    
C23   H6    1.109689 S    
C6    N3    1.457533 S    
C24   H5    1.110972 S    
O7    C4    1.282317 A    
C5    C6    1.537032 S    
C18   H22   1.114005 S    
N3    O10   1.300177 A    
C20   C21   1.597793 S    
N7    O17   1.301649 A    
O5    C3    1.279098 A    
C26   N2    1.501380 S    
C28   H12   1.112695 S    
C10   C13   1.541095 S    
C11   C12   1.524478 S    
N6    O15   1.299398 A    
C7    C15   1.183015 T    
C20   N6    1.484723 S    
C27   N1    1.486791 S    
N5    O13   1.301276 A    
C20   C24   1.580262 S    
C9    C10   1.540958 S    
N7    O18   1.302420 A    
O3    Zn1   1.976824 S    
C19   N5    1.474560 S    
C29   H17   1.112859 S    
N2    C30   1.488512 S    
C6    C14   1.536961 S    
H10   C27   1.112467 S    
C11   N10   1.457785 S    
C4    C8    1.396034 S    
C26   N9    1.469201 S    
N10   O23   1.300534 A    
C3    C22   1.449635 S    
N9    O22   1.300501 A    
C19   H19   1.107604 S    
C8    C16   1.182784 T    
C13   C14   1.559259 S    
C28   C30   1.577885 S    
C9    H3    1.110459 S    
C19   C23   1.529564 S    
N3    O9    1.300525 A    
O1    C1    1.283402 A    
Zn1   O7    1.973801 S    
C1    C21   1.460504 S    
C17   H4    1.105725 S    
Zn2   O8    1.976824 S    
C28   H13   1.111935 S    
N8    O19   1.301527 A    
H11   C29   1.108074 S    
O3    C2    1.282359 A    
C5    C12   1.540994 S    
O8    C4    1.282020 A    
C10   C15   1.427640 S    
C30   H15   1.112667 S    
C25   C26   1.579073 S    
Zn1   N2    2.004489 S    
Zn2   N1    2.005075 S    
C25   N1    1.483017 S    
C26   H9    1.114764 S    
C5    H1    1.110492 S    
C6    C10   1.524566 S    
O1    Zn1   2.012499 S    
O2    Zn2   2.013916 S    
C12   C16   1.427250 S    
C18   N4    1.476167 S    
N8    O20   1.301377 A    
N9    O21   1.301686 A    
O6    C3    1.281262 A    
O4    Zn2   1.973801 S    
C27   H16   1.111255 S    
C9    C11   1.537118 S    
O2    C1    1.281551 A    
C17   C18   1.530819 S    
O4    C2    1.282177 A    
C22   C24   1.573294 S    
C19   C21   1.579343 S    
C11   C13   1.537021 S    
C20   N7    1.487289 S    
N4    O11   1.301331 A    
Zn1   O5    2.013915 S    
C5    C9    1.559308 S    
Zn2   O6    2.012499 S    
C28   N1    1.489507 S    
C13   H20   1.110470 S    
N10   O24   1.300330 A    
N6    O16   1.302430 A    
C17   H21   1.112095 S    
