data_mof_unit_5808.cif
_audit_creation_date              2012-12-10T20:31:00-0500
_audit_creation_method            fapswitch 2.2
_symmetry_space_group_name_H-M    P1
_symmetry_Int_Tables_number       1
_space_group_crystal_system       triclinic
_cell_length_a                    14.942536
_cell_length_b                    10.670324
_cell_length_c                    9.864163
_cell_angle_alpha                 90.034361
_cell_angle_beta                  90.242922
_cell_angle_gamma                 89.931535
_cell_volume                      1572.74338604

loop_
_atom_site_label
_atom_site_type_symbol
_atom_type_description
_atom_site_fract_x
_atom_site_fract_y
_atom_site_fract_z
_atom_type_partial_charge
C1    C     C_R   0.502437 0.259939 0.500021 0.870226
C2    C     C_R   0.906872 0.582348 0.419008 0.005550
C3    C     C_R   0.956977 0.316996 0.655562 -0.176322
C4    C     C_R   0.049761 0.320310 0.657647 -0.248411
C5    C     C_R   0.095110 0.407893 0.578618 0.130941
C6    C     C_R   0.047430 0.493387 0.496284 0.103496
C7    C     C_R   0.093393 0.580056 0.413884 0.120448
C8    C     C_R   0.046303 0.665369 0.333402 -0.250540
C9    C     C_R   0.953513 0.667154 0.336544 -0.170150
C10   C     C_R   0.187669 0.411837 0.580577 -0.285007
C11   C     C_R   0.231977 0.497581 0.498577 -0.042340
C12   C     C_R   0.327079 0.499655 0.499681 0.894283
C13   C     C_R   0.185994 0.580298 0.414268 -0.258682
C14   C     C_R   0.517086 0.063890 0.623042 0.137874
C15   C     C_R   0.516400 0.128505 0.500517 -0.098014
C16   C     C_R   0.533262 0.064667 0.378949 -0.245638
C17   C     C_R   0.533327 0.935172 0.378928 -0.236774
C18   C     C_R   0.516883 0.871379 0.500556 -0.109987
C19   C     C_R   0.517420 0.936094 0.623077 0.121576
C20   C     C_3   0.454412 0.928847 0.740169 -0.468236
C21   C     C_3   0.454048 0.070895 0.740089 -0.494686
C22   C     C_R   0.421410 0.493317 0.070782 0.147323
C23   C     C_R   0.502722 0.740023 0.500011 0.882214
C24   C     C_R   0.576947 0.517774 0.072364 -0.128436
C25   C     C_R   0.576943 0.517794 0.928559 -0.144278
C26   C     C_R   0.421464 0.493026 0.928167 0.183697
C27   C     C_3   0.354373 0.389852 0.920972 -0.570011
C28   C     C_3   0.354479 0.389568 0.075557 0.003138
C29   C     C_R   0.673028 0.496682 0.500398 0.954632
C30   C     C_R   0.813905 0.586482 0.426301 0.431818
C31   C     C_R   0.768814 0.494675 0.501385 -0.250835
C32   C     C_R   0.814967 0.401059 0.574435 0.080704
C33   C     C_R   0.908322 0.403040 0.576169 0.089638
C34   C     C_R   0.954049 0.492836 0.497073 -0.068807
H1    H     H_    0.540234 0.886127 0.283340 0.182223
H2    H     H_    0.388643 0.887250 0.712206 0.202148
H3    H     H_    0.486689 0.887962 0.831798 0.206129
H4    H     H_    0.388066 0.111950 0.711994 0.196930
H5    H     H_    0.486164 0.112083 0.831681 0.202483
H6    H     H_    0.639343 0.530363 0.126452 0.183112
H7    H     H_    0.639320 0.530303 0.875204 0.154967
H8    H     H_    0.290409 0.421543 0.874249 0.209362
H9    H     H_    0.382491 0.302741 0.876511 0.194814
H10   H     H_    0.381588 0.302693 0.123004 0.162638
H11   H     H_    0.923709 0.247917 0.717905 0.175823
H12   H     H_    0.086046 0.254248 0.720763 0.144875
H13   H     H_    0.225447 0.347133 0.643588 0.140498
H14   H     H_    0.222482 0.646039 0.351389 0.144943
H15   H     H_    0.081239 0.731701 0.269508 0.146266
H16   H     H_    0.918553 0.735230 0.274414 0.187418
H17   H     H_    0.540121 0.113627 0.283378 0.173176
N1    N     N_R   0.499390 0.499140 0.142800 -0.125167
N2    N     N_R   0.499390 0.499180 0.857150 -0.101419
O1    O     O_R   0.500010 0.316790 0.614690 -0.617340
O2    O     O_R   0.500000 0.316760 0.385350 -0.633579
O3    O     O_R   0.367850 0.499990 0.614680 -0.623527
O4    O     O_R   0.367840 0.499950 0.385340 -0.601381
O5    O     O_R   0.500000 0.683240 0.614650 -0.618169
O6    O     O_R   0.499990 0.683210 0.385310 -0.613503
O7    O     O_R   0.632160 0.500050 0.614660 -0.655883
O8    O     O_R   0.632150 0.500010 0.385320 -0.589818
Zn1   Zn    Zn3+2 0.500010 0.500020 0.653130 0.933972
Zn2   Zn    Zn3+2 0.499990 0.499980 0.346870 0.960204
O9    O     O_3   0.766387 0.677045 0.355382 -0.606701
C35   C     C_3   0.754321 0.781791 0.440822 -0.335750
H18   H     H_    0.711556 0.758139 0.529219 0.158480
H19   H     H_    0.719866 0.856434 0.382362 0.202953
H20   H     H_    0.819435 0.820772 0.476228 0.158687
N3    N     N_2   0.270224 0.431231 0.133150 -0.261110
H21   H     H_    0.245046 0.513825 0.093899 0.228774
C36   C     C_3   0.203559 0.334387 0.149014 -0.756575
H22   H     H_    0.144088 0.373665 0.201209 0.244563
H23   H     H_    0.230621 0.256537 0.211819 0.240185
H24   H     H_    0.182588 0.297909 0.048223 0.230089
N4    N     N_2   0.768691 0.301482 0.640667 -0.313344
H25   H     H_    0.715341 0.327225 0.700153 0.252541
C37   C     C_3   0.750505 0.194331 0.555060 -0.797434
H26   H     H_    0.704454 0.220997 0.471161 0.235967
H27   H     H_    0.718825 0.119119 0.615981 0.236834
H28   H     H_    0.813760 0.157043 0.511931 0.249238

loop_
_geom_bond_atom_site_label_1
_geom_bond_atom_site_label_2
_ccdc_geom_bond_type
C24   N1    A    
C23   O5    A    
O5    Zn1   S    
C30   O9    S    
C28   N3    S    
C16   H17   S    
C1    O1    A    
C32   N4    S    
C7    C8    A    
C4    H12   S    
C37   H26   S    
C23   O6    A    
C26   C27   S    
C14   C21   S    
C25   N2    A    
C5    C6    A    
C3    C33   A    
C15   C16   A    
O7    Zn1   S    
C18   C19   A    
N3    C36   S    
C21   H4    S    
C19   C20   S    
C8    C9    A    
C35   H19   S    
O2    Zn2   S    
O4    Zn2   S    
C1    C15   S    
C2    C34   A    
C22   C28   S    
C17   C18   A    
C37   H27   S    
C29   O8    A    
C18   C23   S    
C24   C25   A    
C25   H7    S    
C36   H23   S    
C16   C17   A    
O1    Zn1   S    
C3    H11   S    
C6    C34   A    
N4    H25   S    
C13   H14   S    
N2    Zn1   S    
C31   C32   A    
C21   H5    S    
C29   O7    A    
C35   H20   S    
O8    Zn2   S    
C33   C34   A    
N4    C37   S    
C12   O3    A    
C12   O4    A    
O3    Zn1   S    
C3    C4    A    
C26   N2    A    
C10   H13   S    
C22   N1    A    
C37   H28   S    
C14   C19   A    
C9    H16   S    
C4    C5    A    
N1    Zn2   S    
C36   H24   S    
C11   C12   S    
C6    C7    A    
O6    Zn2   S    
C2    C30   A    
O9    C35   S    
C1    O2    A    
C5    C10   A    
C29   C31   S    
C32   C33   A    
C20   H3    S    
C11   C13   A    
C27   H8    S    
C30   C31   A    
C24   H6    S    
C28   H10   S    
N3    H21   S    
C10   C11   A    
C20   H2    S    
C27   H9    S    
C7    C13   A    
C36   H22   S    
C20   C21   S    
C35   H18   S    
C22   C26   A    
C27   C28   S    
C14   C15   A    
C17   H1    S    
C2    C9    A    
C8    H15   S    
