data_mof_unit_10556.cif
_audit_creation_date              2012-12-10T19:08:05-0500
_audit_creation_method            fapswitch 2.2
_symmetry_space_group_name_H-M    P1
_symmetry_Int_Tables_number       1
_space_group_crystal_system       triclinic
_cell_length_a                    9.066139
_cell_length_b                    10.79072
_cell_length_c                    9.588276
_cell_angle_alpha                 90.515204
_cell_angle_beta                  90.39061
_cell_angle_gamma                 90.913597
_cell_volume                      937.842755969

loop_
_atom_site_label
_atom_site_type_symbol
_atom_type_description
_atom_site_fract_x
_atom_site_fract_y
_atom_site_fract_z
_atom_type_partial_charge
C1    C     C_R   0.503064 0.262929 0.499362 0.768699
C2    C     C_R   0.627142 0.935384 0.428615 -0.028637
C3    C     C_R   0.513205 0.870581 0.499962 -0.149556
C4    C     C_R   0.398077 0.935772 0.559425 0.100640
C5    C     C_3   0.328698 0.932104 0.701436 -0.221568
C6    C     C_3   0.326422 0.073475 0.696959 -0.429281
C7    C     C_R   0.592074 0.578196 0.074928 0.236823
C8    C     C_R   0.398171 0.431117 0.070781 0.053720
C9    C     C_R   0.399860 0.432192 0.922277 -0.036544
C10   C     C_R   0.591892 0.578149 0.927940 0.255122
C11   C     C_3   0.756147 0.581688 0.922711 -0.449120
C12   C     C_R   0.220818 0.499907 0.499688 0.844437
C13   C     C_3   0.756680 0.581229 0.080791 -0.466364
C14   C     C_R   0.504880 0.737169 0.500579 0.773407
C15   C     C_R   0.779175 0.500275 0.500305 0.821530
C16   C     C_1   0.065580 0.500049 0.499548 -0.159263
C17   C     C_1   0.934384 0.500192 0.500368 -0.175821
C18   C     C_R   0.396690 0.062463 0.557134 0.090749
C19   C     C_R   0.510404 0.129791 0.496262 -0.161612
C20   C     C_R   0.621836 0.067057 0.421680 -0.058717
Cu1   Cu    Cu3+1 0.499990 0.499980 0.640670 0.955035
Cu2   Cu    Cu3+1 0.500010 0.500020 0.359330 0.942036
H1    H     H_    0.799224 0.669808 0.878297 0.215574
H2    H     H_    0.801240 0.668917 0.127037 0.204753
H3    H     H_    0.322769 0.375044 0.862489 0.180449
N1    N     N_R   0.500920 0.500930 0.147930 -0.230371
N2    N     N_R   0.500930 0.500890 0.852020 -0.217175
O1    O     O_R   0.500000 0.319640 0.618810 -0.567447
O2    O     O_R   0.500020 0.319680 0.381230 -0.619325
O3    O     O_R   0.288380 0.499980 0.618770 -0.582770
O4    O     O_R   0.288400 0.500020 0.381190 -0.595571
O5    O     O_R   0.499980 0.680320 0.618770 -0.568815
O6    O     O_R   0.500000 0.680360 0.381190 -0.586179
O7    O     O_R   0.711600 0.499980 0.618810 -0.575485
O8    O     O_R   0.711620 0.500020 0.381230 -0.589252
C21   C     C_2   0.732376 0.139911 0.341123 0.503641
H4    H     H_    0.771534 0.229441 0.379705 0.040740
O9    O     O_2   0.775840 0.102995 0.228127 -0.482988
H5    H     H_    0.803709 0.495254 0.124610 0.238502
C22   C     C_2   0.758250 0.866108 0.378788 0.420069
H6    H     H_    0.747848 0.770239 0.345859 0.063339
O10   O     O_2   0.881593 0.913196 0.381528 -0.518828
H7    H     H_    0.216580 0.888782 0.698740 0.140065
C23   C     C_2   0.426128 0.882366 0.815576 0.467916
H8    H     H_    0.381472 0.814296 0.887080 0.054207
O11   O     O_2   0.554300 0.917414 0.829028 -0.522024
H9    H     H_    0.213059 0.110691 0.689382 0.192127
H10   H     H_    0.398962 0.121620 0.775046 0.231510
C24   C     C_2   0.284670 0.350354 0.136429 0.389070
H11   H     H_    0.294269 0.318702 0.241659 0.140791
O12   O     O_2   0.175469 0.315780 0.070638 -0.561713
H12   H     H_    0.803062 0.496051 0.876865 0.229476

loop_
_geom_bond_atom_site_label_1
_geom_bond_atom_site_label_2
_ccdc_geom_bond_type
C10   N2    A    
C8    C9    A    
C7    C10   A    
C11   H12   S    
Cu2   O2    S    
C2    C22   S    
C1    O1    A    
C8    N1    A    
Cu1   O3    S    
C15   O7    A    
C22   O10   D    
C19   C20   A    
C4    C18   A    
C14   O6    A    
C1    O2    A    
C2    C3    A    
Cu1   N2    S    
C9    H3    S    
Cu1   Cu2   S    
Cu2   O8    S    
C11   C13   S    
C16   C17   T    
C3    C14   S    
C6    H10   S    
C21   O9    D    
C22   H6    S    
C5    C23   S    
C23   O11   D    
C18   C19   A    
C10   C11   S    
C12   O4    A    
C5    H7    S    
C5    C6    S    
C6    C18   S    
Cu1   O5    S    
C13   H5    S    
C1    C19   S    
Cu2   O4    S    
C2    C20   A    
C3    C4    A    
C20   C21   S    
C6    H9    S    
C7    C13   S    
C23   H8    S    
C9    N2    A    
C15   C17   S    
C24   H11   S    
Cu2   N1    S    
C11   H1    S    
C15   O8    A    
Cu2   O6    S    
C21   H4    S    
Cu1   O7    S    
C12   O3    A    
C7    N1    A    
C8    C24   S    
Cu1   O1    S    
C12   C16   S    
C13   H2    S    
C14   O5    A    
C4    C5    S    
C24   O12   D    
