data_mof_unit_56245.cif
_audit_creation_date              2012-12-11T14:40:22-0500
_audit_creation_method            fapswitch 2.2
_symmetry_space_group_name_H-M    P1
_symmetry_Int_Tables_number       1
_space_group_crystal_system       triclinic
_cell_length_a                    19.657387
_cell_length_b                    11.030612
_cell_length_c                    19.384145
_cell_angle_alpha                 89.693938
_cell_angle_beta                  97.558217
_cell_angle_gamma                 90.559759
_cell_volume                      4166.37086922

loop_
_atom_site_label
_atom_site_type_symbol
_atom_type_description
_atom_site_fract_x
_atom_site_fract_y
_atom_site_fract_z
_atom_type_partial_charge
C1    C     C_R   0.727760 0.943900 0.356481 0.538191
C2    C     C_3   0.266773 0.339125 0.557455 0.029642
C3    C     C_3   0.080145 0.473999 0.502384 -0.453776
C4    C     C_3   0.358025 0.724988 0.483121 -0.266963
C5    C     C_3   0.411227 0.716880 0.547958 -0.447999
C6    C     C_3   0.630997 0.896787 0.548115 -0.267660
C7    C     C_3   0.580145 0.973999 0.502383 -0.453775
C8    C     C_3   0.742023 0.182183 0.612799 -0.282874
C9    C     C_3   0.678968 0.198456 0.650286 -0.428965
C10   C     C_3   0.147063 0.216970 0.422110 -0.262586
C11   C     C_3   0.157050 0.165610 0.350846 -0.400505
C12   C     C_3   0.242022 0.682183 0.612799 -0.282874
C13   C     C_3   0.232097 0.829967 0.442725 0.027117
C14   C     C_3   0.178967 0.698455 0.650285 -0.428966
C15   C     C_3   0.647063 0.716970 0.422110 -0.262586
C16   C     C_3   0.657050 0.665610 0.350846 -0.400506
C17   C     C_3   0.567219 0.381423 0.951374 -0.264431
C18   C     C_3   0.592980 0.468970 0.010126 -0.426612
C19   C     C_3   0.433853 0.379615 0.047695 -0.265585
C20   C     C_3   0.408110 0.466394 0.988493 -0.425976
C21   C     C_3   0.067219 0.881425 0.951374 -0.264430
C22   C     C_3   0.092979 0.968972 0.010127 -0.426612
C23   C     C_3   0.933853 0.879613 0.047695 -0.265585
C24   C     C_3   0.766773 0.839125 0.557455 0.029643
C25   C     C_3   0.908110 0.966392 0.988493 -0.425975
C26   C     C_3   0.428164 0.963473 0.046015 -0.270560
C27   C     C_3   0.470008 0.867748 0.089580 -0.413250
C28   C     C_3   0.571879 0.965618 0.954809 -0.271465
C29   C     C_3   0.529841 0.868939 0.911706 -0.412848
C30   C     C_3   0.928166 0.463469 0.046012 -0.270557
C31   C     C_3   0.970011 0.367728 0.089563 -0.413269
C32   C     C_3   0.071881 0.465621 0.954807 -0.271469
C33   C     C_3   0.029843 0.368958 0.911690 -0.412834
C34   C     C_3   0.741159 0.462055 0.464639 -0.135684
C35   C     C_3   0.306161 0.438370 0.523759 -0.153750
C36   C     C_3   0.241159 0.962055 0.464639 -0.135684
C37   C     C_3   0.806161 0.938370 0.523759 -0.153750
C38   C     C_3   0.802169 0.425849 0.517866 -0.115156
C39   C     C_3   0.237178 0.481057 0.483678 -0.119372
C40   C     C_3   0.302169 0.925849 0.517866 -0.115156
C41   C     C_R   0.274479 0.952666 0.639535 0.528890
C42   C     C_3   0.737178 0.981057 0.483678 -0.119372
C43   C     C_3   0.793562 0.293006 0.497078 0.035501
C44   C     C_3   0.198332 0.380820 0.517308 0.041234
C45   C     C_3   0.293562 0.793006 0.497078 0.035501
C46   C     C_3   0.698332 0.880820 0.517308 0.041234
C47   C     C_3   0.743344 0.272084 0.551647 0.020528
C48   C     C_3   0.207830 0.293408 0.458300 0.051423
C49   C     C_3   0.243344 0.772084 0.551647 0.020528
C50   C     C_3   0.707830 0.793408 0.458300 0.051422
C51   C     C_3   0.752435 0.405064 0.571170 0.063231
C52   C     C_R   0.227760 0.443900 0.356481 0.538190
C53   C     C_3   0.247205 0.393813 0.424960 0.058383
C54   C     C_3   0.252435 0.905064 0.571171 0.063231
C55   C     C_3   0.747205 0.893813 0.424960 0.058382
C56   C     C_3   0.529824 0.271070 0.977541 0.022192
C57   C     C_3   0.470834 0.270218 0.021959 0.022670
C58   C     C_3   0.029825 0.771071 0.977541 0.022193
C59   C     C_3   0.970834 0.770217 0.021959 0.022669
C60   C     C_3   0.566879 0.171284 0.023678 -0.117869
C61   C     C_3   0.433544 0.169657 0.976270 -0.119370
C62   C     C_3   0.066880 0.671285 0.023678 -0.117867
C63   C     C_R   0.774479 0.452667 0.639535 0.528890
C64   C     C_3   0.933546 0.669655 0.976270 -0.119372
C65   C     C_3   0.506736 0.170821 0.068265 0.042805
C66   C     C_3   0.493671 0.170914 0.931642 0.040133
C67   C     C_3   0.006737 0.670820 0.068265 0.042803
C68   C     C_3   0.993672 0.670915 0.931641 0.040135
C69   C     C_R   0.533091 0.179981 0.336346 0.531659
C70   C     C_R   0.434456 0.184045 0.651832 0.539735
C71   C     C_R   0.033091 0.679981 0.336346 0.531660
C72   C     C_R   0.934456 0.684045 0.651832 0.539735
C73   C     C_3   0.470873 0.069734 0.023141 0.013411
C74   C     C_3   0.681396 0.307634 0.496529 -0.141782
C75   C     C_3   0.529336 0.070589 0.977213 0.013127
C76   C     C_3   0.970875 0.569732 0.023140 0.013411
C77   C     C_3   0.029339 0.570591 0.977212 0.013129
C78   C     C_1   0.764056 0.425671 0.904559 -0.021606
C79   C     C_1   0.235947 0.426584 0.095330 -0.020696
C80   C     C_1   0.264056 0.925671 0.904559 -0.021604
C81   C     C_1   0.735947 0.926584 0.095330 -0.020699
C82   C     C_1   0.751704 0.408620 0.035995 -0.070651
C83   C     C_1   0.248268 0.409153 0.963812 -0.070057
C84   C     C_1   0.251703 0.908619 0.035995 -0.070652
C85   C     C_3   0.276791 0.249987 0.498973 -0.143960
C86   C     C_1   0.748268 0.909154 0.963812 -0.070056
C87   C     C_1   0.757195 0.415539 0.964803 -0.070336
C88   C     C_1   0.242795 0.416475 0.035074 -0.069983
C89   C     C_1   0.257195 0.915538 0.964803 -0.070335
C90   C     C_1   0.742795 0.916475 0.035074 -0.069984
C91   C     C_1   0.745697 0.396206 0.096341 -0.030218
C92   C     C_1   0.254312 0.396435 0.903503 -0.030671
C93   C     C_1   0.245696 0.896206 0.096341 -0.030218
C94   C     C_1   0.754312 0.896436 0.903503 -0.030671
C95   C     C_R   0.724181 0.306261 0.367314 0.563610
C96   C     C_3   0.181396 0.807634 0.496529 -0.141783
C97   C     C_R   0.275022 0.309848 0.632059 0.540380
C98   C     C_R   0.224181 0.806261 0.367314 0.563610
C99   C     C_R   0.775022 0.809848 0.632059 0.540380
C100  C     C_R   0.721818 0.952930 0.163764 0.541991
C101  C     C_R   0.278186 0.952763 0.836146 0.542384
C102  C     C_R   0.221818 0.452930 0.163764 0.541992
C103  C     C_R   0.778186 0.452763 0.836146 0.542384
C104  C     C_R   0.528976 0.178577 0.141841 0.538321
C105  C     C_R   0.471174 0.178863 0.858076 0.546033
C106  C     C_R   0.028977 0.678577 0.141841 0.538320
C107  C     C_3   0.776791 0.749987 0.498973 -0.143960
C108  C     C_R   0.971174 0.678863 0.858075 0.546034
C109  C     C_R   0.736639 0.361029 0.165117 0.549541
C110  C     C_R   0.263406 0.361276 0.834848 0.549390
C111  C     C_R   0.236639 0.861029 0.165117 0.549541
C112  C     C_R   0.763406 0.861276 0.834848 0.549390
C113  C     C_1   0.448736 0.178998 0.581086 -0.034035
C114  C     C_1   0.498879 0.173768 0.397346 -0.028695
C115  C     C_1   0.948736 0.678998 0.581086 -0.034035
C116  C     C_1   0.998879 0.673768 0.397346 -0.028695
C117  C     C_1   0.477302 0.174723 0.452823 -0.073407
C118  C     C_3   0.732097 0.329967 0.442725 0.027117
C119  C     C_1   0.460150 0.176840 0.521438 -0.077397
C120  C     C_1   0.977302 0.674723 0.452823 -0.073407
C121  C     C_1   0.960150 0.676840 0.521438 -0.077397
C122  C     C_3   0.691074 0.441833 0.518858 -0.128787
C123  C     C_3   0.315959 0.351442 0.463817 -0.154168
C124  C     C_3   0.191075 0.941833 0.518858 -0.128787
C125  C     C_3   0.815959 0.851443 0.463818 -0.154167
C126  C     C_3   0.858025 0.224988 0.483121 -0.266963
C127  C     C_3   0.911227 0.216880 0.547957 -0.447999
C128  C     C_3   0.130997 0.396787 0.548115 -0.267660
Cr1   Cr    Cr6+3 0.765830 0.160660 0.268180 0.999758
Cr2   Cr    Cr6+3 0.384070 0.324050 0.751550 0.993834
Cr3   Cr    Cr6+3 0.115930 0.824050 0.248450 0.986774
Cr4   Cr    Cr6+3 0.884070 0.824050 0.751550 0.993834
Cr5   Cr    Cr6+3 0.234170 0.160660 0.731820 0.996512
Cr6   Cr    Cr6+3 0.265830 0.660660 0.268180 0.999757
Cr7   Cr    Cr6+3 0.734170 0.660660 0.731820 0.996513
Cr8   Cr    Cr6+3 0.612110 0.009150 0.248770 0.978505
Cr9   Cr    Cr6+3 0.387890 0.009150 0.751230 0.987688
Cr10  Cr    Cr6+3 0.112110 0.509150 0.248770 0.978506
Cr11  Cr    Cr6+3 0.887890 0.509150 0.751230 0.987686
Cr12  Cr    Cr6+3 0.615930 0.324050 0.248450 0.986774
H1    H     H_    0.631195 0.260810 0.484839 0.106140
H2    H     H_    0.347357 0.492512 0.553676 0.132446
H3    H     H_    0.098911 0.422347 0.002292 0.157231
H4    H     H_    0.245694 0.035735 0.427260 0.136947
H5    H     H_    0.847357 0.992512 0.553677 0.132446
H6    H     H_    0.352034 0.975047 0.527684 0.109741
H7    H     H_    0.718498 0.074171 0.473053 0.113191
H8    H     H_    0.852034 0.475047 0.527684 0.109742
H9    H     H_    0.218498 0.574171 0.473053 0.113191
H10   H     H_    0.622321 0.172061 0.044656 0.116998
H11   H     H_    0.378088 0.169052 0.955342 0.116440
H12   H     H_    0.122323 0.672064 0.044655 0.116998
H13   H     H_    0.298751 0.160654 0.511816 0.095753
H14   H     H_    0.878089 0.669049 0.955342 0.116440
H15   H     H_    0.932525 0.308206 0.562460 0.159311
H16   H     H_    0.888402 0.178542 0.592688 0.157138
H17   H     H_    0.954052 0.158063 0.537081 0.131394
H18   H     H_    0.844109 0.134206 0.461911 0.159770
H19   H     H_    0.882345 0.274871 0.442732 0.170979
H20   H     H_    0.095583 0.570132 0.509683 0.147195
H21   H     H_    0.077914 0.452630 0.446480 0.175351
H22   H     H_    0.028444 0.459896 0.518277 0.149085
H23   H     H_    0.107905 0.306097 0.555613 0.154249
H24   H     H_    0.131195 0.760810 0.484839 0.106139
H25   H     H_    0.141176 0.442342 0.599392 0.180323
H26   H     H_    0.432524 0.808207 0.562462 0.159312
H27   H     H_    0.388402 0.678540 0.592687 0.157138
H28   H     H_    0.454053 0.658065 0.537081 0.131394
H29   H     H_    0.344110 0.634206 0.461912 0.159770
H30   H     H_    0.382346 0.774871 0.442732 0.170978
H31   H     H_    0.595583 0.070133 0.509684 0.147195
H32   H     H_    0.577915 0.952632 0.446479 0.175352
H33   H     H_    0.528443 0.959894 0.518276 0.149085
H34   H     H_    0.607905 0.806097 0.555612 0.154248
H35   H     H_    0.798751 0.660654 0.511816 0.095753
H36   H     H_    0.641176 0.942342 0.599392 0.180323
H37   H     H_    0.678979 0.289473 0.674296 0.163498
H38   H     H_    0.631120 0.186642 0.613572 0.154086
H39   H     H_    0.679335 0.129362 0.692213 0.149547
H40   H     H_    0.741874 0.088251 0.595755 0.160706
H41   H     H_    0.788911 0.194541 0.650785 0.166753
H42   H     H_    0.127092 0.217272 0.308144 0.164778
H43   H     H_    0.211737 0.166217 0.342083 0.149994
H44   H     H_    0.135873 0.072418 0.346700 0.168721
H45   H     H_    0.135922 0.143146 0.457300 0.123666
H46   H     H_    0.649469 0.498945 0.533972 0.115670
H47   H     H_    0.099864 0.271527 0.414562 0.152079
H48   H     H_    0.178979 0.789471 0.674297 0.163497
H49   H     H_    0.131120 0.686644 0.613570 0.154086
H50   H     H_    0.179333 0.629360 0.692211 0.149546
H51   H     H_    0.241874 0.588251 0.595755 0.160706
H52   H     H_    0.288910 0.694541 0.650785 0.166753
H53   H     H_    0.627093 0.717273 0.308144 0.164779
H54   H     H_    0.711737 0.666216 0.342083 0.149995
H55   H     H_    0.635873 0.572418 0.346699 0.168721
H56   H     H_    0.635922 0.643146 0.457300 0.123666
H57   H     H_    0.363365 0.340806 0.439232 0.128623
H58   H     H_    0.599864 0.771527 0.414562 0.152079
H59   H     H_    0.551996 0.527007 0.024975 0.136081
H60   H     H_    0.614245 0.418103 0.057167 0.190558
H61   H     H_    0.632463 0.530696 0.993059 0.148831
H62   H     H_    0.611514 0.348392 0.926902 0.143828
H63   H     H_    0.532849 0.430977 0.911103 0.170725
H64   H     H_    0.449297 0.524324 0.972464 0.137338
H65   H     H_    0.385836 0.414771 0.942181 0.190882
H66   H     H_    0.369489 0.528181 0.005629 0.148202
H67   H     H_    0.389565 0.345581 0.072550 0.143058
H68   H     H_    0.149469 0.998945 0.533972 0.115670
H69   H     H_    0.468547 0.430054 0.087498 0.170019
H70   H     H_    0.051996 0.027008 0.024976 0.136080
H71   H     H_    0.114245 0.918105 0.057167 0.190558
H72   H     H_    0.132462 0.030698 0.993059 0.148830
H73   H     H_    0.111513 0.848396 0.926901 0.143828
H74   H     H_    0.032848 0.930979 0.911104 0.170724
H75   H     H_    0.949296 0.024322 0.972465 0.137338
H76   H     H_    0.885835 0.914769 0.942181 0.190882
H77   H     H_    0.869489 0.028178 0.005630 0.148203
H78   H     H_    0.889565 0.845577 0.072550 0.143058
H79   H     H_    0.863365 0.840806 0.439232 0.128623
H80   H     H_    0.968546 0.930051 0.087498 0.170020
H81   H     H_    0.516536 0.843014 0.066493 0.157829
H82   H     H_    0.484706 0.899786 0.143532 0.179222
H83   H     H_    0.438029 0.784718 0.092256 0.131698
H84   H     H_    0.388857 0.999597 0.076461 0.145200
H85   H     H_    0.401065 0.919664 0.998714 0.157110
H86   H     H_    0.483612 0.842097 0.935293 0.157326
H87   H     H_    0.514635 0.901217 0.857788 0.182072
H88   H     H_    0.561866 0.787173 0.908875 0.132605
H89   H     H_    0.611267 0.002922 0.924199 0.145205
H90   H     H_    0.745695 0.535734 0.427259 0.136947
H91   H     H_    0.598916 0.922356 0.002295 0.157229
H92   H     H_    0.016519 0.342961 0.066452 0.157802
H93   H     H_    0.984741 0.399766 0.143510 0.179246
H94   H     H_    0.938020 0.284717 0.092258 0.131707
H95   H     H_    0.888866 0.499590 0.076468 0.145202
H96   H     H_    0.901060 0.419674 0.998711 0.157110
H97   H     H_    0.983597 0.342142 0.935257 0.157348
H98   H     H_    0.014664 0.401237 0.857769 0.182054
H99   H     H_    0.061858 0.287173 0.908875 0.132596
H100  H     H_    0.111275 0.502928 0.924205 0.145203
O1    O     O_R   0.783230 0.287800 0.346510 -0.527973
O2    O     O_R   0.454570 0.285140 0.836900 -0.527128
O3    O     O_R   0.045430 0.785140 0.163100 -0.530053
O4    O     O_R   0.954570 0.785140 0.836900 -0.527129
O5    O     O_R   0.677850 0.374730 0.185500 -0.501460
O6    O     O_R   0.322150 0.374730 0.814500 -0.500207
O7    O     O_R   0.177850 0.874730 0.185500 -0.501460
O8    O     O_R   0.822150 0.874730 0.814500 -0.500207
O9    O     O_3   0.664630 0.164620 0.255130 -0.264644
O10   O     O_3   0.335370 0.164620 0.744870 -0.284730
O11   O     O_3   0.164630 0.664620 0.255130 -0.264644
O12   O     O_R   0.216770 0.287800 0.653490 -0.530903
O13   O     O_3   0.835370 0.664620 0.744870 -0.284730
O14   O     O_R   0.760130 0.037060 0.338610 -0.527919
O15   O     O_R   0.239870 0.037060 0.661390 -0.527013
O16   O     O_R   0.260130 0.537060 0.338610 -0.527919
O17   O     O_R   0.739870 0.537060 0.661390 -0.527013
O18   O     O_R   0.666620 0.921370 0.332440 -0.526765
O19   O     O_R   0.333380 0.921370 0.667560 -0.530772
O20   O     O_R   0.166620 0.421370 0.332440 -0.526765
O21   O     O_R   0.833380 0.421370 0.667560 -0.530771
O22   O     O_R   0.557170 0.082420 0.312350 -0.504506
O23   O     O_R   0.283230 0.787800 0.346510 -0.527973
O24   O     O_R   0.442830 0.082420 0.687650 -0.497237
O25   O     O_R   0.057170 0.582420 0.312350 -0.504505
O26   O     O_R   0.942830 0.582420 0.687650 -0.497238
O27   O     O_R   0.548310 0.285980 0.316250 -0.518569
O28   O     O_R   0.451690 0.285980 0.683750 -0.510692
O29   O     O_R   0.048310 0.785980 0.316250 -0.518569
O30   O     O_R   0.951690 0.785980 0.683750 -0.510692
O31   O     O_R   0.680520 0.375500 0.327470 -0.512080
O32   O     O_R   0.319480 0.375500 0.672530 -0.516279
O33   O     O_R   0.180520 0.875500 0.327470 -0.512080
O34   O     O_R   0.716770 0.787800 0.653490 -0.530902
O35   O     O_R   0.819480 0.875500 0.672530 -0.516279
O36   O     O_R   0.780350 0.286970 0.193350 -0.505108
O37   O     O_R   0.219650 0.286970 0.806650 -0.504599
O38   O     O_R   0.280350 0.786970 0.193350 -0.505108
O39   O     O_R   0.719650 0.786970 0.806650 -0.504599
O40   O     O_R   0.757460 0.036290 0.196640 -0.495805
O41   O     O_R   0.242540 0.036290 0.803360 -0.494130
O42   O     O_R   0.257460 0.536290 0.196640 -0.495806
O43   O     O_R   0.742540 0.536290 0.803360 -0.494129
O44   O     O_R   0.663740 0.920540 0.179290 -0.522151
O45   O     O_R   0.554500 0.081650 0.170370 -0.504693
O46   O     O_R   0.336260 0.920540 0.820710 -0.514678
O47   O     O_R   0.163740 0.420540 0.179290 -0.522150
O48   O     O_R   0.836260 0.420540 0.820710 -0.514679
O49   O     O_R   0.445500 0.081650 0.829630 -0.500380
O50   O     O_R   0.054500 0.581650 0.170370 -0.504697
O51   O     O_R   0.945500 0.581650 0.829630 -0.500378
O52   O     O_R   0.545430 0.285140 0.163100 -0.530054

loop_
_geom_bond_atom_site_label_1
_geom_bond_atom_site_label_2
_ccdc_geom_bond_type
C104  O52   A    
C72   O30   A    
C126  C127  S    
C62   C77   S    
C19   C20   S    
C106  O3    A    
Cr11  O51   S    
C12   C49   S    
C62   H12   S    
C29   H86   S    
C36   C124  S    
Cr3   O33   S    
C117  C119  S    
Cr4   O30   S    
C108  O51   A    
C82   C87   S    
C10   H45   S    
Cr5   O37   S    
C56   C57   S    
C37   C42   S    
C16   H53   S    
C107  H35   S    
C14   H49   S    
C22   H72   S    
C79   C102  S    
C30   H95   S    
C127  H17   S    
C126  H18   S    
C83   C88   S    
C21   C22   S    
C124  H68   S    
C73   C75   S    
C42   H7    S    
C12   H52   S    
C31   H94   S    
Cr1   O9    S    
C86   C90   S    
C6    H34   S    
C82   C91   T    
C42   C55   S    
C30   C76   S    
C8    H40   S    
C71   O29   A    
C100  O44   A    
C72   O26   A    
Cr12  O27   S    
C24   C107  S    
C70   O28   A    
Cr5   O12   S    
C38   H8    S    
C95   O1    A    
C81   C90   T    
C60   C65   S    
C26   H84   S    
C50   C107  S    
C9    H37   S    
C1    O14   A    
C1    O18   A    
C68   C77   S    
C47   C74   S    
C4    C5    S    
C127  H16   S    
C69   O27   A    
C97   O32   A    
C57   C61   S    
C6    C7    S    
C27   H83   S    
C24   C46   S    
C106  O50   A    
C36   H4    S    
C8    C47   S    
C38   C43   S    
C16   H55   S    
C13   C45   S    
C56   C66   S    
C22   H70   S    
Cr11  O48   S    
C85   C123  S    
C18   H61   S    
C84   C93   T    
Cr8   O44   S    
C105  O49   A    
C43   C118  S    
Cr9   O24   S    
C96   H24   S    
C41   O15   A    
Cr1   O36   S    
C28   C75   S    
C43   C47   S    
C44   C48   S    
C8    H41   S    
C34   C118  S    
Cr6   O23   S    
C115  C121  T    
Cr5   O15   S    
Cr9   O10   S    
C126  H19   S    
C23   C59   S    
C72   C115  S    
C4    H30   S    
C2    C85   S    
C64   C68   S    
C122  H46   S    
C61   C66   S    
C26   H85   S    
C52   O20   A    
C17   H63   S    
C33   H98   S    
C3    H22   S    
C59   C67   S    
Cr4   O4    S    
C2    C44   S    
C9    H39   S    
C110  O37   A    
C109  O5    A    
C34   C122  S    
C20   H65   S    
Cr8   O45   S    
C99   O34   A    
Cr3   O11   S    
C24   C37   S    
C4    C45   S    
Cr9   O19   S    
C70   C113  S    
C48   C53   S    
C74   C118  S    
C27   H81   S    
C13   C96   S    
C25   H75   S    
C107  C125  S    
C3    C128  S    
C38   C51   S    
Cr10  O47   S    
C116  C120  T    
C17   C18   S    
C60   H10   S    
C5    H26   S    
C61   H11   S    
C17   C56   S    
C74   H1    S    
C40   C54   S    
Cr11  O21   S    
C18   H60   S    
C128  H25   S    
C21   H73   S    
C66   C105  S    
C120  C121  S    
C123  H57   S    
C11   H44   S    
C39   C44   S    
Cr10  O25   S    
C39   H9    S    
Cr12  O31   S    
C40   H6    S    
C35   C123  S    
C1    C55   S    
C21   C58   S    
Cr2   O2    S    
C92   C110  S    
Cr9   O46   S    
C94   C112  S    
C71   C116  S    
C109  O36   A    
C16   H54   S    
C10   C11   S    
C35   H2    S    
C14   H50   S    
C111  O7    A    
C29   H87   S    
C29   H88   S    
C30   H96   S    
C7    H32   S    
C2    C35   S    
C58   C62   S    
C7    H31   S    
C25   H77   S    
C19   C57   S    
C31   H93   S    
C26   C27   S    
Cr6   O42   S    
Cr7   O39   S    
C28   C29   S    
C63   O17   A    
C30   C31   S    
C26   C73   S    
Cr1   O40   S    
C42   C46   S    
C5    H28   S    
C80   C89   T    
C41   O19   A    
C32   C77   S    
C113  C119  T    
C55   C125  S    
C2    C97   S    
Cr2   O28   S    
C11   H42   S    
Cr6   O11   S    
C79   C88   T    
Cr10  O20   S    
C40   C45   S    
Cr7   O17   S    
Cr8   O22   S    
Cr6   O38   S    
C51   C63   S    
C20   H64   S    
C127  H15   S    
C15   H58   S    
C99   O35   A    
Cr4   O8    S    
C47   C51   S    
C61   C73   S    
C58   C59   S    
Cr4   O35   S    
C56   C60   S    
C70   O24   A    
Cr12  O52   S    
C14   H48   S    
C45   C49   S    
C22   H71   S    
Cr7   O43   S    
Cr9   O49   S    
Cr3   O7    S    
Cr4   O13   S    
C93   C111  S    
C58   C68   S    
C74   C122  S    
C10   C48   S    
Cr8   O9    S    
C105  O2    A    
C12   H51   S    
C54   C124  S    
C23   H80   S    
C19   H69   S    
C57   C65   S    
C67   C106  S    
C95   O31   A    
C69   O22   A    
C81   C100  S    
C101  O41   A    
C60   C75   S    
C32   C33   S    
C52   O16   A    
Cr6   O16   S    
Cr10  O50   S    
C39   C53   S    
Cr1   O1    S    
C66   C75   S    
C101  O46   A    
C17   H62   S    
C103  O48   A    
C33   H97   S    
C3    H21   S    
C51   C122  S    
C28   H89   S    
C9    H38   S    
C15   C16   S    
C52   C53   S    
C24   C99   S    
C102  O42   A    
C35   C39   S    
C20   H66   S    
Cr2   O6    S    
C83   C92   T    
C59   C64   S    
C62   C67   S    
Cr11  O13   S    
C49   C54   S    
C64   H14   S    
C65   C73   S    
C15   C50   S    
C13   C98   S    
C32   H3    S    
C86   C94   T    
C98   O23   A    
C8    C9    S    
C104  O45   A    
C110  O6    A    
C5    H27   S    
C23   H78   S    
C71   O25   A    
C31   H92   S    
C19   H67   S    
C34   H90   S    
C63   O21   A    
C43   C126  S    
C103  O43   A    
C97   O12   A    
C37   C125  S    
Cr2   O10   S    
C95   C118  S    
C69   C114  S    
C4    H29   S    
C96   C124  S    
Cr12  O5    S    
C114  C117  T    
C111  O38   A    
C36   C40   S    
C11   H43   S    
C76   C77   S    
C13   C36   S    
Cr10  O11   S    
C53   C123  S    
C32   H100  S    
C128  H23   S    
C102  O47   A    
C33   H99   S    
C98   O33   A    
Cr2   O32   S    
Cr3   O29   S    
C108  O4    A    
C10   H47   S    
C64   C76   S    
C85   H13   S    
Cr7   O13   S    
C28   H91   S    
C125  H79   S    
Cr11  O26   S    
C12   C14   S    
Cr8   O18   S    
C3    H20   S    
C84   C89   S    
C15   H56   S    
C78   C87   T    
C112  O8    A    
C44   C128  S    
C27   H82   S    
C6    C46   S    
C78   C103  S    
C34   C38   S    
C48   C85   S    
C25   H76   S    
Cr12  O9    S    
C46   C50   S    
C50   C55   S    
C80   C101  S    
Cr7   O34   S    
C91   C109  S    
C112  O39   A    
Cr3   O3    S    
C6    H36   S    
Cr5   O41   S    
C7    H33   S    
C23   C25   S    
C49   C96   S    
C41   C54   S    
Cr1   O14   S    
C18   H59   S    
C21   H74   S    
C67   C76   S    
C68   C108  S    
C65   C104  S    
C37   H5    S    
Cr5   O10   S    
C100  O40   A    
