data_mof_unit_68318.cif
_audit_creation_date              2013-03-05T15:58:40-0500
_audit_creation_method            fapswitch 2.2
_symmetry_space_group_name_H-M    P1
_symmetry_Int_Tables_number       1
_space_group_crystal_system       triclinic
_cell_length_a                    8.332759
_cell_length_b                    12.999724
_cell_length_c                    15.077908
_cell_angle_alpha                 96.399666
_cell_angle_beta                  98.067226
_cell_angle_gamma                 98.621431
_cell_volume                      1584.14315431

loop_
_atom_site_label
_atom_site_type_symbol
_atom_site_description
_atom_site_fract_x
_atom_site_fract_y
_atom_site_fract_z
_atom_type_partial_charge
P1    P     P_3+3 0.998770 0.403620 0.291990 0.540843
O1    O     O_2   0.827930 0.435360 0.277760 -0.317746
O2    O     O_3   0.100310 0.439010 0.391180 -0.436129
O3    O     O_3   0.625610 0.634200 0.333270 -0.333899
O4    O     O_2   0.667565 0.535837 0.186390 -0.282917
O5    O     O_3   0.951938 0.266839 0.270340 -0.490216
O6    O     O_3   0.672796 0.730039 0.175734 -0.539801
C1    C     C_3   0.620357 0.871577 0.094253 -0.906666
H1    H     H_    0.535579 0.928637 0.082030 0.244658
H2    H     H_    0.747798 0.915309 0.114819 0.255687
P2    P     P_3+3 0.687370 0.751000 0.571300 0.484566
P3    P     P_3+3 0.105987 0.824997 0.382286 0.483669
O7    O     O_2   0.857120 0.766320 0.543890 -0.381273
O8    O     O_3   0.056570 0.691100 0.379020 -0.360722
O9    O     O_2   0.989999 0.875165 0.438804 -0.360978
O10   O     O_3   0.721447 0.790061 0.687782 -0.573544
O11   O     O_3   0.041713 0.850737 0.272721 -0.472450
C2    C     C_3   0.142732 0.811576 0.214084 0.264520
H3    H     H_    0.228618 0.762006 0.243974 0.059447
H4    H     H_    0.216291 0.878981 0.191260 0.118901
C3    C     C_3   0.035796 0.747007 0.131226 -0.654165
H5    H     H_    0.965446 0.675674 0.150395 0.263861
H6    H     H_    0.949519 0.794450 0.099356 0.279538
C4    C     C_3   0.240270 0.772118 0.643425 0.244592
H7    H     H_    0.349831 0.758577 0.613511 0.028040
H8    H     H_    0.128541 0.736890 0.595022 0.127795
C5    C     C_3   0.235976 0.888888 0.661444 -0.082797
H9    H     H_    0.362643 0.932244 0.670244 0.060654
H10   H     H_    0.166983 0.914523 0.601783 0.112213
Ba1   Ba    Ba6+2 0.843760 0.550230 0.455610 1.650008
C6    C     C_3   0.926450 0.225174 0.349636 0.310555
H11   H     H_    0.828928 0.259090 0.379585 0.106221
H12   H     H_    0.041203 0.240340 0.399438 0.118081
C7    C     C_3   0.873188 0.107472 0.324800 -0.783952
H13   H     H_    0.755196 0.092232 0.277729 0.309401
H14   H     H_    0.858361 0.069250 0.385827 0.228808
H15   H     H_    0.965854 0.073307 0.290079 0.238822
C8    C     C_3   0.770947 0.712180 0.736868 0.246976
H16   H     H_    0.904953 0.714910 0.738153 0.122054
H17   H     H_    0.705524 0.632567 0.706411 0.063690
C9    C     C_3   0.730900 0.733036 0.833884 0.000718
H18   H     H_    0.613604 0.681338 0.835681 0.120154
P4    P     P_3+3 0.190950 0.596470 0.708020 0.505146
O12   O     O_2   0.361790 0.564680 0.722290 -0.357992
O13   O     O_3   0.089410 0.561080 0.608830 -0.422243
O14   O     O_3   0.564100 0.365890 0.666740 -0.407909
O15   O     O_3   0.249014 0.731497 0.725615 -0.527507
P5    P     P_3+3 0.086678 0.171142 0.623069 0.506885
O16   O     O_3   0.601940 0.368260 0.453780 -0.383987
O17   O     O_3   0.133140 0.308990 0.620990 -0.299410
O18   O     O_2   0.196579 0.123232 0.561253 -0.441453
O19   O     O_3   0.161969 0.133003 0.728848 -0.605537
Ba2   Ba    Ba6+2 0.346080 0.449860 0.544400 1.615706
P6    P     P_3+3 0.571832 0.620874 0.216309 0.525935
C10   C     C_3   0.571013 0.807040 0.167816 0.963368
H19   H     H_    0.439191 0.772261 0.146910 -0.247768
H20   H     H_    0.613981 0.819148 0.030075 0.232209
O20   O     O_3   0.587770 0.631830 0.546230 -0.403149
C11   C     C_3   0.384754 0.251799 0.266475 0.250837
H21   H     H_    0.283582 0.272798 0.301843 0.084203
H22   H     H_    0.459955 0.324751 0.252794 0.122138
C12   C     C_3   0.307976 0.182669 0.178034 -0.111308
H23   H     H_    0.229348 0.111512 0.192426 0.119807
H24   H     H_    0.405801 0.156977 0.141984 0.173241
P7    P     P_3+3 0.510491 0.234697 0.431044 0.449833
O21   O     O_2   0.332600 0.233710 0.456170 -0.397125
O22   O     O_3   0.487092 0.194359 0.314887 -0.566393
H25   H     H_    0.114382 0.723371 0.081680 0.209218
C13   C     C_3   0.128016 0.188159 0.809548 0.975868
C14   C     C_3   0.158408 0.119613 0.885798 -0.757521
H26   H     H_    0.285775 0.103664 0.895443 0.239952
H27   H     H_    0.140459 0.160644 0.950724 0.276817
H28   H     H_    0.069625 0.045319 0.873329 0.274131
P8    P     P_3+3 0.620396 0.385553 0.783734 0.588923
C15   C     C_3   0.548512 0.183573 0.753927 0.521397
H29   H     H_    0.643928 0.191227 0.710604 0.104972
O23   O     O_2   0.515574 0.460523 0.825254 -0.306682
O24   O     O_3   0.568852 0.266668 0.825056 -0.459004
H30   H     H_    0.433231 0.181058 0.707552 0.121230
H31   H     H_    0.611425 0.092163 0.864175 0.320386
C16   C     C_3   0.549896 0.080830 0.792878 -0.908809
H32   H     H_    0.610115 0.026611 0.751447 0.218247
H33   H     H_    0.423227 0.045443 0.793419 0.257647
C17   C     C_R   0.354471 0.563354 0.169669 0.149556
H34   H     H_    0.319041 0.524228 0.300495 0.170791
H35   H     H_    0.503946 0.635126 0.034424 0.178994
C18   C     C_R   0.102798 0.466211 0.203691 0.201114
C19   C     C_R   0.920862 0.496807 0.766837 -0.467501
C20   C     C_R   0.833353 0.443574 0.823201 0.318437
C21   C     C_R   0.909727 0.429018 0.907590 -0.056491
C22   C     C_R   0.059107 0.492012 0.949169 0.074642
C23   C     C_R   0.150621 0.547799 0.890571 0.059941
C24   C     C_R   0.120971 0.500381 0.045229 -0.023054
C25   C     C_R   0.285712 0.553783 0.076601 0.023741
C26   C     C_R   0.377425 0.598569 0.014661 -0.096584
C27   C     C_R   0.308014 0.601320 0.925789 -0.033787
C28   C     C_R   0.027374 0.459290 0.111633 0.224066
C29   C     C_R   0.262750 0.519337 0.230603 -0.489754
C30   C     C_R   0.082330 0.544170 0.796942 0.298422
H36   H     H_    0.864000 0.497758 0.697912 0.150521
H37   H     H_    0.849635 0.366515 0.937899 0.219710
H38   H     H_    0.379678 0.645452 0.884549 0.140234
C31   C     C_R   0.766082 0.177794 0.540405 -0.492846
C32   C     C_R   0.425223 0.809742 0.463248 -0.461253
C33   C     C_R   0.384961 0.983537 0.432886 0.061375
C34   C     C_R   0.324330 0.876818 0.429131 0.083570
C35   C     C_R   0.582712 0.848149 0.511417 0.350448
C36   C     C_R   0.645648 0.959221 0.520837 -0.083266
C37   C     C_R   0.545185 0.028174 0.481083 -0.011433
C38   C     C_R   0.609927 0.138602 0.491395 0.245677
C39   C     C_R   0.868519 0.111660 0.574364 0.270096
C40   C     C_R   0.807863 0.003111 0.564977 -0.192007
H39   H     H_    0.890706 0.953326 0.588481 0.218732
H40   H     H_    0.813437 0.260975 0.546704 0.175083
H41   H     H_    0.376056 0.726874 0.457045 0.156691
N1    N     N_R   0.590819 0.876225 0.253095 0.197364
O25   O     O_R   0.510558 0.954369 0.258397 -0.516491
O26   O     O_R   0.693194 0.863608 0.322823 -0.341713
N2    N     N_R   0.159662 0.912277 0.741525 0.284589
O27   O     O_R   0.008211 0.927179 0.732065 -0.424291
O28   O     O_R   0.232851 0.902220 0.821541 -0.364993
N3    N     N_3   0.708890 0.841533 0.859913 -0.183127
H42   H     H_    0.809082 0.893725 0.847756 0.217863
H43   H     H_    0.602105 0.855819 0.821240 0.160287
N4    N     N_R   0.857253 0.706664 0.900255 0.212638
O29   O     O_R   0.814170 0.645379 0.958266 -0.417122
O30   O     O_R   0.006991 0.757794 0.911946 -0.402841
N5    N     N_R   0.209833 0.240007 0.120863 0.219388
O31   O     O_R   0.052360 0.208185 0.098021 -0.344061
O32   O     O_R   0.282179 0.317766 0.086098 -0.379408
N6    N     N_R   0.237923 0.289504 0.834607 0.212744
O33   O     O_R   0.224076 0.362643 0.784067 -0.351847
O34   O     O_R   0.327791 0.314833 0.914167 -0.314085
N7    N     N_R   0.958396 0.206051 0.800817 0.174954
O35   O     O_R   0.910065 0.266690 0.743626 -0.505542
O36   O     O_R   0.875656 0.190347 0.866363 -0.449222
N8    N     N_R   0.854653 0.418318 0.088918 0.242475
O37   O     O_R   0.797580 0.323335 0.101799 -0.285040
O38   O     O_R   0.755447 0.472017 0.047048 -0.336433
N9    N     N_3   0.283904 0.043907 0.383141 -0.144671
H44   H     H_    0.171208 0.040777 0.406017 0.164637
H45   H     H_    0.263187 0.013879 0.314833 0.148564

loop_
_geom_bond_atom_site_label_1
_geom_bond_atom_site_label_2
_geom_bond_distance
_ccdc_geom_bond_type
P1    C18   1.881475 S    
C12   N5    1.447621 S    
C10   H19   1.110178 S    
C24   C25   1.431410 A    
Ba2   O20   2.862539 S    
C27   H38   1.073966 S    
C5    H10   1.109009 S    
C2    C3    1.512922 S    
P2    O7    1.519608 D    
C9    H18   1.105562 S    
Ba1   O13   2.839118 S    
C39   C40   1.410058 A    
C4    C5    1.518691 S    
O6    C10   1.410080 S    
P4    O12   1.534230 D    
N5    O31   1.300082 A    
P6    C17   1.858334 S    
C16   H32   1.111159 S    
N1    O25   1.298548 A    
N8    O38   1.301541 A    
C13   N7    1.456814 S    
O16   P7    1.763572 S    
C31   C38   1.395074 A    
P8    C20   1.809484 S    
C8    H17   1.110770 S    
P4    C30   1.854293 S    
P1    O1    1.533930 D    
C8    H16   1.109236 S    
C10   N1    1.458638 S    
C7    H15   1.109963 S    
C23   C27   1.390945 A    
C36   C37   1.437868 A    
C31   C39   1.387586 A    
C7    H13   1.106369 S    
C12   H24   1.112196 S    
H34   C29   1.082577 S    
C11   O22   1.398313 S    
O12   Ba2   2.896497 S    
P4    Ba2   3.460524 S    
P5    O18   1.541580 D    
C26   C27   1.389529 A    
P2    Ba1   3.492235 S    
C1    H1    1.110977 S    
P7    O22   1.746196 S    
P8    O23   1.541869 D    
P3    O11   1.748318 S    
C35   C36   1.444450 A    
C6    H12   1.107258 S    
C14   H26   1.104500 S    
O19   C13   1.427463 S    
P2    O20   1.620978 S    
C2    H4    1.107870 S    
C18   C29   1.388461 A    
P5    O17   1.780457 S    
O5    C6    1.396103 S    
O13   Ba2   2.967430 S    
C11   H21   1.110118 S    
C3    H5    1.109689 S    
C13   C14   1.547343 S    
O8    Ba1   2.811465 S    
C1    C10   1.528133 S    
C28   N8    1.436513 S    
C40   H39   1.066493 S    
C16   H33   1.087865 S    
N2    O28   1.302744 A    
Ba1   Ba2   4.584557 S    
C11   H22   1.111906 S    
O17   Ba2   2.812104 S    
P1    O5    1.745670 S    
C9    N4    1.454827 S    
O7    Ba1   2.950652 S    
C31   H40   1.082894 S    
N9    H44   1.041671 S    
C8    C9    1.549310 S    
C22   C23   1.433259 A    
C2    H3    1.114901 S    
N7    O36   1.299154 A    
C36   C40   1.423794 A    
P1    O2    1.593441 S    
C9    N3    1.466730 S    
O2    Ba1   2.966594 S    
C15   H29   1.097852 S    
C21   H37   1.069955 S    
C12   H23   1.111287 S    
C1    H20   1.109693 S    
C22   C24   1.453928 A    
C32   H41   1.082384 S    
P2    O10   1.743871 S    
O4    P6    1.521877 D    
C6    H11   1.106667 S    
P3    O9    1.543343 D    
C13   N6    1.465390 S    
C14   H28   1.105308 S    
O11   C2    1.409400 S    
C6    C7    1.516706 S    
C17   C25   1.423722 A    
C4    H7    1.101784 S    
Ba2   O21   2.950931 S    
P4    O13   1.593442 S    
C19   H36   1.082174 S    
Ba1   O16   2.863167 S    
P3    O8    1.721064 S    
C3    H6    1.109136 S    
C3    H25   1.108036 S    
P2    C35   1.879929 S    
N4    O29   1.298617 A    
N3    H43   1.046107 S    
N6    O33   1.291414 A    
C24   C28   1.452428 A    
O14   P8    1.740239 S    
N8    O37   1.300704 A    
C33   C37   1.431342 A    
C11   C12   1.521906 S    
O3    P6    1.740017 S    
C4    O15   1.397134 S    
C15   C16   1.518742 S    
C4    H8    1.102766 S    
H31   C16   1.107953 S    
N6    O34   1.301580 A    
N5    O32   1.297730 A    
N2    O27   1.295938 A    
C32   C34   1.389294 A    
N9    H45   1.040779 S    
C5    N2    1.465068 S    
C33   C34   1.395512 A    
N7    O35   1.294768 A    
O1    Ba1   2.896080 S    
C17   C29   1.392424 A    
C20   C21   1.386488 A    
C37   C38   1.438920 A    
C33   N9    1.428162 S    
P3    C34   1.851669 S    
O2    Ba2   2.839719 S    
C21   C22   1.404970 A    
P4    O15   1.729496 S    
O16   Ba2   2.951315 S    
Ba1   O20   2.952227 S    
O14   Ba2   2.827989 S    
P1    Ba1   3.459970 S    
N1    O26   1.299476 A    
C7    H14   1.106475 S    
C25   C26   1.408319 A    
C15   O24   1.407711 S    
P7    C38   1.851277 S    
C19   C30   1.383237 A    
H35   C26   1.075252 S    
P5    O19   1.780974 S    
P5    C39   1.875937 S    
C19   C20   1.373533 A    
C1    H2    1.111005 S    
P7    O21   1.579228 D    
P8    O24   1.746974 S    
C5    H9    1.102265 S    
N4    O30   1.301232 A    
C14   H27   1.101745 S    
O6    P6    1.753857 S    
N3    H42   1.044894 S    
C15   H30   1.099883 S    
C32   C35   1.397913 A    
O3    Ba1   2.828647 S    
C23   C30   1.438977 A    
O10   C8    1.396246 S    
C18   C28   1.428331 A    
