data_mof_unit_54597.cif
_audit_creation_date              2012-10-26T18:59:36-0400
_audit_creation_method            fapswitch 2.2
_symmetry_space_group_name_H-M    P1
_symmetry_Int_Tables_number       1
_space_group_crystal_system       triclinic
_cell_length_a                    23.521321
_cell_length_b                    10.822865
_cell_length_c                    9.528519
_cell_angle_alpha                 90.03918
_cell_angle_beta                  89.911526
_cell_angle_gamma                 90.178951
_cell_volume                      2425.64152219

loop_
_atom_site_label
_atom_site_type_symbol
_atom_type_description
_atom_site_fract_x
_atom_site_fract_y
_atom_site_fract_z
_atom_type_partial_charge
C1    C     C_R   0.501403 0.262214 0.499781 0.573422
C2    C     C_R   0.119710 0.606572 0.479382 0.385950
C3    C     C_R   0.238672 0.484042 0.627783 0.313875
C4    C     C_R   0.390905 0.499783 0.500150 0.547273
C5    C     C_R   0.298217 0.483136 0.626737 -0.133510
C6    C     C_R   0.328309 0.499619 0.500554 -0.036738
C7    C     C_R   0.298102 0.515544 0.374829 -0.159254
C8    C     C_R   0.238872 0.514939 0.375274 -0.106144
C9    C     C_R   0.209000 0.498272 0.501014 0.249689
C10   C     C_R   0.761776 0.505007 0.374945 -0.115331
C11   C     C_R   0.702516 0.505062 0.374001 -0.155773
C12   C     C_R   0.970214 0.275928 0.544320 -0.116290
C13   C     C_R   0.671863 0.497979 0.500473 -0.053130
C14   C     C_R   0.701766 0.489043 0.627753 -0.120612
C15   C     C_R   0.761056 0.488736 0.628603 0.438626
C16   C     C_R   0.501055 0.737656 0.500038 0.557561
C17   C     C_R   0.791199 0.496999 0.502080 0.249003
C18   C     C_R   0.504536 0.063567 0.625353 -0.041186
C19   C     C_R   0.507522 0.129049 0.499351 0.011590
C20   C     C_R   0.518823 0.063483 0.374277 0.348897
C21   C     C_R   0.518383 0.934662 0.375190 -0.124352
C22   C     C_R   0.506871 0.870551 0.500227 -0.052955
C23   C     C_R   0.029533 0.276009 0.543529 -0.120320
C24   C     C_R   0.504048 0.936550 0.625677 0.032701
C25   C     C_3   0.461666 0.930268 0.742251 -0.232636
C26   C     C_3   0.462284 0.070609 0.742329 -0.270957
C27   C     C_R   0.521726 0.598382 0.073584 0.116870
C28   C     C_R   0.609156 0.499457 0.499977 0.556490
C29   C     C_R   0.472853 0.409946 0.074517 0.017097
C30   C     C_R   0.472728 0.410123 0.925530 -0.017653
C31   C     C_R   0.522034 0.597916 0.926085 0.210579
C32   C     C_3   0.581652 0.644393 0.919790 0.128250
C33   C     C_3   0.581075 0.646764 0.079533 -0.240761
C34   C     C_R   0.059898 0.386376 0.521913 0.023354
C35   C     C_R   0.880599 0.606003 0.480736 0.419550
C36   C     C_R   0.880404 0.388373 0.523374 0.448031
C37   C     C_R   0.940037 0.386190 0.523343 0.028852
C38   C     C_R   0.970066 0.497371 0.501382 -0.027569
C39   C     C_R   0.940234 0.608434 0.479908 0.031887
C40   C     C_3   0.640853 0.798568 0.839138 -0.007612
C41   C     C_3   0.643017 0.927683 0.776436 -0.338288
C42   C     C_3   0.208429 0.573355 0.830103 -0.015084
C43   C     C_3   0.171233 0.554538 0.959079 -0.352494
C44   C     C_R   0.030066 0.497479 0.500812 -0.029063
C45   C     C_R   0.060089 0.608681 0.479068 0.028113
C46   C     C_R   0.029918 0.718935 0.458001 -0.121967
C47   C     C_R   0.970601 0.718802 0.458338 -0.117582
C48   C     C_R   0.119528 0.388745 0.520664 0.438801
Cu1   Cu    Cu3+1 0.500000 0.499980 0.640670 0.964060
Cu2   Cu    Cu3+1 0.500000 0.500020 0.359330 0.984179
F1    F     F_    0.789237 0.480996 0.752412 -0.604781
F2    F     F_    0.527385 0.122431 0.250246 -0.629616
H1    H     H_    0.948126 0.189247 0.561317 0.171780
H2    H     H_    0.051472 0.189390 0.559977 0.169549
H3    H     H_    0.451350 0.336502 0.869729 0.119896
H4    H     H_    0.611064 0.575168 0.873164 0.113423
H5    H     H_    0.611094 0.579502 0.125734 0.114637
H6    H     H_    0.583121 0.741162 0.125285 0.145750
H7    H     H_    0.052008 0.805636 0.441147 0.169988
H8    H     H_    0.948665 0.805397 0.441707 0.171645
H9    H     H_    0.320660 0.468775 0.724534 0.133505
H10   H     H_    0.320184 0.528604 0.276101 0.141559
H11   H     H_    0.216036 0.527035 0.277736 0.124827
H12   H     H_    0.680908 0.510514 0.274316 0.143690
H13   H     H_    0.784928 0.510824 0.276838 0.153920
H14   H     H_    0.662444 0.734371 0.764933 0.143738
H15   H     H_    0.664198 0.799954 0.940766 0.145257
H16   H     H_    0.619407 0.993409 0.844362 0.179009
H17   H     H_    0.687895 0.958878 0.767538 0.133755
H18   H     H_    0.623803 0.927085 0.670108 0.161018
H19   H     H_    0.190408 0.651239 0.767993 0.161996
H20   H     H_    0.252056 0.598156 0.865860 0.121225
H21   H     H_    0.187927 0.477117 0.023228 0.163575
H22   H     H_    0.171037 0.639952 0.023734 0.114975
H23   H     H_    0.679450 0.481735 0.726688 0.135464
H24   H     H_    0.126976 0.532770 0.926651 0.176020
H25   H     H_    0.524436 0.885859 0.277084 0.156001
H26   H     H_    0.420319 0.889957 0.708624 0.135036
H27   H     H_    0.479933 0.889682 0.839286 0.189049
H28   H     H_    0.421231 0.112119 0.709314 0.138808
H29   H     H_    0.481120 0.110458 0.839307 0.162663
H30   H     H_    0.451753 0.335867 0.130337 0.154324
N1    N     N_R   0.852107 0.497142 0.502314 -0.374447
N2    N     N_R   0.148040 0.497768 0.500095 -0.384044
N3    N     N_R   0.500360 0.500930 0.147930 -0.240083
N4    N     N_R   0.500360 0.500890 0.852020 -0.258860
O1    O     O_R   0.500000 0.319640 0.618810 -0.519534
O2    O     O_R   0.582120 0.500020 0.618760 -0.506343
O3    O     O_R   0.582120 0.500060 0.381180 -0.495124
O4    O     O_2   0.851254 0.711475 0.460813 -0.482382
O5    O     O_3   0.583607 0.763517 0.859604 -0.556133
O6    O     O_3   0.209124 0.463116 0.750976 -0.528910
O7    O     O_2   0.850869 0.282752 0.543502 -0.458800
O8    O     O_2   0.148848 0.283052 0.539242 -0.463062
O9    O     O_2   0.149202 0.712382 0.460150 -0.506488
O10   O     O_R   0.500010 0.319680 0.381230 -0.436671
O11   O     O_R   0.417880 0.499940 0.618820 -0.511994
O12   O     O_R   0.417880 0.499980 0.381240 -0.506292
O13   O     O_R   0.499990 0.680320 0.618770 -0.464283
O14   O     O_R   0.500000 0.680360 0.381190 -0.515674

loop_
_geom_bond_atom_site_label_1
_geom_bond_atom_site_label_2
_ccdc_geom_bond_type
C43   H21   S    
C1    O1    A    
C33   H6    S    
C4    O12   A    
C46   H7    S    
Cu1   O1    S    
C2    N2    A    
C19   C20   A    
C18   C26   S    
C7    C8    A    
C45   C46   A    
C27   C33   S    
C12   C23   A    
C37   C38   A    
C48   O8    S    
C18   C24   A    
C39   C47   A    
C36   C37   A    
C38   C39   A    
C32   O5    S    
C36   N1    A    
C18   C19   A    
C12   C37   A    
C27   N3    A    
Cu2   N3    S    
C47   H8    S    
C36   O7    S    
C8    C9    A    
C40   H15   S    
C28   O2    A    
C16   C22   S    
C13   C28   S    
C28   O3    A    
C15   F1    S    
C30   N4    A    
C29   N3    A    
C12   H1    S    
C43   H22   S    
C31   N4    A    
C40   H14   S    
C4    O11   A    
Cu1   O2    S    
C41   H16   S    
C2    C45   A    
C1    C19   S    
Cu2   O12   S    
C27   C31   A    
C25   H26   S    
C34   C44   A    
C24   C25   S    
C4    C6    S    
C11   H12   S    
C35   N1    A    
C16   O14   A    
C8    H11   S    
C25   C26   S    
C26   H28   S    
C48   N2    A    
C3    O6    S    
C17   N1    S    
C35   C39   A    
C7    H10   S    
C38   C44   A    
C29   C30   A    
C3    C9    A    
Cu1   O13   S    
Cu2   O3    S    
C31   C32   S    
C23   C34   A    
C42   H20   S    
C5    H9    S    
C40   C41   S    
C26   H29   S    
C13   C14   A    
C22   C24   A    
C34   C48   A    
C42   C43   S    
C44   C45   A    
C23   H2    S    
C41   H17   S    
C10   H13   S    
C43   H24   S    
C15   C17   A    
C46   C47   A    
C2    O9    S    
C33   H5    S    
C25   H27   S    
Cu1   N4    S    
C3    C5    A    
C16   O13   A    
C6    C7    A    
C30   H3    S    
Cu2   O14   S    
C14   H23   S    
C29   H30   S    
C20   F2    S    
C32   C33   S    
C11   C13   A    
Cu2   O10   S    
C5    C6    A    
C1    O10   A    
C42   H19   S    
C42   O6    S    
C40   O5    S    
C10   C11   A    
C9    N2    S    
Cu1   O11   S    
C35   O4    S    
C20   C21   A    
Cu1   Cu2   S    
C21   H25   S    
C14   C15   A    
C10   C17   A    
C21   C22   A    
C32   H4    S    
C41   H18   S    
