data_mof_unit_65595.cif
_audit_creation_date              2013-03-05T16:04:04-0500
_audit_creation_method            fapswitch 2.2
_symmetry_space_group_name_H-M    P1
_symmetry_Int_Tables_number       1
_space_group_crystal_system       triclinic
_cell_length_a                    30.927263
_cell_length_b                    30.094157
_cell_length_c                    24.945295
_cell_angle_alpha                 90.113828
_cell_angle_beta                  129.145538
_cell_angle_gamma                 89.990271
_cell_volume                      18006.0305845

loop_
_atom_site_label
_atom_site_type_symbol
_atom_site_description
_atom_site_fract_x
_atom_site_fract_y
_atom_site_fract_z
_atom_type_partial_charge
O1    O     O_R   0.822450 0.770150 0.500010 -0.628529
O2    O     O_R   0.177550 0.770150 0.499990 -0.618631
O3    O     O_R   0.322450 0.270150 0.500010 -0.620367
O4    O     O_R   0.677550 0.270150 0.499990 -0.608989
O5    O     O_R   0.770150 0.822430 0.500030 -0.621420
O6    O     O_R   0.229850 0.822430 0.499970 -0.621524
O7    O     O_R   0.270150 0.322430 0.500030 -0.624531
O8    O     O_R   0.729850 0.322430 0.499970 -0.625200
C1    C     C_R   0.810769 0.810891 0.501417 0.917679
C2    C     C_R   0.189198 0.810887 0.498512 0.924796
C3    C     C_R   0.311723 0.310806 0.503076 0.912718
C4    C     C_R   0.688223 0.310794 0.496806 0.919722
O9    O     O_R   0.725220 0.723850 0.398140 -0.554620
O10   O     O_R   0.274780 0.723850 0.601860 -0.544472
O11   O     O_R   0.225220 0.223850 0.398140 -0.554881
O12   O     O_R   0.774780 0.223850 0.601860 -0.544590
O13   O     O_R   0.672910 0.776140 0.398150 -0.636432
O14   O     O_R   0.327090 0.776140 0.601850 -0.641925
O15   O     O_R   0.172910 0.276140 0.398150 -0.634455
O16   O     O_R   0.827090 0.276140 0.601850 -0.639859
C5    C     C_R   0.682729 0.750131 0.365296 0.905913
C6    C     C_R   0.316423 0.751127 0.634499 0.919972
C7    C     C_R   0.182727 0.250133 0.365295 0.905022
C8    C     C_R   0.816404 0.251142 0.634496 0.919447
Zn1   Zn    Zn3+2 0.784920 0.715080 0.500000 1.159936
Zn2   Zn    Zn3+2 0.215080 0.715080 0.500000 1.167204
Zn3   Zn    Zn3+2 0.284920 0.215080 0.500000 1.170486
Zn4   Zn    Zn3+2 0.715080 0.215080 0.500000 1.178615
Zn5   Zn    Zn3+2 0.715070 0.784900 0.500020 1.118068
Zn6   Zn    Zn3+2 0.284930 0.784900 0.499980 1.118409
Zn7   Zn    Zn3+2 0.215070 0.284900 0.500020 1.117612
Zn8   Zn    Zn3+2 0.784930 0.284900 0.499980 1.117721
O17   O     O_R   0.729840 0.677550 0.499990 -0.558835
O18   O     O_R   0.270160 0.677550 0.500010 -0.560312
O19   O     O_R   0.229840 0.177550 0.499990 -0.556352
O20   O     O_R   0.770160 0.177550 0.500010 -0.558240
O21   O     O_R   0.677530 0.729830 0.500000 -0.603195
O22   O     O_R   0.322470 0.729830 0.500000 -0.604971
O23   O     O_R   0.177530 0.229830 0.500000 -0.602599
O24   O     O_R   0.822470 0.229830 0.500000 -0.604358
O25   O     O_R   0.827070 0.723850 0.601870 -0.607146
O26   O     O_R   0.172930 0.723850 0.398130 -0.609068
O27   O     O_R   0.327070 0.223850 0.601870 -0.601669
O28   O     O_R   0.672930 0.223850 0.398130 -0.603350
O29   O     O_R   0.774770 0.776130 0.601880 -0.551275
O30   O     O_R   0.225230 0.776130 0.398120 -0.551186
O31   O     O_R   0.274770 0.276130 0.601880 -0.555451
O32   O     O_R   0.725230 0.276130 0.398120 -0.555695
C9    C     C_R   0.690359 0.688794 0.500708 0.984363
C10   C     C_R   0.309691 0.688798 0.499406 0.983782
C11   C     C_R   0.190494 0.188789 0.501024 0.985092
C12   C     C_R   0.809561 0.188791 0.499102 0.984446
C13   C     C_R   0.817707 0.750104 0.634871 0.971819
C14   C     C_R   0.182251 0.750058 0.365136 0.969508
C15   C     C_R   0.317665 0.250059 0.634873 0.964098
C16   C     C_R   0.682291 0.250014 0.365133 0.961941
C17   C     C_R   0.607183 0.785986 0.254936 -0.187408
C18   C     C_R   0.406315 0.770979 0.746287 -0.164777
C19   C     C_R   0.107147 0.285995 0.254960 -0.186254
C20   C     C_R   0.906195 0.271136 0.746298 -0.164038
H1    H     H_    0.605030 0.811883 0.283393 0.189426
H2    H     H_    0.421225 0.782135 0.719253 0.187089
H3    H     H_    0.104993 0.311873 0.283441 0.190887
H4    H     H_    0.921112 0.282333 0.719290 0.187417
C21   C     C_R   0.571635 0.788553 0.183500 -0.117034
C22   C     C_R   0.442067 0.773504 0.817713 -0.118999
C23   C     C_R   0.071562 0.288572 0.183524 -0.116941
C24   C     C_R   0.941908 0.273688 0.817718 -0.118069
H5    H     H_    0.543180 0.816397 0.158475 0.175035
H6    H     H_    0.483464 0.787125 0.844233 0.175170
H7    H     H_    0.043083 0.316403 0.158527 0.175583
H8    H     H_    0.983281 0.287366 0.844252 0.175287
C25   C     C_R   0.573271 0.756200 0.144574 -0.032823
C26   C     C_R   0.424816 0.759058 0.854792 -0.036046
C27   C     C_R   0.073192 0.256246 0.144564 -0.033382
C28   C     C_R   0.924662 0.259181 0.854776 -0.036136
C29   C     C_R   0.610333 0.719801 0.177745 -0.131105
C30   C     C_R   0.370691 0.741135 0.819569 -0.125198
C31   C     C_R   0.110292 0.219867 0.177699 -0.131387
C32   C     C_R   0.870563 0.241192 0.819530 -0.125681
C33   C     C_R   0.647407 0.717833 0.250432 0.270058
C34   C     C_R   0.334036 0.739360 0.746817 0.259074
C35   C     C_R   0.147395 0.217882 0.250389 0.268833
C36   C     C_R   0.833936 0.239390 0.746774 0.257394
C37   C     C_R   0.645539 0.751105 0.289284 -0.150157
C38   C     C_R   0.352399 0.753876 0.710159 -0.144439
C39   C     C_R   0.145529 0.251125 0.289277 -0.152206
C40   C     C_R   0.852318 0.253942 0.710146 -0.145223
N1    N     N_R   0.553952 0.751339 0.033329 -0.130190
N2    N     N_R   0.518691 0.751939 0.964726 -0.120882
N3    N     N_R   0.053832 0.251482 0.033290 -0.130527
N4    N     N_R   0.018553 0.252100 0.964688 -0.120745
C41   C     C_R   0.464475 0.762706 0.930137 0.342332
C42   C     C_R   0.536071 0.761312 0.069484 0.342111
C43   C     C_R   0.964323 0.262804 0.930126 0.342551
C44   C     C_R   0.035957 0.261374 0.069474 0.342151
N5    N     N_R   0.447293 0.774988 0.966341 -0.130419
N6    N     N_R   0.482519 0.774222 0.034981 -0.122640
N7    N     N_R   0.947141 0.275002 0.966361 -0.130425
N8    N     N_R   0.982387 0.274219 0.035001 -0.122223
C45   C     C_3   0.907502 0.831730 0.554951 0.064132
C46   C     C_3   0.092371 0.831868 0.444116 0.061936
C47   C     C_3   0.407159 0.328200 0.544490 0.094490
C48   C     C_3   0.592710 0.328135 0.455104 0.093144
H9    H     H_    0.912841 0.801199 0.534172 0.129566
H10   H     H_    0.086610 0.801138 0.463992 0.130803
H11   H     H_    0.406226 0.300285 0.514293 0.147885
H12   H     H_    0.593537 0.300236 0.485108 0.151652
C49   C     C_3   0.943605 0.868351 0.557127 0.050307
C50   C     C_3   0.056288 0.868347 0.442337 0.051431
C51   C     C_3   0.442814 0.365519 0.546888 0.038294
C52   C     C_3   0.557086 0.365437 0.452842 0.038218
H13   H     H_    0.968011 0.851529 0.544612 0.190114
H14   H     H_    0.031944 0.851387 0.454808 0.189955
H15   H     H_    0.462751 0.351747 0.525992 0.164328
H16   H     H_    0.537200 0.351687 0.473773 0.163679
H17   H     H_    0.833286 0.811624 0.416356 0.215550
H18   H     H_    0.164516 0.811538 0.581654 0.238912
H19   H     H_    0.323301 0.319413 0.406601 0.212423
H20   H     H_    0.676038 0.319680 0.592732 0.239429
C53   C     C_3   0.827794 0.845569 0.429133 -0.561536
C54   C     C_3   0.171427 0.845351 0.570286 -0.536802
C55   C     C_3   0.321050 0.351364 0.427357 -0.542092
C56   C     C_3   0.678714 0.351523 0.572364 -0.523709
C57   C     C_3   0.834343 0.892300 0.517807 -0.285800
C58   C     C_3   0.166115 0.892351 0.482879 -0.283955
C59   C     C_3   0.343646 0.390034 0.532596 -0.298868
C60   C     C_3   0.656376 0.389973 0.467337 -0.298395
C61   C     C_3   0.844688 0.845050 0.502121 -0.095831
C62   C     C_3   0.155219 0.845062 0.497669 -0.109949
C63   C     C_3   0.345665 0.344867 0.503327 -0.098147
C64   C     C_3   0.654239 0.344872 0.496449 -0.110050
H21   H     H_    0.789549 0.901302 0.478684 0.219550
H22   H     H_    0.210877 0.901312 0.522714 0.221894
H23   H     H_    0.299814 0.401751 0.501746 0.230322
H24   H     H_    0.700225 0.401759 0.498337 0.231369
H25   H     H_    0.844275 0.893399 0.569013 0.254551
H26   H     H_    0.156931 0.893536 0.432119 0.254516
H27   H     H_    0.359680 0.386282 0.586626 0.248886
H28   H     H_    0.640470 0.386102 0.413356 0.249186
C65   C     C_3   0.904764 0.904219 0.498873 -0.228368
C66   C     C_3   0.095136 0.904274 0.500860 -0.228056
C67   C     C_3   0.403769 0.405362 0.498660 -0.232654
C68   C     C_3   0.596147 0.405400 0.501120 -0.233752
C69   C     C_3   0.862831 0.880199 0.424681 0.483844
C70   C     C_3   0.136985 0.880432 0.575018 0.470404
C71   C     C_3   0.352648 0.388900 0.421554 0.478956
C72   C     C_3   0.647256 0.389152 0.578214 0.467725
C73   C     C_3   0.869615 0.927097 0.515745 -0.408605
C74   C     C_3   0.130483 0.927131 0.484332 -0.408325
C75   C     C_3   0.377854 0.425693 0.529873 -0.376406
C76   C     C_3   0.622095 0.425638 0.469959 -0.374925
H29   H     H_    0.896064 0.945385 0.565289 0.263848
H30   H     H_    0.104189 0.945170 0.434702 0.264021
H31   H     H_    0.409842 0.439611 0.581996 0.274130
H32   H     H_    0.590122 0.439373 0.417817 0.274290
H33   H     H_    0.842643 0.953495 0.477885 0.244318
H34   H     H_    0.157234 0.953734 0.522164 0.243966
H35   H     H_    0.351331 0.454817 0.499575 0.227546
H36   H     H_    0.648586 0.454865 0.500265 0.226972
H37   H     H_    0.782278 0.852108 0.390050 0.223825
H38   H     H_    0.217080 0.851085 0.610156 0.229840
H39   H     H_    0.275492 0.357690 0.394450 0.221512
H40   H     H_    0.724338 0.357715 0.605544 0.225041
C77   C     C_R   0.843744 0.770340 0.750948 0.335751
C78   C     C_R   0.156170 0.769959 0.249062 0.335220
C79   C     C_R   0.343380 0.269802 0.750943 0.330651
C80   C     C_R   0.656515 0.269419 0.249054 0.329981
C81   C     C_R   0.878339 0.763173 0.822223 -0.163638
C82   C     C_R   0.121321 0.762812 0.177726 -0.163495
C83   C     C_R   0.377997 0.262547 0.822205 -0.163787
C84   C     C_R   0.621632 0.262187 0.177729 -0.163729
H41   H     H_    0.869304 0.780018 0.852596 0.193878
H42   H     H_    0.130488 0.779388 0.147377 0.193830
H43   H     H_    0.368791 0.279130 0.852574 0.193583
H44   H     H_    0.630963 0.278491 0.147374 0.193593
C85   C     C_R   0.926102 0.736834 0.854980 0.013969
C86   C     C_R   0.073193 0.736839 0.144902 0.014083
C87   C     C_R   0.425979 0.236477 0.854956 0.014214
C88   C     C_R   0.573282 0.236496 0.144921 0.014223
C89   C     C_R   0.939048 0.716748 0.816186 -0.105074
C90   C     C_R   0.060100 0.717113 0.183680 -0.105319
C91   C     C_R   0.439100 0.216723 0.816144 -0.108305
C92   C     C_R   0.560019 0.217113 0.183725 -0.108855
H45   H     H_    0.976112 0.696510 0.840945 0.177327
H46   H     H_    0.022749 0.697169 0.158858 0.177069
H47   H     H_    0.476317 0.196686 0.840875 0.177808
H48   H     H_    0.522513 0.197380 0.158937 0.177633
C93   C     C_R   0.903782 0.721988 0.744907 -0.113851
C94   C     C_R   0.095610 0.722312 0.255024 -0.114372
C95   C     C_R   0.403848 0.222063 0.744885 -0.109421
C96   C     C_R   0.595526 0.222410 0.255050 -0.109566
H49   H     H_    0.914465 0.705141 0.716274 0.198142
H50   H     H_    0.084812 0.705748 0.283659 0.197569
H51   H     H_    0.414706 0.205496 0.716252 0.200464
H52   H     H_    0.584558 0.206135 0.283694 0.200249
C97   C     C_R   0.855593 0.748434 0.711088 -0.132531
C98   C     C_R   0.144182 0.748382 0.288906 -0.131443
C99   C     C_R   0.355472 0.248277 0.711084 -0.136962
C100  C     C_R   0.644290 0.248233 0.288907 -0.136048
N9    N     N_R   0.020016 0.732073 0.965690 -0.132222
N10   N     N_R   0.979158 0.732692 0.034174 -0.131903
N11   N     N_R   0.519939 0.231684 0.965623 -0.133223
N12   N     N_R   0.479198 0.232323 0.034236 -0.132966
N13   N     N_R   0.054910 0.732323 0.034377 -0.127861
N14   N     N_R   0.944266 0.732956 0.965483 -0.127931
N15   N     N_R   0.554881 0.231934 0.034310 -0.128048
N16   N     N_R   0.444258 0.232579 0.965544 -0.128148
C101  C     C_R   0.035041 0.732840 0.069715 0.319667
C102  C     C_R   0.964143 0.732855 0.930146 0.319857
C103  C     C_R   0.535074 0.232468 0.069720 0.319340
C104  C     C_R   0.464073 0.232474 0.930137 0.319506
C105  C     C_3   0.657408 0.608363 0.464100 0.018245
C106  C     C_3   0.342278 0.608361 0.535587 0.024085
C107  C     C_3   0.158281 0.108045 0.465689 0.019630
C108  C     C_3   0.841544 0.108081 0.534210 0.025803
C109  C     C_3   0.617852 0.573987 0.462221 0.026890
C110  C     C_3   0.382034 0.574040 0.537739 0.029072
C111  C     C_3   0.117313 0.074132 0.461509 0.026972
C112  C     C_3   0.882583 0.074183 0.538478 0.029015
H53   H     H_    0.641208 0.543073 0.489094 0.139721
H54   H     H_    0.358777 0.543017 0.510855 0.139584
H55   H     H_    0.139419 0.042481 0.486370 0.141788
H56   H     H_    0.860479 0.042475 0.513490 0.141247
C113  C     C_3   0.684678 0.644508 0.581611 0.359927
C114  C     C_3   0.315615 0.644500 0.418606 0.358917
C115  C     C_3   0.184259 0.144899 0.582014 0.361779
C116  C     C_3   0.815967 0.144810 0.418226 0.360662
C117  C     C_3   0.597295 0.668775 0.461498 -0.341322
C118  C     C_3   0.402856 0.668759 0.539145 -0.344228
C119  C     C_3   0.097363 0.168607 0.461509 -0.342060
C120  C     C_3   0.902767 0.168624 0.539033 -0.345053
C121  C     C_3   0.659402 0.652604 0.502846 -0.239794
C122  C     C_3   0.340652 0.652601 0.497314 -0.238387
C123  C     C_3   0.159574 0.152615 0.503406 -0.243395
C124  C     C_3   0.840491 0.152606 0.496791 -0.241833
H57   H     H_    0.594714 0.701608 0.479736 0.239515
H58   H     H_    0.405695 0.701631 0.521374 0.238865
H59   H     H_    0.094527 0.201570 0.479257 0.237715
H60   H     H_    0.905790 0.201592 0.521612 0.237191
H61   H     H_    0.575953 0.673906 0.405979 0.248898
H62   H     H_    0.423982 0.673773 0.594667 0.247513
H63   H     H_    0.076269 0.173266 0.405959 0.251994
H64   H     H_    0.923690 0.173264 0.594573 0.250471
C125  C     C_3   0.598004 0.592611 0.502493 -0.143027
C126  C     C_3   0.402077 0.592608 0.497718 -0.143341
C127  C     C_3   0.098063 0.092475 0.502527 -0.135458
C128  C     C_3   0.902013 0.092465 0.497689 -0.136161
C129  C     C_3   0.649270 0.605621 0.579653 -0.400231
C130  C     C_3   0.350942 0.605562 0.420548 -0.400251
C131  C     C_3   0.149744 0.105016 0.579898 -0.387382
C132  C     C_3   0.850443 0.104925 0.420312 -0.387797
C133  C     C_3   0.563503 0.635420 0.467687 -0.378260
C134  C     C_3   0.436661 0.635441 0.532855 -0.378056
C135  C     C_3   0.063719 0.135408 0.468236 -0.384050
C136  C     C_3   0.936433 0.135431 0.532270 -0.383507
H65   H     H_    0.522625 0.629243 0.416242 0.244282
H66   H     H_    0.477488 0.629291 0.584301 0.243540
H67   H     H_    0.022586 0.129362 0.417006 0.243770
H68   H     H_    0.977506 0.129429 0.583521 0.243062
H69   H     H_    0.552661 0.650050 0.498855 0.204028
H70   H     H_    0.447627 0.650075 0.501878 0.204461
H71   H     H_    0.053360 0.150021 0.499889 0.206790
H72   H     H_    0.946928 0.150017 0.500803 0.207058
H73   H     H_    0.630181 0.618630 0.602090 0.215752
H74   H     H_    0.370186 0.618508 0.398311 0.215667
H75   H     H_    0.130891 0.116832 0.603181 0.210417
H76   H     H_    0.869409 0.116716 0.397193 0.210827
O33   O     O_R   0.075080 0.953700 0.557570 -0.562374
O34   O     O_R   0.924920 0.953700 0.442430 -0.561882
O35   O     O_R   0.575080 0.453700 0.557570 -0.563822
O36   O     O_R   0.424920 0.453700 0.442430 -0.563035
O37   O     O_R   0.017620 0.953670 0.442560 -0.562989
O38   O     O_R   0.982380 0.953670 0.557440 -0.563096
O39   O     O_R   0.517620 0.453670 0.442560 -0.565461
O40   O     O_R   0.482380 0.453670 0.557440 -0.565724
C137  C     C_R   0.060702 0.938727 0.500401 0.927432
C138  C     C_R   0.939269 0.938696 0.499493 0.926636
C139  C     C_R   0.561421 0.439420 0.500598 0.860381
C140  C     C_R   0.438553 0.439394 0.499309 0.860043
Zn9   Zn    Zn3+2 0.538360 0.500010 0.576800 1.191809
Zn10  Zn    Zn3+2 0.461640 0.500010 0.423200 1.192746
Zn11  Zn    Zn3+2 0.038360 0.000010 0.576800 1.192219
Zn12  Zn    Zn3+2 0.961640 0.000010 0.423200 1.193590
O41   O     O_R   0.482370 0.546310 0.557450 -0.573306
O42   O     O_R   0.517630 0.546310 0.442550 -0.572583
O43   O     O_R   0.982370 0.046310 0.557450 -0.578668
O44   O     O_R   0.017630 0.046310 0.442550 -0.577964
O45   O     O_R   0.424900 0.546280 0.442440 -0.631443
O46   O     O_R   0.575100 0.546280 0.557560 -0.631185
O47   O     O_R   0.924900 0.046280 0.442440 -0.639469
O48   O     O_R   0.075100 0.046280 0.557560 -0.639854
C141  C     C_R   0.438177 0.559875 0.499349 0.842514
C142  C     C_R   0.561855 0.559882 0.500741 0.841675
C143  C     C_R   0.938141 0.059796 0.499361 0.848651
C144  C     C_R   0.061887 0.059807 0.500729 0.848336
N17   N     N_R   0.892751 0.856082 0.405058 0.205971
O49   O     O_R   0.944805 0.863956 0.435241 -0.395898
O50   O     O_R   0.864699 0.831527 0.349514 -0.277416
N18   N     N_R   0.107135 0.856841 0.595094 0.207627
O51   O     O_R   0.054724 0.863852 0.563790 -0.399581
O52   O     O_R   0.135247 0.832903 0.651109 -0.249449
N19   N     N_R   0.372087 0.370159 0.384846 0.209385
O53   O     O_R   0.404587 0.335597 0.409298 -0.394771
O54   O     O_R   0.347476 0.380868 0.320933 -0.232330
N20   N     N_R   0.627841 0.370631 0.615000 0.213831
O55   O     O_R   0.595170 0.336105 0.590516 -0.383956
O56   O     O_R   0.652625 0.381490 0.678979 -0.221856
N21   N     N_R   0.824431 0.912564 0.369069 0.227790
O57   O     O_R   0.828721 0.921468 0.321507 -0.265034
O58   O     O_R   0.782075 0.929000 0.361872 -0.371956
N22   N     N_R   0.175880 0.912883 0.630506 0.229791
O59   O     O_R   0.171689 0.922581 0.677987 -0.263263
O60   O     O_R   0.218612 0.928494 0.637809 -0.368996
N23   N     N_R   0.313088 0.426347 0.380494 0.223639
O61   O     O_R   0.319371 0.452849 0.344675 -0.295172
O62   O     O_R   0.271746 0.434466 0.380595 -0.362573
N24   N     N_R   0.686914 0.426669 0.619251 0.225386
O63   O     O_R   0.680652 0.453404 0.654979 -0.295848
O64   O     O_R   0.728334 0.434602 0.619242 -0.358749
N25   N     N_R   0.798334 0.800905 0.721093 0.235268
O65   O     O_R   0.765127 0.797617 0.736151 -0.284317
O66   O     O_R   0.798597 0.837611 0.693816 -0.311023
N26   N     N_R   0.202009 0.800164 0.279007 0.235306
O67   O     O_R   0.235092 0.796339 0.263818 -0.283355
O68   O     O_R   0.202248 0.837111 0.306380 -0.309845
N27   N     N_R   0.297697 0.300076 0.721119 0.236057
O69   O     O_R   0.264519 0.296355 0.736170 -0.282175
O70   O     O_R   0.297717 0.336989 0.694056 -0.321878
N28   N     N_R   0.702637 0.299314 0.278960 0.236161
O71   O     O_R   0.703166 0.336454 0.306170 -0.321147
O72   O     O_R   0.735638 0.295063 0.263707 -0.281211
C145  C     C_2   0.715187 0.587211 0.500150 0.974419
O73   O     O_2   0.736680 0.563205 0.550444 -0.550176
O74   O     O_R   0.743268 0.594205 0.473589 -0.685796
H77   H     H_    0.780588 0.578476 0.501194 0.362004
C146  C     C_2   0.284383 0.587136 0.498846 0.974039
O75   O     O_2   0.263163 0.563114 0.448457 -0.551438
O76   O     O_R   0.255849 0.594100 0.524830 -0.693807
H78   H     H_    0.218485 0.578332 0.496780 0.361484
C147  C     C_2   0.216124 0.086413 0.504589 0.968101
O77   O     O_2   0.235731 0.062723 0.554843 -0.572676
O78   O     O_R   0.246549 0.092689 0.481055 -0.685973
H79   H     H_    0.283734 0.076709 0.510474 0.362892
C148  C     C_2   0.783632 0.086391 0.494941 0.968011
O79   O     O_2   0.764154 0.062620 0.444645 -0.573437
O80   O     O_R   0.752975 0.092714 0.518160 -0.692709
H80   H     H_    0.715762 0.076695 0.488505 0.362350
N29   N     N_R   0.635695 0.617742 0.392165 0.269192
O81   O     O_R   0.632616 0.585507 0.354870 -0.223342
O82   O     O_R   0.626414 0.657846 0.367670 -0.388508
N30   N     N_R   0.363524 0.617750 0.607396 0.264429
O83   O     O_R   0.366204 0.585518 0.644250 -0.243624
O84   O     O_R   0.372718 0.657857 0.632130 -0.396706
N31   N     N_R   0.138826 0.116931 0.394681 0.270877
O85   O     O_R   0.137140 0.084416 0.358778 -0.225348
O86   O     O_R   0.127640 0.156677 0.368542 -0.384320
N32   N     N_R   0.860752 0.117059 0.605158 0.265845
O87   O     O_R   0.862200 0.084593 0.640792 -0.245398
O88   O     O_R   0.871681 0.156858 0.631354 -0.393107
N33   N     N_R   0.570567 0.559857 0.391119 0.268228
O89   O     O_R   0.566723 0.518595 0.372951 -0.342452
O90   O     O_R   0.533739 0.588029 0.344723 -0.299975
N34   N     N_R   0.429224 0.560178 0.608917 0.268985
O91   O     O_R   0.433209 0.518938 0.627020 -0.343192
O92   O     O_R   0.465785 0.588558 0.655452 -0.303303
N35   N     N_R   0.069599 0.061695 0.389616 0.267062
O93   O     O_R   0.063288 0.020496 0.369938 -0.321264
O94   O     O_R   0.034798 0.091166 0.344115 -0.301875
N36   N     N_R   0.930198 0.061911 0.610387 0.267768
O95   O     O_R   0.936495 0.020745 0.629937 -0.322928
O96   O     O_R   0.964892 0.091498 0.656042 -0.305327
N37   N     N_R   0.745168 0.633347 0.630705 0.204868
O97   O     O_R   0.768293 0.627248 0.695465 -0.299060
O98   O     O_R   0.778634 0.642378 0.617471 -0.378765
N38   N     N_R   0.255070 0.633402 0.369170 0.203995
O99   O     O_R   0.232114 0.627331 0.304422 -0.298073
O100  O     O_R   0.221477 0.642441 0.382221 -0.379537
N39   N     N_R   0.245111 0.135229 0.632180 0.199328
O101  O     O_R   0.268265 0.131421 0.697276 -0.286326
O102  O     O_R   0.278432 0.142923 0.618304 -0.386248
N40   N     N_R   0.755092 0.135103 0.367841 0.199084
O103  O     O_R   0.732068 0.131233 0.302770 -0.285857
O104  O     O_R   0.721666 0.142808 0.381567 -0.386337
C149  C     C_2   0.683016 0.566552 0.627982 1.081592
O105  O     O_2   0.699367 0.536643 0.611779 -0.531124
O106  O     O_R   0.694026 0.564747 0.691647 -0.719256
H81   H     H_    0.716594 0.537654 0.719746 0.387351
C150  C     C_2   0.317102 0.566473 0.371930 1.082458
O107  O     O_2   0.301485 0.536160 0.388381 -0.532785
O108  O     O_R   0.305398 0.565017 0.307831 -0.718101
H82   H     H_    0.282997 0.537799 0.279680 0.386529
C151  C     C_2   0.184287 0.065737 0.627450 1.075309
O109  O     O_2   0.188783 0.031364 0.605276 -0.579629
O110  O     O_R   0.206985 0.067988 0.696823 -0.709645
H83   H     H_    0.227563 0.039870 0.723270 0.380113
C152  C     C_2   0.815853 0.065590 0.372533 1.075362
O111  O     O_2   0.811299 0.031221 0.394519 -0.578969
O112  O     O_R   0.793245 0.067770 0.303200 -0.709155
H84   H     H_    0.772648 0.039616 0.276604 0.379645
C153  C     C_2   0.609088 0.682597 0.137458 1.007129
O113  O     O_2   0.564639 0.665471 0.090244 -0.545300
O114  O     O_R   0.658770 0.666830 0.154074 -0.709367
H85   H     H_    0.652473 0.641337 0.123204 0.375916
C154  C     C_2   0.352313 0.722993 0.857656 1.008590
O115  O     O_2   0.381685 0.696399 0.904555 -0.547204
O116  O     O_R   0.301024 0.735866 0.839133 -0.705544
H86   H     H_    0.293017 0.721086 0.868536 0.375929
C155  C     C_2   0.109074 0.182707 0.137372 1.007762
O117  O     O_2   0.064639 0.165562 0.090157 -0.544213
O118  O     O_R   0.158766 0.167002 0.153953 -0.709170
H87   H     H_    0.152489 0.141535 0.123059 0.376498
C156  C     C_2   0.852188 0.223005 0.857596 1.008893
O119  O     O_2   0.881582 0.196418 0.904497 -0.546119
O120  O     O_R   0.800874 0.235825 0.839044 -0.707019
H88   H     H_    0.792870 0.221017 0.868433 0.376384
N41   N     N_R   0.678494 0.686080 0.608691 0.226837
O121  O     O_R   0.717934 0.715819 0.638554 -0.317231
O122  O     O_R   0.634399 0.694553 0.602895 -0.378384
N42   N     N_R   0.322168 0.686036 0.391985 0.227635
O123  O     O_R   0.282798 0.715755 0.361964 -0.314773
O124  O     O_R   0.366504 0.694484 0.398303 -0.377906
N43   N     N_R   0.176152 0.186283 0.607564 0.228330
O125  O     O_R   0.213323 0.217762 0.634150 -0.313160
O126  O     O_R   0.133096 0.192586 0.604758 -0.377075
N44   N     N_R   0.824290 0.186151 0.392976 0.228885
O127  O     O_R   0.787071 0.217532 0.366128 -0.311213
O128  O     O_R   0.867586 0.192508 0.396301 -0.376553
N45   N     N_R   0.684917 0.680965 0.284087 0.238828
O129  O     O_R   0.735748 0.684747 0.306232 -0.296340
O130  O     O_R   0.665937 0.642001 0.282471 -0.250070
N46   N     N_R   0.278512 0.722636 0.710612 0.238545
O131  O     O_R   0.236105 0.749346 0.673754 -0.346391
O132  O     O_R   0.270480 0.681266 0.717298 -0.290549
N47   N     N_R   0.184929 0.181025 0.284005 0.238662
O133  O     O_R   0.235784 0.184878 0.306255 -0.295130
O134  O     O_R   0.165936 0.142004 0.282119 -0.249471
N48   N     N_R   0.778450 0.222552 0.710547 0.238629
O135  O     O_R   0.735934 0.249130 0.673350 -0.346113
O136  O     O_R   0.770544 0.181181 0.717400 -0.288208
N49   N     N_R   0.926563 0.819668 0.624168 0.251404
O137  O     O_R   0.972459 0.797110 0.665485 -0.294806
O138  O     O_R   0.898159 0.829832 0.644681 -0.374263
N50   N     N_R   0.073704 0.820268 0.374865 0.251325
O139  O     O_R   0.027711 0.797840 0.332749 -0.296439
O140  O     O_R   0.102681 0.830499 0.355210 -0.374651
N51   N     N_R   0.432398 0.309768 0.613331 0.254626
O141  O     O_R   0.476799 0.285190 0.644054 -0.284274
O142  O     O_R   0.410925 0.316440 0.643777 -0.385402
N52   N     N_R   0.567523 0.309646 0.386193 0.254560
O143  O     O_R   0.523053 0.285042 0.355249 -0.286349
O144  O     O_R   0.589157 0.316228 0.355946 -0.386945
N53   N     N_R   0.984354 0.887256 0.627306 0.278414
O145  O     O_R   0.037432 0.882194 0.660031 -0.224323
O146  O     O_R   0.968794 0.904845 0.660417 -0.279416
N54   N     N_R   0.015442 0.887220 0.372309 0.278373
O147  O     O_R   0.962389 0.881886 0.339582 -0.224853
O148  O     O_R   0.030898 0.905069 0.339299 -0.277793
N55   N     N_R   0.489331 0.379111 0.618685 0.269482
O149  O     O_R   0.540364 0.374835 0.641811 -0.241390
O150  O     O_R   0.481198 0.391303 0.661800 -0.284740
N56   N     N_R   0.510523 0.378869 0.381106 0.269639
O151  O     O_R   0.459516 0.374538 0.358073 -0.242646
O152  O     O_R   0.518584 0.390988 0.337949 -0.284127

loop_
_geom_bond_atom_site_label_1
_geom_bond_atom_site_label_2
_geom_bond_distance
_ccdc_geom_bond_type
C108  N32   1.492950 S    
N55   O149  1.300405 A    
C55   H39   1.111562 S    
C31   C155  1.487174 S    
C66   C70   1.610609 S    
C146  O75   1.219958 D    
N19   O54   1.301873 A    
C145  O73   1.219958 D    
N40   O103  1.302055 A    
C82   C86   1.398565 A    
C115  C131  1.584913 S    
N42   O123  1.301642 A    
C109  C125  1.573634 S    
C152  O112  1.399303 S    
C113  N37   1.490366 S    
C69   N17   1.480819 S    
C93   C97   1.407506 A    
C108  C148  1.541500 S    
Zn6   O22   2.023157 S    
C11   C123  1.474954 S    
N1    C42   1.355681 A    
O39   Zn10  2.030190 S    
C73   H29   1.104742 S    
C153  O114  1.397965 S    
N3    C44   1.355662 A    
C112  N36   1.479832 S    
C15   C99   1.475821 S    
C76   H32   1.103881 S    
N26   O67   1.301103 A    
C130  C150  1.530413 S    
C75   H31   1.103926 S    
O4    C4    1.282572 A    
C74   H34   1.107910 S    
C87   C91   1.396112 A    
C35   N47   1.433603 S    
O35   C139  1.273765 A    
C112  C128  1.572709 S    
C156  O120  1.398134 S    
C26   C41   1.462036 S    
C105  C121  1.621789 S    
C66   C137  1.481083 S    
C77   C81   1.397174 A    
C71   N19   1.486932 S    
C132  C152  1.533357 S    
O18   C10   1.277858 A    
N28   O71   1.301247 A    
C46   C62   1.562064 S    
Zn1   O25   2.010357 S    
C48   N52   1.475484 S    
C54   C70   1.555944 S    
C79   C83   1.397299 A    
Zn3   O19   2.043905 S    
C125  C133  1.544796 S    
Zn4   O28   2.011626 S    
O13   C5    1.299269 A    
Zn5   O29   2.003529 S    
C77   N25   1.433461 S    
C49   C65   1.587948 S    
O47   C143  1.270006 A    
C78   C98   1.419471 A    
N33   O90   1.301824 A    
C30   C34   1.408423 A    
O11   Zn3   2.003531 S    
N31   O85   1.303798 A    
C24   H8    1.083770 S    
C53   H37   1.112952 S    
N30   O83   1.303936 A    
N20   O55   1.300874 A    
O9    C5    1.290959 A    
O2    Zn2   2.023068 S    
O10   Zn2   2.002282 S    
C86   C90   1.396069 A    
C57   C73   1.536481 S    
N46   O131  1.300635 A    
O6    Zn6   2.043587 S    
C135  H71   1.112405 S    
C70   N18   1.480685 S    
C136  H72   1.112352 S    
O19   C11   1.278791 A    
C150  O107  1.218914 D    
C117  H57   1.110745 S    
O106  H81   1.013722 S    
C131  H75   1.109245 S    
N18   O51   1.297728 A    
C12   C124  1.474191 S    
N2    C41   1.354709 A    
C48   C52   1.548731 S    
C82   H42   1.083923 S    
C133  H69   1.112900 S    
C105  C109  1.580162 S    
C4    C64   1.464357 S    
C71   N23   1.495939 S    
C36   C40   1.416797 A    
C59   H23   1.112632 S    
C17   H1    1.083157 S    
H19   C55   1.114003 S    
Zn11  O48   2.037676 S    
C151  O109  1.220686 D    
C19   H3    1.083157 S    
C20   H4    1.083357 S    
C20   C24   1.383806 A    
C13   C97   1.475764 S    
N37   O98   1.298439 A    
C154  O115  1.223114 D    
C81   H41   1.083907 S    
C66   C74   1.551968 S    
C22   H6    1.083764 S    
C83   H43   1.083893 S    
C87   C104  1.459735 S    
N47   O134  1.300527 A    
C17   C37   1.401107 A    
C118  C122  1.577977 S    
C43   N7    1.356184 A    
C96   C100  1.407560 A    
C59   C63   1.561469 S    
N46   O132  1.301056 A    
O3    C3    1.282336 A    
O74   H77   1.013927 S    
C57   C61   1.559819 S    
C58   H22   1.113024 S    
N25   O65   1.301108 A    
C58   C62   1.560184 S    
O33   Zn11  2.036349 S    
C47   H11   1.115367 S    
C90   C94   1.388918 A    
O34   Zn12  2.037916 S    
C155  O117  1.223179 D    
O17   C9    1.277974 A    
C46   N50   1.475756 S    
C128  C132  1.589276 S    
C16   C100  1.475739 S    
N52   O144  1.301615 A    
C114  N38   1.490497 S    
N29   O81   1.303945 A    
C113  C129  1.582330 S    
C153  O113  1.223180 D    
C20   C40   1.399524 A    
N45   O129  1.301084 A    
N55   O150  1.301763 A    
C21   H5    1.083738 S    
O112  H84   1.013992 S    
C22   C26   1.397827 A    
C29   C153  1.487175 S    
C120  C124  1.577397 S    
N34   O91   1.300502 A    
C56   C64   1.545275 S    
C10   C122  1.472642 S    
H18   C54   1.113241 S    
C129  H73   1.109645 S    
C79   N27   1.433467 S    
N24   O64   1.303258 A    
C59   C75   1.538474 S    
C60   C76   1.538596 S    
N7    N8    1.328222 A    
O43   C143  1.278714 A    
N54   O147  1.301056 A    
C70   N22   1.486418 S    
C50   H14   1.104793 S    
O20   C12   1.278614 A    
C51   C67   1.585642 S    
O44   C144  1.278471 A    
O29   C13   1.294808 A    
O36   C140  1.274109 A    
N15   C103  1.356042 A    
N17   O50   1.302696 A    
C83   C87   1.398763 A    
C116  N40   1.490200 S    
C18   C38   1.399533 A    
C81   C85   1.398649 A    
N41   O122  1.302613 A    
N38   O100  1.298474 A    
O7    C3    1.287595 A    
C19   C39   1.401161 A    
C147  O78   1.401313 S    
O40   C140  1.280875 A    
O48   C144  1.270157 A    
C106  C110  1.580456 S    
N3    N4    1.327397 A    
N27   O70   1.301253 A    
C111  H55   1.107293 S    
C127  C144  1.468711 S    
C77   C97   1.419477 A    
C128  C143  1.468923 S    
N50   O139  1.301275 A    
C75   H35   1.109893 S    
C85   C102  1.459401 S    
O5    C1    1.282549 A    
C118  H62   1.106606 S    
Zn3   O27   2.010357 S    
N14   C102  1.356119 A    
C49   N53   1.478969 S    
C125  C142  1.469856 S    
O8    C4    1.287645 A    
C17   C21   1.384590 A    
O33   C137  1.277244 A    
N32   O88   1.301527 A    
O25   C13   1.297724 A    
O27   C15   1.297757 A    
N31   O86   1.301418 A    
C78   C82   1.396963 A    
C26   C30   1.416495 A    
C23   C27   1.396990 A    
N10   C101  1.355882 A    
C41   N5    1.356173 A    
C52   H16   1.108357 S    
Zn2   O26   2.011626 S    
O16   Zn8   2.011538 S    
C125  C129  1.586208 S    
C25   C29   1.415649 A    
O14   C6    1.296356 A    
O37   Zn12  2.030190 S    
Zn6   O30   2.002284 S    
O38   Zn11  2.029273 S    
C28   C32   1.416534 A    
C127  C131  1.588906 S    
C24   C28   1.397812 A    
C114  C122  1.610142 S    
O10   C6    1.291980 A    
O3    Zn3   2.023394 S    
C60   H28   1.109890 S    
C116  N44   1.489559 S    
C68   C76   1.552030 S    
C152  O111  1.220768 D    
C58   C74   1.536605 S    
C106  N30   1.494100 S    
C85   C89   1.396065 A    
C136  H68   1.109550 S    
C67   C75   1.552043 S    
C67   C140  1.478112 S    
C78   N26   1.433441 S    
C68   C139  1.477795 S    
C117  C121  1.578091 S    
C95   H51   1.083008 S    
C133  H65   1.109268 S    
C134  H70   1.112819 S    
N26   O68   1.301250 A    
C51   N55   1.479438 S    
C79   C99   1.419495 A    
C119  C123  1.577516 S    
N49   O138  1.301504 A    
C149  O106  1.399527 S    
C47   C63   1.568110 S    
C33   C37   1.418448 A    
C84   H44   1.083910 S    
Zn1   O17   2.043905 S    
C45   C61   1.562302 S    
C18   H2    1.083354 S    
C35   C39   1.418456 A    
C156  O119  1.223115 D    
O13   Zn5   2.010274 S    
O23   C11   1.293772 A    
C32   C36   1.408523 A    
O15   Zn7   2.010274 S    
C110  N34   1.479051 S    
N39   O101  1.302045 A    
N43   O126  1.302418 A    
C56   C72   1.558344 S    
N28   O72   1.301124 A    
C96   H52   1.083022 S    
C34   N46   1.434626 S    
C65   C138  1.481565 S    
C60   H24   1.112607 S    
C72   N24   1.495867 S    
O35   Zn9   2.036349 S    
N44   O127  1.301607 A    
C42   N6    1.355013 A    
C45   C49   1.545293 S    
N5    N6    1.328194 A    
C47   C51   1.548483 S    
C90   H46   1.083390 S    
N53   O146  1.301533 A    
N48   O135  1.300718 A    
C89   C93   1.388708 A    
C132  H76   1.109314 S    
N35   O93   1.301161 A    
N30   O84   1.301546 A    
N20   O56   1.301883 A    
C92   C96   1.388890 A    
C148  O80   1.401281 S    
C119  C135  1.526572 S    
Zn9   O46   2.037676 S    
C84   C88   1.398677 A    
C36   N48   1.434805 S    
N23   O61   1.301649 A    
Zn7   O31   2.003529 S    
C109  H53   1.107935 S    
Zn8   O32   2.002284 S    
C32   C156  1.485830 S    
C106  C122  1.622038 S    
C25   C42   1.461567 S    
C146  O76   1.401594 S    
N18   O52   1.302804 A    
C27   C44   1.461579 S    
N36   O95   1.301123 A    
C113  N41   1.489231 S    
C145  O74   1.401656 S    
Zn9   O41   2.029651 S    
C5    C37   1.471668 S    
Zn11  O43   2.029651 S    
N51   O141  1.301275 A    
C108  C112  1.578714 S    
Zn12  O44   2.028737 S    
O1    C1    1.284777 A    
C130  H74   1.109724 S    
O80   H80   1.013920 S    
N56   O151  1.300392 A    
C72   N20   1.486967 S    
C126  C134  1.544737 S    
C57   H25   1.109722 S    
C34   C38   1.416672 A    
O37   C137  1.278464 A    
C91   C95   1.388682 A    
C114  N42   1.489264 S    
C2    C62   1.460920 S    
C91   H47   1.083390 S    
O21   C9    1.293779 A    
O28   C16   1.298027 A    
O76   H78   1.013943 S    
C29   C33   1.407618 A    
O30   C14   1.294748 A    
O36   Zn10  2.037916 S    
N35   O94   1.301776 A    
C8    C40   1.467981 S    
C107  N31   1.492425 S    
C108  C124  1.623066 S    
C111  C127  1.572535 S    
C46   C50   1.545898 S    
C48   H12   1.115399 S    
C94   C98   1.407539 A    
C149  O105  1.218891 D    
C114  C130  1.581822 S    
N12   N16   1.328970 A    
C80   C100  1.419495 A    
C55   C63   1.545669 S    
C120  H64   1.106846 S    
C53   C61   1.545067 S    
C118  C134  1.526173 S    
C54   H38   1.113063 S    
O6    C2    1.282598 A    
N36   O96   1.301763 A    
O110  H83   1.013992 S    
C126  C141  1.470018 S    
C115  N43   1.489509 S    
C113  C121  1.610443 S    
O34   C138  1.277477 A    
N27   O69   1.301155 A    
O26   C14   1.298000 A    
C31   C35   1.407683 A    
C117  H61   1.106433 S    
C105  N29   1.493696 S    
C45   N49   1.475751 S    
N12   C103  1.355930 A    
N42   O124  1.302591 A    
C65   C69   1.610657 S    
N34   O92   1.301802 A    
C23   H7    1.083740 S    
C6    C38   1.467976 S    
O45   C141  1.270059 A    
C50   N54   1.479000 S    
C69   N21   1.486081 S    
C80   C84   1.397098 A    
Zn4   O20   2.043591 S    
N54   O148  1.301516 A    
C48   C64   1.568070 S    
Zn5   O21   2.023479 S    
O118  H87   1.013813 S    
C150  O108  1.399512 S    
N1    N2    1.327411 A    
C73   H33   1.107695 S    
C56   H40   1.111620 S    
C127  C135  1.544684 S    
O12   Zn4   2.002282 S    
O78   H79   1.013903 S    
C76   H36   1.109957 S    
N17   O49   1.297629 A    
O15   C7    1.299232 A    
O114  H85   1.013815 S    
C120  C136  1.526784 S    
C68   C72   1.612913 S    
N56   O152  1.301762 A    
N51   O142  1.301644 A    
N41   O121  1.301606 A    
C65   C73   1.552136 S    
O108  H82   1.013758 S    
N21   O57   1.302752 A    
N22   O59   1.302815 A    
C67   C71   1.612960 S    
C151  O110  1.399226 S    
O42   C142  1.278974 A    
C110  C126  1.573803 S    
N50   O140  1.301455 A    
C95   C99   1.407523 A    
C107  C111  1.578298 S    
C154  O116  1.398140 S    
C28   C43   1.462093 S    
N39   O102  1.298505 A    
C47   N51   1.475533 S    
O40   Zn9   2.029273 S    
C134  H66   1.109270 S    
C109  N33   1.479056 S    
C44   N8    1.355040 A    
C21   C25   1.397028 A    
C119  H59   1.111313 S    
C50   C66   1.588499 S    
C131  C151  1.533244 S    
H17   C53   1.114011 S    
Zn2   O18   2.043591 S    
N19   O53   1.300869 A    
Zn12  O47   2.036106 S    
N25   O66   1.301254 A    
C9    C121  1.473351 S    
O116  H86   1.013804 S    
O39   C139  1.281047 A    
O14   Zn6   2.011538 S    
C155  O118  1.397972 S    
N22   O60   1.302451 A    
N16   C104  1.356133 A    
C19   C23   1.384585 A    
O11   C7    1.291031 A    
N52   O143  1.301273 A    
N29   O82   1.301437 A    
C7    C39   1.471759 S    
O1    Zn1   2.023394 S    
O9    Zn1   2.003531 S    
N32   O87   1.303797 A    
C59   H27   1.109921 S    
C60   C64   1.561561 S    
O4    Zn4   2.023068 S    
C18   C22   1.383860 A    
C110  H54   1.107899 S    
O5    Zn5   2.043909 S    
N45   O130  1.300513 A    
C45   H9    1.116382 S    
C135  H67   1.109563 S    
N23   O62   1.303260 A    
O7    Zn7   2.043909 S    
O8    Zn8   2.043587 S    
O16   C8    1.296393 A    
C107  C123  1.622788 S    
C111  N35   1.479880 S    
N43   O125  1.301590 A    
C89   H45   1.083394 S    
O24   C12   1.293829 A    
N11   N15   1.328840 A    
N4    C43   1.354720 A    
C92   H48   1.083385 S    
C30   C154  1.485856 S    
C129  C149  1.530246 S    
C88   C103  1.459598 S    
C119  H63   1.106696 S    
N24   O63   1.301603 A    
C93   H49   1.082992 S    
Zn10  O45   2.036106 S    
O120  H88   1.013809 S    
C106  C146  1.542757 S    
N13   C101  1.356031 A    
C107  C147  1.541434 S    
C105  C145  1.542746 S    
C49   H13   1.104640 S    
N9    N13   1.328828 A    
C115  N39   1.490059 S    
C55   C71   1.559335 S    
Zn10  O42   2.028737 S    
C74   H30   1.104597 S    
C86   C101  1.459269 S    
C53   C69   1.557377 S    
N11   C104  1.355885 A    
C118  H58   1.110762 S    
C27   C31   1.415654 A    
O2    C2    1.284989 A    
N9    C102  1.355841 A    
C112  H56   1.107350 S    
C88   C92   1.396109 A    
N38   O99   1.302759 A    
O31   C15   1.294819 A    
C126  C130  1.586746 S    
C57   H21   1.113073 S    
O32   C16   1.294766 A    
C58   H26   1.109651 S    
N40   O104  1.298522 A    
O38   C138  1.278477 A    
C3    C63   1.464481 S    
C117  C133  1.525887 S    
C128  C136  1.544629 S    
O22   C10   1.293805 A    
C1    C61   1.461006 S    
C115  C123  1.610420 S    
N33   O89   1.300502 A    
C14   C98   1.475677 S    
C52   C68   1.585545 S    
N37   O97   1.302793 A    
C80   N28   1.433461 S    
N49   O137  1.301256 A    
N21   O58   1.302330 A    
N44   O128  1.302415 A    
Zn7   O23   2.023479 S    
C46   H10   1.116347 S    
Zn8   O24   2.023157 S    
N53   O145  1.301080 A    
N48   O136  1.301058 A    
C116  C124  1.610161 S    
C94   H50   1.083000 S    
C52   N56   1.479344 S    
N47   O133  1.301083 A    
C116  C132  1.584340 S    
O12   C8    1.291926 A    
N10   N14   1.328957 A    
O41   C141  1.279221 A    
C120  H60   1.111301 S    
C147  O77   1.221127 D    
C51   H15   1.108405 S    
C148  O79   1.221083 D    
C54   C62   1.544751 S    
O46   C142  1.270227 A    
H20   C56   1.112837 S    
C33   N45   1.433594 S    
