data_mof_unit_48095.cif
_audit_creation_date              2012-12-11T14:08:08-0500
_audit_creation_method            fapswitch 2.2
_symmetry_space_group_name_H-M    P1
_symmetry_Int_Tables_number       1
_space_group_crystal_system       triclinic
_cell_length_a                    10.900861
_cell_length_b                    10.95359
_cell_length_c                    18.764624
_cell_angle_alpha                 90.660196
_cell_angle_beta                  90.021562
_cell_angle_gamma                 60.349059
_cell_volume                      1947.00758728

loop_
_atom_site_label
_atom_site_type_symbol
_atom_type_description
_atom_site_fract_x
_atom_site_fract_y
_atom_site_fract_z
_atom_type_partial_charge
C1    C     C_R   0.238288 0.644807 0.609263 0.553459
C2    C     C_3   0.689375 0.539072 0.800294 -0.250956
C3    C     C_3   0.697750 0.673680 0.813263 0.056361
C4    C     C_3   0.667707 0.646492 0.677829 0.057649
C5    C     C_3   0.804036 0.653471 0.689877 -0.255344
C6    C     C_3   0.675692 0.520891 0.720215 -0.214253
C7    C     C_2   0.674426 0.158027 0.670843 -0.125384
C8    C     C_2   0.689068 0.166042 0.827897 -0.118383
C9    C     C_2   0.800741 0.122387 0.783853 -0.180831
C10   C     C_2   0.781831 0.155458 0.707274 -0.178830
C11   C     C_2   0.188172 0.658005 0.682610 -0.154325
C12   C     C_R   0.652498 0.620871 0.602350 0.545203
C13   C     C_2   0.197543 0.661348 0.839758 -0.073827
C14   C     C_2   0.212701 0.549928 0.801379 0.223685
C15   C     C_2   0.248186 0.543823 0.724479 -0.187014
C16   C     C_2   0.667529 0.659471 0.325594 -0.129780
C17   C     C_2   0.640885 0.683094 0.165352 0.277101
C18   C     C_2   0.715278 0.561092 0.199803 0.246719
C19   C     C_2   0.718488 0.552836 0.277621 -0.142665
C20   C     C_2   0.566872 0.320778 0.314399 -0.090660
C21   C     C_2   0.646076 0.180984 0.172658 0.291643
C22   C     C_2   0.512906 0.251923 0.198818 -0.129591
C23   C     C_R   0.628056 0.228217 0.602118 0.553595
C24   C     C_2   0.481731 0.293349 0.274290 -0.155666
C25   C     C_2   0.186373 0.658572 0.327607 -0.108342
C26   C     C_2   0.181968 0.644763 0.173063 -0.109605
C27   C     C_2   0.226596 0.717722 0.210548 -0.171265
C28   C     C_2   0.268176 0.681852 0.282948 -0.153174
C29   C     C_R   0.703541 0.101639 0.897427 0.554826
C30   C     C_R   0.722748 0.687675 0.888793 0.541934
C31   C     C_R   0.119484 0.705932 0.907384 0.563824
C32   C     C_R   0.674964 0.109086 0.104092 0.571325
C33   C     C_R   0.691826 0.690655 0.095008 0.580790
C34   C     C_R   0.223506 0.647911 0.401042 0.539802
C35   C     C_R   0.097447 0.706601 0.111241 0.544505
C36   C     C_R   0.646301 0.625089 0.396229 0.523187
C37   C     C_R   0.571275 0.308737 0.391322 0.574578
C38   C     C_3   0.558941 0.801980 0.786421 -0.236398
C39   C     C_3   0.539794 0.784345 0.706682 -0.238197
C40   C     C_3   0.823571 0.666142 0.770092 -0.223523
Cr1   Cr    Cr6+3 0.393010 0.398050 0.501480 1.005909
Cr2   Cr    Cr6+3 0.398820 0.707980 0.501630 1.006477
Cr3   Cr    Cr6+3 0.708140 0.393940 0.496850 1.000549
Cr4   Cr    Cr6+3 0.937950 0.938450 0.008940 1.003046
Cr5   Cr    Cr6+3 0.626180 0.937030 0.994750 0.991897
Cr6   Cr    Cr6+3 0.937790 0.625760 0.001410 1.032227
H1    H     H_    0.562478 0.901049 0.794736 0.143202
H2    H     H_    0.769144 0.421167 0.702409 0.140105
H3    H     H_    0.924209 0.573863 0.786748 0.171440
H4    H     H_    0.897383 0.557417 0.668160 0.131817
H5    H     H_    0.907499 0.058000 0.803431 0.148084
H6    H     H_    0.855672 0.180148 0.681273 0.143954
H7    H     H_    0.582782 0.231783 0.807957 0.108070
H8    H     H_    0.606807 0.124281 0.696319 0.098146
H9    H     H_    0.325239 0.442863 0.701817 0.137582
H10   H     H_    0.225648 0.734462 0.816074 0.048011
H11   H     H_    0.466570 0.811993 0.816772 0.116363
H12   H     H_    0.113857 0.761193 0.704091 0.092800
H13   H     H_    0.764189 0.446370 0.296459 0.143684
H14   H     H_    0.627397 0.768992 0.314818 0.170381
H15   H     H_    0.426163 0.258904 0.167214 0.096328
H16   H     H_    0.396684 0.283366 0.298511 0.138771
H17   H     H_    0.641400 0.344407 0.289973 0.163354
H18   H     H_    0.212443 0.816892 0.192254 0.149009
H19   H     H_    0.439969 0.781321 0.699188 0.144762
H20   H     H_    0.356818 0.692316 0.301936 0.163597
H21   H     H_    0.195210 0.545573 0.192299 0.102495
H22   H     H_    0.096843 0.648111 0.310263 0.083423
H23   H     H_    0.530015 0.876302 0.677148 0.118590
H24   H     H_    0.832721 0.761564 0.780813 0.118829
H25   H     H_    0.797611 0.745454 0.661841 0.117205
H26   H     H_    0.785610 0.445503 0.820529 0.132946
H27   H     H_    0.596764 0.546028 0.829061 0.115112
H28   H     H_    0.580137 0.511143 0.710139 0.120471
O1    O     O_R   0.507110 0.256280 0.580300 -0.521942
O2    O     O_R   0.524640 0.695370 0.425100 -0.499408
O3    O     O_R   0.735890 0.504390 0.415980 -0.530057
O4    O     O_R   0.690560 0.277820 0.422350 -0.512019
O5    O     O_3   0.499990 0.499990 0.499980 -0.275911
O6    O     O_R   0.089190 0.825870 0.932320 -0.541555
O7    O     O_R   0.819070 0.053960 0.931440 -0.499449
O8    O     O_R   0.607070 0.076440 0.916460 -0.517079
O9    O     O_R   0.647110 0.806550 0.917690 -0.516159
O10   O     O_R   0.837080 0.593860 0.915300 -0.517907
O11   O     O_R   0.064770 0.636080 0.932550 -0.437901
O12   O     O_R   0.280830 0.527190 0.577940 -0.498398
O13   O     O_R   0.068250 0.829200 0.092940 -0.528901
O14   O     O_R   0.799650 0.057040 0.080330 -0.481685
O15   O     O_R   0.586130 0.079760 0.077080 -0.555012
O16   O     O_R   0.627700 0.809630 0.066580 -0.518781
O17   O     O_R   0.816140 0.597180 0.075920 -0.505483
O18   O     O_R   0.045360 0.639170 0.081440 -0.510652
O19   O     O_3   0.833980 0.833750 0.001700 -0.256629
O20   O     O_R   0.261360 0.738990 0.584270 -0.514437
O21   O     O_R   0.532590 0.694780 0.574370 -0.505805
O22   O     O_R   0.744470 0.503750 0.577000 -0.528199
O23   O     O_R   0.698520 0.277230 0.571620 -0.493328
O24   O     O_R   0.498530 0.256920 0.419280 -0.513070
O25   O     O_R   0.272880 0.527780 0.428680 -0.515966
O26   O     O_R   0.252780 0.739630 0.423250 -0.514641
O27   O     O_3   0.193639 0.447229 0.835372 -0.531179
C41   C     C_3   0.215063 0.334228 0.790193 -0.009134
H29   H     H_    0.328018 0.272005 0.773996 0.124390
H30   H     H_    0.146398 0.372086 0.742320 0.122149
C42   C     C_3   0.177083 0.237752 0.830564 -0.364619
H31   H     H_    0.064504 0.296375 0.847407 0.156473
H32   H     H_    0.193952 0.148047 0.795702 0.085479
H33   H     H_    0.244591 0.196356 0.878471 0.162579
O28   O     O_3   0.779260 0.435902 0.160241 -0.547935
C43   C     C_3   0.925338 0.357020 0.175349 0.025023
H34   H     H_    0.943237 0.293735 0.224061 0.137696
H35   H     H_    0.973867 0.425283 0.182550 0.123874
C44   C     C_3   0.000401 0.256432 0.113280 -0.330436
H36   H     H_    0.973629 0.314435 0.062344 0.170767
H37   H     H_    0.116384 0.204620 0.120479 0.058062
H38   H     H_    0.968256 0.174883 0.110303 0.190547
O29   O     O_3   0.562366 0.808646 0.203063 -0.623846
C45   C     C_3   0.427526 0.894868 0.173828 -0.008807
H39   H     H_    0.386143 0.833441 0.145327 0.117487
H40   H     H_    0.431018 0.970274 0.136068 0.186299
C46   C     C_3   0.327490 0.982850 0.233769 -0.399217
H41   H     H_    0.360080 0.057049 0.255721 0.151696
H42   H     H_    0.218377 0.043824 0.213398 0.084827
H43   H     H_    0.329269 0.914681 0.277392 0.165531
O30   O     O_3   0.761743 0.164034 0.211428 -0.566799
C47   C     C_3   0.821939 0.034821 0.247601 -0.015314
H44   H     H_    0.870379 0.944557 0.209399 0.158272
H45   H     H_    0.741814 0.026028 0.280674 0.141889
C48   C     C_3   0.936510 0.026450 0.296858 -0.366428
H46   H     H_    0.894671 0.122089 0.331080 0.177923
H47   H     H_    0.974119 0.933704 0.331574 0.121542
H48   H     H_    0.026179 0.017774 0.265003 0.140778

loop_
_geom_bond_atom_site_label_1
_geom_bond_atom_site_label_2
_ccdc_geom_bond_type
C7    C10   D    
C47   H44   S    
C31   O11   A    
O29   C45   S    
Cr5   O8    S    
C1    C11   S    
C18   O28   S    
C10   H6    S    
C31   O6    A    
Cr5   O9    S    
C25   C28   D    
Cr1   O12   S    
C42   H32   S    
C26   C27   D    
O27   C41   S    
C40   H24   S    
C26   H21   S    
C48   H46   S    
C36   O3    A    
C33   O17   A    
C38   C39   S    
Cr6   O18   S    
C35   O13   A    
C40   H3    S    
C32   O14   A    
C41   C42   S    
C17   C18   D    
C18   C19   S    
C16   H14   S    
C30   O9    A    
C43   H34   S    
C46   H43   S    
Cr4   O19   S    
C36   O2    A    
C45   H39   S    
C11   C15   D    
C20   C24   D    
C3    C38   S    
C8    C9    D    
C9    H5    S    
C34   O26   A    
Cr1   O25   S    
C12   O21   A    
C4    C12   S    
C11   H12   S    
Cr5   O15   S    
C9    C10   S    
C17   O29   S    
C25   C34   S    
Cr6   O11   S    
C35   O18   A    
Cr5   O19   S    
Cr2   O5    S    
C13   C14   D    
C24   H16   S    
C39   H19   S    
C2    C6    S    
C25   H22   S    
C17   C33   S    
C48   H48   S    
C2    H26   S    
C37   O24   A    
C42   H33   S    
C6    H28   S    
C43   H35   S    
C21   C32   S    
Cr2   O21   S    
Cr4   O6    S    
C4    C6    S    
Cr4   O7    S    
C1    O20   A    
C14   O27   S    
Cr6   O17   S    
C47   C48   S    
C19   H13   S    
Cr3   O4    S    
C45   C46   S    
C15   H9    S    
C3    C30   S    
C28   H20   S    
C29   O7    A    
Cr2   O26   S    
Cr1   O1    S    
C38   H11   S    
C32   O15   A    
C14   C15   S    
C4    C39   S    
C38   H1    S    
Cr3   O22   S    
C39   H23   S    
C41   H30   S    
Cr5   O16   S    
C43   C44   S    
C46   H41   S    
C2    H27   S    
C6    H2    S    
Cr6   O10   S    
C23   O23   A    
C3    C40   S    
O30   C47   S    
C22   C24   S    
C5    H4    S    
C8    C29   S    
C21   O30   S    
Cr4   O13   S    
C44   H36   S    
C42   H31   S    
C1    O12   A    
C47   H45   S    
Cr2   O20   S    
C13   C31   S    
Cr3   O23   S    
C23   O1    A    
C4    C5    S    
C8    H7    S    
Cr1   O5    S    
C44   H38   S    
Cr3   O3    S    
C34   O25   A    
C37   O4    A    
Cr2   O2    S    
C13   H10   S    
C20   H17   S    
C2    C3    S    
C29   O8    A    
C5    H25   S    
Cr4   O14   S    
C33   O16   A    
C16   C36   S    
C22   H15   S    
C20   C37   S    
Cr6   O19   S    
C16   C19   D    
C7    C23   S    
C30   O10   A    
C41   H29   S    
C45   H40   S    
C46   H42   S    
C27   H18   S    
C26   C35   S    
C5    C40   S    
O28   C43   S    
C27   C28   S    
Cr1   O24   S    
C12   O22   A    
C7    H8    S    
C44   H37   S    
C21   C22   D    
Cr3   O5    S    
C48   H47   S    
