data_mof_unit_34229.cif
_audit_creation_date              2013-03-05T16:01:51-0500
_audit_creation_method            fapswitch 2.2
_symmetry_space_group_name_H-M    P1
_symmetry_Int_Tables_number       1
_space_group_crystal_system       triclinic
_cell_length_a                    20.987012
_cell_length_b                    7.349741
_cell_length_c                    13.56196
_cell_angle_alpha                 89.997304
_cell_angle_beta                  103.361103
_cell_angle_gamma                 89.997215
_cell_volume                      2035.29811489

loop_
_atom_site_label
_atom_site_type_symbol
_atom_site_description
_atom_site_fract_x
_atom_site_fract_y
_atom_site_fract_z
_atom_type_partial_charge
O1    O     O_R   0.449520 0.506760 0.599710 -0.559721
O2    O     O_R   0.550480 0.006760 0.400290 -0.559809
O3    O     O_R   0.587930 0.180200 0.595790 -0.555891
O4    O     O_R   0.412070 0.680200 0.404210 -0.555839
C1    C     C_R   0.614780 0.344692 0.617825 0.996434
C2    C     C_R   0.385214 0.844701 0.382193 0.996356
O5    O     O_R   0.452350 0.177380 0.611700 -0.588787
O6    O     O_R   0.547650 0.677380 0.388300 -0.588752
O7    O     O_R   0.413930 0.001760 0.416320 -0.578486
O8    O     O_R   0.586070 0.501760 0.583680 -0.578495
C3    C     C_R   0.433323 0.346039 0.634391 1.132845
C4    C     C_R   0.566681 0.846038 0.365618 1.132901
O9    O     O_3   0.487550 0.337460 0.435880 -0.278187
O10   O     O_3   0.512450 0.837460 0.564120 -0.278190
V1    V     V_3+5 0.502310 0.064670 0.511900 1.312389
V2    V     V_3+5 0.497690 0.564670 0.488100 1.312432
C5    C     C_R   0.616707 0.912214 0.115830 -0.210180
C6    C     C_R   0.383307 0.412061 0.884205 -0.210202
H1    H     H_    0.528794 0.907317 0.160351 0.208387
H2    H     H_    0.471222 0.407019 0.839693 0.208375
H3    H     H_    0.692112 0.919031 0.986332 0.138598
H4    H     H_    0.307894 0.418828 0.013703 0.138604
H5    H     H_    0.591213 0.934770 0.037601 0.144990
H6    H     H_    0.408804 0.434496 0.962442 0.144975
C7    C     C_R   0.609044 0.860670 0.289992 -0.275528
C8    C     C_R   0.390963 0.360672 0.710025 -0.275527
C9    C     C_R   0.921821 0.791587 0.304663 -0.223602
C10   C     C_R   0.078196 0.291924 0.695265 -0.223571
C11   C     C_R   0.890370 0.803981 0.384395 0.525254
C12   C     C_R   0.109660 0.304534 0.615546 0.524618
C13   C     C_R   0.828065 0.878579 0.365411 -0.142542
C14   C     C_R   0.171957 0.379150 0.634604 -0.143476
C15   C     C_R   0.788641 0.878444 0.266813 0.142834
C16   C     C_R   0.211373 0.378704 0.733207 0.143079
C17   C     C_R   0.822246 0.878172 0.185925 0.131655
C18   C     C_R   0.177762 0.378261 0.814086 0.131534
C19   C     C_R   0.717982 0.877714 0.245812 0.116121
C20   C     C_R   0.282030 0.377852 0.754212 0.116261
C21   C     C_R   0.684533 0.898866 0.142479 0.216182
C22   C     C_R   0.315478 0.398838 0.857552 0.216188
C23   C     C_R   0.718434 0.906365 0.064857 -0.154944
C24   C     C_R   0.281573 0.406276 0.935173 -0.154973
C25   C     C_R   0.785981 0.890366 0.085858 -0.201164
C26   C     C_R   0.214024 0.390319 0.914161 -0.201104
C27   C     C_R   0.678533 0.856396 0.320619 0.254081
C28   C     C_R   0.321474 0.356539 0.679398 0.254062
C29   C     C_R   0.580154 0.894123 0.187836 -0.084546
C30   C     C_R   0.419859 0.393967 0.812195 -0.084510
C31   C     C_R   0.891421 0.854398 0.208022 -0.216342
C32   C     C_R   0.108587 0.354485 0.791964 -0.216412
H7    H     H_    0.969510 0.732374 0.317596 0.200636
H8    H     H_    0.030516 0.232695 0.682292 0.200696
H9    H     H_    0.811195 0.928433 0.429090 0.192424
H10   H     H_    0.188854 0.429091 0.570966 0.192294
H11   H     H_    0.809530 0.884441 0.022843 0.118399
H12   H     H_    0.190470 0.384326 0.977169 0.118428
C33   C     C_R   0.234782 0.872527 0.029824 -0.040450
C34   C     C_R   0.765221 0.372559 0.970188 -0.040472
C35   C     C_R   0.289947 0.913517 0.990727 0.335115
C36   C     C_R   0.710060 0.413581 0.009289 0.335133
C37   C     C_R   0.350013 0.948096 0.055621 -0.013458
C38   C     C_R   0.649992 0.448171 0.944394 -0.013553
C39   C     C_R   0.358080 0.916187 0.159062 0.306349
C40   C     C_R   0.641919 0.416217 0.840955 0.306368
C41   C     C_R   0.304901 0.880081 0.204933 -0.113011
C42   C     C_R   0.695096 0.380086 0.795082 -0.112990
C43   C     C_R   0.240171 0.871475 0.138845 0.013879
C44   C     C_R   0.759827 0.371494 0.861166 0.013829
C45   C     C_R   0.315751 0.855463 0.313991 -0.162654
C46   C     C_R   0.684242 0.355420 0.686027 -0.162614
C47   C     C_R   0.259775 0.843835 0.358005 0.030947
C48   C     C_R   0.740215 0.343723 0.642011 0.030956
C49   C     C_R   0.194554 0.851125 0.292068 0.024638
C50   C     C_R   0.805436 0.351062 0.707940 0.024682
C51   C     C_R   0.184167 0.860316 0.182916 -0.135475
C52   C     C_R   0.815829 0.360326 0.817091 -0.135450
C53   C     C_R   0.265506 0.836136 0.467276 0.106338
C54   C     C_R   0.734480 0.335923 0.532741 0.106134
C55   C     C_R   0.208932 0.806460 0.504728 0.260453
C56   C     C_R   0.791054 0.306248 0.495291 0.260701
C57   C     C_R   0.148981 0.784308 0.438059 0.238834
C58   C     C_R   0.851013 0.284101 0.561967 0.239150
C59   C     C_R   0.140497 0.844194 0.339055 0.043330
C60   C     C_R   0.859491 0.344102 0.660952 0.043015
O11   O     O_R   0.913760 0.203480 0.916370 -0.588595
O12   O     O_R   0.086240 0.703480 0.083630 -0.588593
O13   O     O_R   0.047590 0.535230 0.888250 -0.583107
O14   O     O_R   0.952410 0.035230 0.111750 -0.583093
C61   C     C_R   0.068535 0.368169 0.869060 0.912156
C62   C     C_R   0.931459 0.868162 0.130924 0.912160
O15   O     O_R   0.912020 0.532880 0.904260 -0.595775
O16   O     O_R   0.087980 0.032880 0.095740 -0.595777
O17   O     O_R   0.949590 0.708460 0.099750 -0.585927
O18   O     O_R   0.050410 0.208460 0.900250 -0.585861
C63   C     C_R   0.885155 0.365363 0.884512 0.910271
C64   C     C_R   0.114843 0.865355 0.115492 0.910250
O19   O     O_3   0.012370 0.375360 0.064120 -0.281355
O20   O     O_3   0.987630 0.875360 0.935880 -0.281327
V3    V     V_3+5 0.997700 0.648160 0.988110 1.200978
V4    V     V_3+5 0.002300 0.148160 0.011890 1.200978
C65   C     C_3   0.173749 0.813742 0.952673 -0.731127
H13   H     H_    0.181525 0.779597 0.876933 0.277583
H14   H     H_    0.156653 0.683725 0.976791 0.218729
H15   H     H_    0.135909 0.921679 0.940657 0.247992
C66   C     C_3   0.826254 0.313730 0.047334 -0.731007
H16   H     H_    0.818476 0.279522 0.123064 0.277650
H17   H     H_    0.843353 0.183730 0.023201 0.218683
H18   H     H_    0.864093 0.421659 0.059363 0.247982
N1    N     N_R   0.286327 0.909214 0.883947 0.247463
O21   O     O_R   0.246383 0.016848 0.823747 -0.379075
O22   O     O_R   0.327493 0.811288 0.848249 -0.379231
N2    N     N_R   0.713685 0.409280 0.116074 0.247448
O23   O     O_R   0.753672 0.516780 0.176281 -0.379180
O24   O     O_R   0.672519 0.311384 0.151786 -0.379272
C67   C     C_3   0.408480 0.005706 0.014454 -0.778456
H19   H     H_    0.394754 0.055570 0.935496 0.259687
H20   H     H_    0.434493 0.121172 0.058849 0.245103
H21   H     H_    0.442357 0.888955 0.017204 0.248335
C68   C     C_3   0.591529 0.505828 0.985561 -0.778405
H22   H     H_    0.605263 0.555720 0.064510 0.259652
H23   H     H_    0.565514 0.621288 0.941149 0.245167
H24   H     H_    0.557654 0.389092 0.982840 0.248285
N3    N     N_R   0.423060 0.906342 0.215432 0.185343
O25   O     O_R   0.455381 0.056049 0.242794 -0.433956
O26   O     O_R   0.451888 0.748586 0.223915 -0.474495
N4    N     N_R   0.576938 0.406324 0.784596 0.185318
O27   O     O_R   0.544591 0.556002 0.757230 -0.433960
O28   O     O_R   0.548143 0.248527 0.776076 -0.474533
C69   C     C_3   0.328714 0.872096 0.546614 -0.669784
H25   H     H_    0.323399 0.896813 0.624394 0.278882
H26   H     H_    0.363159 0.757082 0.552364 0.231619
H27   H     H_    0.349694 0.002425 0.530534 0.232364
C70   C     C_3   0.671263 0.371767 0.453387 -0.669944
H28   H     H_    0.676564 0.396343 0.375587 0.278833
H29   H     H_    0.636836 0.256745 0.447702 0.231697
H30   H     H_    0.650263 0.502115 0.469392 0.232425
N5    N     N_R   0.209953 0.823805 0.610116 0.267127
O29   O     O_R   0.247080 0.720593 0.676522 -0.404269
O30   O     O_R   0.174031 0.946235 0.640183 -0.300045
N6    N     N_R   0.790018 0.323698 0.389900 0.267450
O31   O     O_R   0.752965 0.220348 0.323498 -0.404132
O32   O     O_R   0.826029 0.445918 0.359861 -0.300127
C71   C     C_3   0.074871 0.927891 0.295140 -0.688711
H31   H     H_    0.080758 0.065327 0.265106 0.269022
H32   H     H_    0.046402 0.833559 0.239347 0.191681
H33   H     H_    0.046212 0.951728 0.352656 0.271147
C72   C     C_3   0.925109 0.427819 0.704856 -0.688914
H34   H     H_    0.919214 0.565247 0.734889 0.269061
H35   H     H_    0.953593 0.333481 0.760644 0.191808
H36   H     H_    0.953756 0.451688 0.647333 0.271095
N7    N     N_R   0.706740 0.828659 0.426493 0.194156
O33   O     O_R   0.690759 0.933119 0.494323 -0.446756
O34   O     O_R   0.744931 0.691005 0.456427 -0.415293
N8    N     N_R   0.293258 0.328878 0.573521 0.194160
O35   O     O_R   0.309260 0.433326 0.505700 -0.446751
O36   O     O_R   0.255024 0.191328 0.543577 -0.414901
N9    N     N_R   0.917780 0.723453 0.481293 0.276791
O37   O     O_R   0.960717 0.594457 0.487678 -0.302660
O38   O     O_R   0.887753 0.740416 0.554682 -0.359144
N10   N     N_R   0.082297 0.224139 0.518595 0.276928
O39   O     O_R   0.039087 0.095830 0.511977 -0.302121
O40   O     O_R   0.112511 0.240534 0.445387 -0.358970
N11   N     N_R   0.095974 0.692999 0.467758 0.236208
O41   O     O_R   0.084162 0.714054 0.557092 -0.310803
O42   O     O_R   0.063216 0.571858 0.406742 -0.350396
N12   N     N_R   0.904041 0.192754 0.532318 0.237018
O43   O     O_R   0.915348 0.211918 0.442587 -0.311775
O44   O     O_R   0.936846 0.071908 0.593511 -0.350058

loop_
_geom_bond_atom_site_label_1
_geom_bond_atom_site_label_2
_geom_bond_distance
_ccdc_geom_bond_type
C2    C45   1.537462 S    
C42   C44   1.445701 A    
C39   C41   1.422659 A    
C65   H13   1.105528 S    
C9    C11   1.393961 A    
C57   N11   1.434330 S    
C72   H34   1.106679 S    
O1    C3    1.343884 A    
O2    V1    2.049767 S    
C31   C62   1.488503 S    
O2    C4    1.343877 A    
C2    O7    1.334586 A    
N2    O24   1.300821 A    
O3    V1    2.073558 S    
N3    O25   1.300877 A    
C21   C23   1.401280 A    
H4    C24   1.084453 S    
C12   N10   1.434888 S    
C66   H17   1.096845 S    
N9    O37   1.297010 A    
C50   C52   1.447156 A    
C6    H6    1.084880 S    
N11   O42   1.298972 A    
N6    O32   1.298610 A    
N1    O22   1.300820 A    
C52   C63   1.529529 S    
H1    C29   1.060423 S    
N3    O26   1.300543 A    
C34   C36   1.412803 A    
C67   H19   1.105147 S    
O16   C64   1.354888 A    
C36   C38   1.384061 A    
C5    C21   1.388786 A    
C61   O18   1.332612 A    
C45   C47   1.437998 A    
C6    C22   1.388785 A    
C48   C54   1.459931 A    
C15   C17   1.434701 A    
C10   C32   1.396989 A    
N11   O41   1.300803 A    
C41   C43   1.445710 A    
C17   C31   1.423692 A    
C70   H30   1.096984 S    
C38   C40   1.393547 A    
N7    O33   1.300308 A    
C13   C15   1.400472 A    
C17   C25   1.397019 A    
O17   V3    2.053001 S    
N8    O36   1.296286 A    
C8    C30   1.399746 A    
C69   H27   1.096989 S    
C22   C24   1.401306 A    
N5    O29   1.291968 A    
N9    O38   1.301215 A    
C20   C22   1.423411 A    
N12   O44   1.299007 A    
C49   C51   1.447150 A    
N12   O43   1.300190 A    
C24   C26   1.384929 A    
C33   C43   1.456582 A    
C14   H10   1.070882 S    
N2    O23   1.295633 A    
C57   C59   1.384814 A    
C9    H7    1.068014 S    
C51   C64   1.529502 S    
O13   V3    2.067538 S    
C53   C55   1.412095 A    
C28   N8    1.435561 S    
C66   H18   1.107563 S    
C35   C37   1.384040 A    
C72   H36   1.103452 S    
N6    O31   1.291950 A    
C56   C58   1.379034 A    
C71   H33   1.103516 S    
C47   C49   1.452716 A    
C11   N9    1.434797 S    
C3    C8    1.508481 S    
C67   H20   1.108565 S    
C14   C16   1.400453 A    
C56   N6    1.430194 S    
C15   C19   1.443962 A    
C27   N7    1.435551 S    
C40   C42   1.422659 A    
O4    V2    2.073443 S    
O5    C3    1.359246 A    
C37   C67   1.520949 S    
C1    C46   1.537442 S    
C36   N2    1.432888 S    
N5    O30   1.298599 A    
C26   H12   1.082457 S    
C32   C61   1.488644 S    
O18   V4    2.052988 S    
O6    C4    1.359246 A    
C67   H21   1.109452 S    
C59   C71   1.500270 S    
C37   C39   1.393518 A    
N8    O35   1.300309 A    
O1    V2    2.049756 S    
C5    H5    1.084882 S    
C13   H9    1.070867 S    
C68   H22   1.105154 S    
O12   V3    2.045467 S    
C38   C68   1.520938 S    
O14   V4    2.067528 S    
C68   H23   1.108566 S    
O12   C64   1.357491 A    
H3    C23   1.084455 S    
C48   C50   1.452702 A    
C55   N5    1.430169 S    
O14   C62   1.349653 A    
C65   H15   1.107561 S    
C40   N4    1.402705 S    
O13   C61   1.349612 A    
C70   H28   1.101141 S    
C18   C26   1.397029 A    
O4    C2    1.338186 A    
C43   C51   1.438793 A    
C19   C27   1.458579 A    
C7    C27   1.421390 A    
C47   C53   1.459931 A    
O19   V4    1.807154 S    
C18   C32   1.423706 A    
O16   V4    2.073434 S    
C62   O17   1.332528 A    
C55   C57   1.378876 A    
C69   H25   1.101162 S    
C58   N12   1.434481 S    
C60   C72   1.500256 S    
C25   H11   1.082453 S    
C71   H32   1.096068 S    
C7    C29   1.399722 A    
N4    O28   1.300549 A    
H2    C30   1.060415 S    
C72   H35   1.096091 S    
C16   C20   1.443911 A    
C68   H24   1.109449 S    
C23   C25   1.384889 A    
C5    C29   1.380596 A    
C50   C60   1.424708 A    
O3    C1    1.338186 A    
C6    C30   1.380625 A    
C39   N3    1.402701 S    
C53   C69   1.525675 S    
C10   H8    1.067919 S    
C44   C52   1.438777 A    
C33   C65   1.517516 S    
C66   H16   1.105521 S    
C58   C60   1.384880 A    
C65   H14   1.096871 S    
C4    C7    1.508437 S    
C34   C66   1.517501 S    
N10   O39   1.297007 A    
C10   C12   1.394088 A    
O7    V1    2.055088 S    
C1    O8    1.334573 A    
C11   C13   1.386012 A    
O11   V4    2.045408 S    
O8    V2    2.055019 S    
N1    O21   1.295631 A    
C12   C14   1.385929 A    
O11   C63   1.357460 A    
C34   C44   1.456575 A    
C42   C46   1.454828 A    
N4    O27   1.300872 A    
C41   C45   1.454806 A    
O5    V1    2.067229 S    
C35   N1    1.432853 S    
C16   C18   1.434686 A    
C54   C56   1.412077 A    
N7    O34   1.296273 A    
C54   C70   1.525724 S    
C20   C28   1.458578 A    
C33   C35   1.412800 A    
C8    C28   1.421389 A    
O15   C63   1.354917 A    
C9    C31   1.396927 A    
C19   C21   1.423439 A    
O6    V2    2.067219 S    
O20   V3    1.807073 S    
O9    V2    1.807212 S    
C70   H29   1.103168 S    
O10   V1    1.807132 S    
C46   C48   1.437981 A    
O15   V3    2.073553 S    
C49   C59   1.424741 A    
C71   H31   1.106678 S    
N10   O40   1.301271 A    
C69   H26   1.103228 S    
