data_mof_unit_9580.cif
_audit_creation_date              2012-12-10T18:09:33-0500
_audit_creation_method            fapswitch 2.2
_symmetry_space_group_name_H-M    P1
_symmetry_Int_Tables_number       1
_space_group_crystal_system       triclinic
_cell_length_a                    15.339972
_cell_length_b                    15.06436
_cell_length_c                    9.398844
_cell_angle_alpha                 89.999929
_cell_angle_beta                  89.586324
_cell_angle_gamma                 90.000114
_cell_volume                      2171.8927432

loop_
_atom_site_label
_atom_site_type_symbol
_atom_type_description
_atom_site_fract_x
_atom_site_fract_y
_atom_site_fract_z
_atom_type_partial_charge
C1    C     C_R   0.121101 0.380924 0.499924 0.849242
C2    C     C_R   0.121105 0.619072 0.499924 0.849240
C3    C     C_R   0.621101 0.880924 0.499924 0.849237
C4    C     C_R   0.621107 0.119070 0.499924 0.849238
C5    C     C_3   0.045905 0.579422 0.083302 -0.187989
C6    C     C_3   0.046411 0.579105 0.915743 -0.196962
C7    C     C_3   0.545937 0.079404 0.083302 -0.187968
C8    C     C_3   0.546435 0.079091 0.915743 -0.196957
C9    C     C_R   0.881946 0.377701 0.500449 0.872794
C10   C     C_R   0.881944 0.622297 0.500449 0.872802
C11   C     C_R   0.381946 0.877701 0.500449 0.872796
C12   C     C_R   0.381944 0.122297 0.500449 0.872808
C13   C     C_3   0.800548 0.268481 0.656246 0.936641
C14   C     C_3   0.838996 0.229947 0.395012 0.950371
C15   C     C_3   0.800508 0.731479 0.656262 0.936638
C16   C     C_3   0.839011 0.770072 0.395071 0.950348
C17   C     C_3   0.300532 0.768497 0.656253 0.936638
C18   C     C_3   0.339003 0.729938 0.395038 0.950364
C19   C     C_3   0.300511 0.231483 0.656260 0.936630
C20   C     C_3   0.339009 0.270070 0.395066 0.950358
C21   C     C_3   0.228973 0.696572 0.652316 -0.459574
C22   C     C_3   0.266811 0.657552 0.400648 -0.477417
C23   C     C_3   0.228951 0.303405 0.652324 -0.459574
C24   C     C_3   0.266815 0.342454 0.400677 -0.477421
C25   C     C_3   0.728990 0.196556 0.652310 -0.459573
C26   C     C_3   0.766807 0.157559 0.400623 -0.477421
C27   C     C_3   0.728951 0.803405 0.652325 -0.459574
C28   C     C_3   0.766816 0.842454 0.400678 -0.477420
C29   C     C_3   0.726687 0.348003 0.452604 -0.519188
C30   C     C_3   0.726694 0.652002 0.452532 -0.519169
C31   C     C_3   0.226692 0.848000 0.452574 -0.519177
C32   C     C_3   0.226693 0.152000 0.452540 -0.519171
C33   C     C_3   0.814357 0.306722 0.501677 -0.069558
C34   C     C_3   0.814352 0.693273 0.501679 -0.069550
C35   C     C_3   0.314356 0.806723 0.501678 -0.069554
C36   C     C_3   0.314352 0.193273 0.501679 -0.069555
C37   C     C_3   0.191414 0.686337 0.500526 -0.055628
C38   C     C_3   0.191408 0.313657 0.500526 -0.055628
C39   C     C_3   0.691417 0.186334 0.500525 -0.055637
C40   C     C_3   0.691409 0.813657 0.500526 -0.055622
C41   C     C_3   0.154874 0.776583 0.450511 -0.383732
C42   C     C_3   0.154874 0.223417 0.450476 -0.383715
C43   C     C_3   0.654871 0.276584 0.450539 -0.383708
C44   C     C_3   0.654874 0.723417 0.450475 -0.383730
C45   C     C_3   0.911360 0.499952 0.084837 -0.205881
C46   C     C_3   0.911483 0.499963 0.917367 -0.180962
C47   C     C_3   0.045987 0.420626 0.083302 -0.187952
C48   C     C_3   0.046476 0.420933 0.915744 -0.196958
C49   C     C_3   0.411361 0.999989 0.084837 -0.205886
C50   C     C_3   0.411483 0.999989 0.917367 -0.180960
C51   C     C_3   0.545956 0.920608 0.083302 -0.187968
C52   C     C_3   0.546453 0.920920 0.915743 -0.196965
Cu1   Cu    Cu3+1 0.000100 0.500000 0.642410 0.953709
Cu2   Cu    Cu3+1 0.000100 0.500000 0.357590 0.933462
Cu3   Cu    Cu3+1 0.500100 0.000000 0.642410 0.953711
Cu4   Cu    Cu3+1 0.500100 0.000000 0.357590 0.933461
H1    H     H_    0.255474 0.631332 0.687128 0.153239
H2    H     H_    0.293879 0.593363 0.439123 0.148786
H3    H     H_    0.255447 0.368642 0.687162 0.153239
H4    H     H_    0.293878 0.406639 0.439180 0.148788
H5    H     H_    0.755495 0.131312 0.687101 0.153233
H6    H     H_    0.793880 0.093367 0.439078 0.148788
H7    H     H_    0.755450 0.868641 0.687161 0.153239
H8    H     H_    0.793876 0.906641 0.439178 0.148787
H9    H     H_    0.176128 0.714847 0.728747 0.197988
H10   H     H_    0.241959 0.645510 0.291361 0.184913
H11   H     H_    0.176098 0.285121 0.728735 0.197985
H12   H     H_    0.241974 0.354509 0.291388 0.184905
H13   H     H_    0.676152 0.214822 0.728758 0.197991
H14   H     H_    0.741945 0.145525 0.291340 0.184917
H15   H     H_    0.676098 0.785124 0.728737 0.197985
H16   H     H_    0.741974 0.854506 0.291387 0.184907
H17   H     H_    0.706804 0.403008 0.524934 0.218951
H18   H     H_    0.733581 0.377608 0.344603 0.218596
H19   H     H_    0.706799 0.596976 0.524815 0.218923
H20   H     H_    0.733610 0.622425 0.344515 0.218609
H21   H     H_    0.206804 0.903013 0.524884 0.218942
H22   H     H_    0.233595 0.877593 0.344566 0.218602
H23   H     H_    0.206798 0.096979 0.524830 0.218931
H24   H     H_    0.233607 0.122418 0.344526 0.218606
H25   H     H_    0.100090 0.797273 0.521347 0.227207
H26   H     H_    0.129228 0.770133 0.340595 0.192290
H27   H     H_    0.100082 0.202717 0.521289 0.227213
H28   H     H_    0.129239 0.229878 0.340554 0.192289
H29   H     H_    0.600091 0.297267 0.521388 0.227204
H30   H     H_    0.629218 0.270143 0.340626 0.192297
H31   H     H_    0.600085 0.702716 0.521292 0.227215
H32   H     H_    0.629237 0.729879 0.340556 0.192284
H33   H     H_    0.874839 0.559002 0.123601 0.189510
H34   H     H_    0.875060 0.558689 0.879161 0.211663
H35   H     H_    0.114628 0.418456 0.120337 0.140381
H36   H     H_    0.115439 0.419772 0.878499 0.140967
H37   H     H_    0.374866 0.059060 0.123588 0.189545
H38   H     H_    0.375075 0.058722 0.879152 0.211675
H39   H     H_    0.614594 0.918405 0.120343 0.140393
H40   H     H_    0.615418 0.919741 0.878507 0.140967
H41   H     H_    0.874906 0.440852 0.123574 0.189643
H42   H     H_    0.875105 0.441212 0.879148 0.211705
H43   H     H_    0.013885 0.359097 0.123057 0.165704
H44   H     H_    0.015799 0.359241 0.875152 0.161003
H45   H     H_    0.374880 0.940909 0.123587 0.189592
H46   H     H_    0.375090 0.941245 0.879156 0.211690
H47   H     H_    0.513825 0.859092 0.123049 0.165741
H48   H     H_    0.515763 0.859237 0.875141 0.161030
H49   H     H_    0.013732 0.640916 0.123041 0.165798
H50   H     H_    0.015694 0.640771 0.875130 0.161072
H51   H     H_    0.114541 0.581675 0.120349 0.140410
H52   H     H_    0.115378 0.580317 0.878518 0.140969
H53   H     H_    0.513792 0.140911 0.123049 0.165770
H54   H     H_    0.515731 0.140766 0.875140 0.161052
H55   H     H_    0.614575 0.081623 0.120343 0.140399
H56   H     H_    0.615399 0.080286 0.878509 0.140972
N1    N     N_3   0.001260 0.500000 0.143650 -0.125270
N2    N     N_3   0.001260 0.500000 0.856350 -0.134605
N3    N     N_3   0.501260 0.000000 0.143650 -0.125271
N4    N     N_3   0.501260 0.000000 0.856350 -0.134609
O1    O     O_R   0.091250 0.408820 0.620260 -0.603438
O2    O     O_R   0.091250 0.408820 0.379740 -0.602753
O3    O     O_R   0.091250 0.591180 0.620260 -0.603433
O4    O     O_R   0.091250 0.591180 0.379740 -0.602749
O5    O     O_R   0.591250 0.908820 0.620260 -0.603439
O6    O     O_R   0.591250 0.908820 0.379740 -0.602753
O7    O     O_R   0.591250 0.091180 0.620260 -0.603433
O8    O     O_R   0.591250 0.091180 0.379740 -0.602747
O9    O     O_R   0.908940 0.408800 0.620260 -0.544376
O10   O     O_R   0.908940 0.408800 0.379740 -0.569308
O11   O     O_R   0.908940 0.591200 0.620260 -0.544358
O12   O     O_R   0.908940 0.591200 0.379740 -0.569311
O13   O     O_R   0.408940 0.908800 0.620260 -0.544368
O14   O     O_R   0.408940 0.908800 0.379740 -0.569311
O15   O     O_R   0.408940 0.091200 0.620260 -0.544361
O16   O     O_R   0.408940 0.091200 0.379740 -0.569313
F1    F     F_    0.771743 0.337085 0.744549 -0.710700
F2    F     F_    0.842131 0.265054 0.257600 -0.723980
F3    F     F_    0.771685 0.662852 0.744505 -0.710700
F4    F     F_    0.842181 0.734994 0.257642 -0.723998
F5    F     F_    0.271720 0.837111 0.744531 -0.710693
F6    F     F_    0.342153 0.765033 0.257619 -0.723987
F7    F     F_    0.271694 0.162857 0.744513 -0.710700
F8    F     F_    0.342173 0.234990 0.257638 -0.723997
O17   O     O_3   0.880384 0.232200 0.706555 -0.591460
C53   C     C_3   0.879180 0.219975 0.855882 -0.213523
H57   H     H_    0.823113 0.178924 0.892156 0.145570
H58   H     H_    0.878766 0.284491 0.912760 0.200821
H59   H     H_    0.939599 0.184641 0.886726 0.160068
O18   O     O_3   0.921058 0.192996 0.432318 -0.594821
C54   C     C_3   0.957775 0.143831 0.318415 -0.287295
H60   H     H_    0.985704 0.189331 0.236955 0.189230
H61   H     H_    0.910260 0.098014 0.268037 0.148971
H62   H     H_    0.011515 0.102301 0.360177 0.166305
O19   O     O_3   0.880331 0.767749 0.706646 -0.591460
C55   C     C_3   0.879083 0.779950 0.855977 -0.213473
H63   H     H_    0.878636 0.715427 0.912833 0.200847
H64   H     H_    0.823016 0.821009 0.892225 0.145544
H65   H     H_    0.939501 0.815265 0.886887 0.160071
O20   O     O_3   0.921061 0.807022 0.432446 -0.594819
C56   C     C_3   0.957792 0.856225 0.318597 -0.287282
H66   H     H_    0.910284 0.902058 0.268241 0.148964
H67   H     H_    0.985732 0.810753 0.237107 0.189237
H68   H     H_    0.011526 0.897742 0.360414 0.166332
O21   O     O_3   0.380361 0.732218 0.706594 -0.591462
C57   C     C_3   0.379137 0.720004 0.855922 -0.213480
H69   H     H_    0.323059 0.678967 0.892191 0.145562
H70   H     H_    0.378727 0.784523 0.912789 0.200816
H71   H     H_    0.439545 0.684660 0.886794 0.160067
O22   O     O_3   0.421060 0.692987 0.432373 -0.594821
C58   C     C_3   0.457782 0.643806 0.318493 -0.287299
H72   H     H_    0.485715 0.689294 0.237019 0.189236
H73   H     H_    0.410270 0.597981 0.268126 0.148967
H74   H     H_    0.511520 0.602282 0.360279 0.166313
O23   O     O_3   0.380335 0.267759 0.706633 -0.591463
C59   C     C_3   0.379094 0.279960 0.855963 -0.213452
H75   H     H_    0.378674 0.215436 0.912817 0.200819
H76   H     H_    0.323013 0.320997 0.892224 0.145554
H77   H     H_    0.439500 0.315299 0.886861 0.160070
O24   O     O_3   0.421061 0.307017 0.432432 -0.594817
C60   C     C_3   0.457790 0.356219 0.318579 -0.287286
H78   H     H_    0.410282 0.402055 0.268230 0.148959
H79   H     H_    0.485724 0.310746 0.237085 0.189243
H80   H     H_    0.511528 0.397733 0.360390 0.166327

loop_
_geom_bond_atom_site_label_1
_geom_bond_atom_site_label_2
_ccdc_geom_bond_type
C12   O16   A    
C16   C28   S    
O23   C59   S    
Cu3   O5    S    
C56   H66   S    
C12   O15   A    
Cu2   O4    S    
C54   H60   S    
Cu3   Cu4   S    
C30   C44   S    
C14   C33   S    
C15   O19   S    
O21   C57   S    
C18   O22   S    
C7    C8    S    
C58   H73   S    
C5    H49   S    
C45   C46   S    
C59   H75   S    
C23   H3    S    
Cu2   O10   S    
C57   H69   S    
C32   C36   S    
O20   C56   S    
C54   H61   S    
C19   O23   S    
C38   C42   S    
C19   C36   S    
C8    H56   S    
C49   H45   S    
C5    C6    S    
Cu1   O1    S    
C26   C39   S    
C29   H17   S    
Cu3   N4    S    
C28   C40   S    
C51   H47   S    
Cu2   N1    S    
C29   C33   S    
C47   H43   S    
C4    O8    A    
C7    N3    S    
C18   F6    S    
C6    N2    S    
Cu1   O11   S    
C16   C34   S    
C22   H10   S    
C20   C24   S    
C60   H79   S    
C16   O20   S    
C24   C38   S    
O19   C55   S    
C55   H65   S    
C13   O17   S    
C12   C36   S    
C44   H31   S    
C45   H33   S    
C18   C35   S    
C15   C34   S    
C3    O6    A    
Cu1   O9    S    
C21   H9    S    
C46   H42   S    
C56   H67   S    
C29   C43   S    
C9    C33   S    
C53   H59   S    
C13   C25   S    
C28   H16   S    
C13   F1    S    
C10   O12   A    
C11   O13   A    
C59   H76   S    
C31   H21   S    
C58   H74   S    
C57   H70   S    
C52   N4    S    
C48   H44   S    
Cu3   O7    S    
C30   C34   S    
C51   C52   S    
C43   H29   S    
C54   H62   S    
C42   H28   S    
C58   H72   S    
C2    O4    A    
C50   H38   S    
C25   H5    S    
C29   H18   S    
C14   F2    S    
Cu3   O13   S    
Cu1   Cu2   S    
C22   C37   S    
Cu2   O12   S    
C51   N3    S    
C7    H53   S    
C4    O7    A    
Cu4   O6    S    
C19   C23   S    
C21   H1    S    
C8    H54   S    
C32   H24   S    
C57   H71   S    
C30   H20   S    
C15   C27   S    
C47   C48   S    
C4    C39   S    
C27   C40   S    
C24   H4    S    
C60   H80   S    
C41   H25   S    
Cu1   O3    S    
C6    H50   S    
C21   C37   S    
C10   C34   S    
C1    O1    A    
C14   C26   S    
Cu4   O16   S    
C17   O21   S    
C1    C38   S    
C60   H78   S    
C28   H8    S    
O24   C60   S    
C49   N3    S    
C55   H64   S    
C3    C40   S    
C50   H46   S    
C56   H68   S    
Cu3   O15   S    
Cu2   O2    S    
O22   C58   S    
C26   H14   S    
C53   H58   S    
C25   H13   S    
C10   O11   A    
C16   F4    S    
C11   O14   A    
Cu4   O8    S    
C27   H15   S    
Cu1   N2    S    
C31   H22   S    
C48   N2    S    
O18   C54   S    
C5    H51   S    
C47   N1    S    
C52   H48   S    
C32   C42   S    
C31   C41   S    
C5    N1    S    
C18   C22   S    
C43   H30   S    
C47   H35   S    
C42   H27   S    
C46   N2    S    
C22   H2    S    
C39   C43   S    
C2    O3    A    
C59   H77   S    
C13   C33   S    
C46   H34   S    
C23   C38   S    
C14   O18   S    
C9    O10   A    
C24   H12   S    
C20   F8    S    
C11   C35   S    
C26   H6    S    
C45   H41   S    
O17   C53   S    
C25   C39   S    
C32   H23   S    
C30   H19   S    
C2    C37   S    
C20   O24   S    
C23   H11   S    
C41   H26   S    
C31   C35   S    
Cu4   N3    S    
C7    H55   S    
C52   H40   S    
C50   N4    S    
C1    O2    A    
C37   C41   S    
C9    O9    A    
C8    N4    S    
C20   C36   S    
C45   N1    S    
C40   C44   S    
C15   F3    S    
C55   H63   S    
C19   F7    S    
C49   C50   S    
C48   H36   S    
C6    H52   S    
C53   H57   S    
C27   H7    S    
C17   F5    S    
C17   C35   S    
C49   H37   S    
C44   H32   S    
Cu4   O14   S    
C3    O5    A    
C51   H39   S    
C17   C21   S    
