data_mof_unit_46954.cif
_audit_creation_date              2012-12-10T21:11:36-0500
_audit_creation_method            fapswitch 2.2
_symmetry_space_group_name_H-M    P1
_symmetry_Int_Tables_number       1
_space_group_crystal_system       triclinic
_cell_length_a                    17.429994
_cell_length_b                    16.748157
_cell_length_c                    10.671419
_cell_angle_alpha                 90.0057
_cell_angle_beta                  90.015277
_cell_angle_gamma                 90.174385
_cell_volume                      3115.18902485

loop_
_atom_site_label
_atom_site_type_symbol
_atom_type_description
_atom_site_fract_x
_atom_site_fract_y
_atom_site_fract_z
_atom_type_partial_charge
C1    C     C_R   0.353090 0.499909 0.502747 0.940162
C2    C     C_R   0.459547 0.167527 0.408856 -0.277414
C3    C     C_R   0.539938 0.748265 0.410633 0.001372
C4    C     C_R   0.540232 0.252104 0.589218 -0.006289
C5    C     C_R   0.459859 0.747906 0.589294 -0.006268
C6    C     C_R   0.459963 0.251726 0.410712 0.001387
C7    C     C_R   0.499919 0.875554 0.500199 0.172353
C8    C     C_R   0.500069 0.124446 0.500203 0.172358
C9    C     C_1   0.499965 0.963420 0.500336 -0.055147
C10   C     C_1   0.500021 0.036580 0.500338 -0.055170
C11   C     C_R   0.499989 0.499996 0.260296 0.871881
C12   C     C_R   0.646911 0.500091 0.502784 0.940089
C13   C     C_R   0.500010 0.500004 0.739591 0.901053
C14   C     C_R   0.361775 0.533660 0.129813 -0.146456
C15   C     C_R   0.637492 0.463040 0.869603 -0.106593
C16   C     C_R   0.362531 0.537021 0.869474 -0.106444
C17   C     C_R   0.638213 0.466332 0.129946 -0.146401
C18   C     C_R   0.294605 0.551266 0.064646 -0.138970
C19   C     C_R   0.704977 0.446916 0.934686 -0.150520
C20   C     C_R   0.295039 0.553140 0.934491 -0.150466
C21   C     C_R   0.705394 0.448754 0.064844 -0.138920
C22   C     C_R   0.431300 0.518647 0.934336 0.061692
C23   C     C_R   0.885445 0.494901 0.570182 0.028094
C24   C     C_R   0.568915 0.482300 0.065191 0.050568
C25   C     C_R   0.431078 0.517699 0.065125 0.050563
C26   C     C_R   0.568710 0.481382 0.934401 0.061701
C27   C     C_R   0.500007 0.500014 0.871552 -0.191065
C28   C     C_R   0.499992 0.499991 0.128104 -0.185683
C29   C     C_R   0.840068 0.548567 0.636223 -0.278911
C30   C     C_R   0.159987 0.451472 0.636232 -0.278967
C31   C     C_R   0.146275 0.557180 0.482321 -0.275741
C32   C     C_R   0.853714 0.442781 0.482411 -0.275795
C33   C     C_R   0.761631 0.552652 0.611398 0.383899
C34   C     C_R   0.114581 0.505101 0.570144 0.028084
C35   C     C_R   0.238416 0.447388 0.611411 0.383899
C36   C     C_R   0.225099 0.556607 0.460340 0.392079
C37   C     C_R   0.774882 0.443351 0.460433 0.392098
C38   C     C_R   0.729229 0.499871 0.522831 -0.243369
C39   C     C_R   0.270780 0.500128 0.522792 -0.243332
C40   C     C_3   0.726642 0.681554 0.649768 0.111761
C41   C     C_3   0.668273 0.732952 0.719370 -0.294986
C42   C     C_3   0.676626 0.820998 0.685111 -0.982572
C43   C     C_3   0.273415 0.318512 0.649995 0.111727
C44   C     C_3   0.331921 0.267190 0.719465 -0.294893
C45   C     C_1   0.965965 0.498336 0.582328 -0.019976
C46   C     C_3   0.323534 0.179113 0.685398 -0.982522
C47   C     C_3   0.253520 0.685497 0.405966 0.095379
C48   C     C_3   0.307045 0.734290 0.322086 -0.301110
C49   C     C_3   0.303725 0.823037 0.353876 -0.975759
C50   C     C_3   0.746485 0.314430 0.406111 0.095406
C51   C     C_3   0.692946 0.265589 0.322260 -0.301074
C52   C     C_3   0.696338 0.176849 0.354050 -0.975796
C53   C     C_1   0.034066 0.501671 0.582316 -0.019971
C54   C     C_R   0.540345 0.832464 0.408771 -0.277482
C55   C     C_R   0.540598 0.167911 0.591409 -0.272734
C56   C     C_R   0.459489 0.832099 0.591484 -0.272786
H1    H     H_    0.757912 0.436701 0.115470 0.172587
H2    H     H_    0.134491 0.412505 0.705899 0.153611
H3    H     H_    0.109640 0.596808 0.428954 0.150610
H4    H     H_    0.890329 0.403128 0.429074 0.150586
H5    H     H_    0.572382 0.863619 0.336792 0.138382
H6    H     H_    0.572722 0.137056 0.663418 0.136819
H7    H     H_    0.427441 0.862961 0.663555 0.136840
H8    H     H_    0.427430 0.136363 0.336939 0.138366
H9    H     H_    0.571703 0.715702 0.340271 0.128574
H10   H     H_    0.572099 0.284973 0.659385 0.125200
H11   H     H_    0.428067 0.715046 0.659521 0.125201
H12   H     H_    0.242927 0.566724 0.883647 0.140184
H13   H     H_    0.428127 0.284284 0.340411 0.128547
H14   H     H_    0.718264 0.689975 0.546946 0.140213
H15   H     H_    0.785353 0.701681 0.676405 0.123313
H16   H     H_    0.609421 0.712453 0.695539 0.246773
H17   H     H_    0.676472 0.725848 0.822068 0.219305
H18   H     H_    0.733911 0.843613 0.714055 0.259688
H19   H     H_    0.631801 0.856178 0.734017 0.271306
H20   H     H_    0.669733 0.829426 0.582554 0.272132
H21   H     H_    0.281623 0.310010 0.547156 0.140101
H22   H     H_    0.214755 0.298389 0.676888 0.123378
H23   H     H_    0.757099 0.433356 0.883893 0.140199
H24   H     H_    0.390725 0.287691 0.695363 0.246840
H25   H     H_    0.323905 0.274382 0.822184 0.219324
H26   H     H_    0.266316 0.156494 0.714661 0.259676
H27   H     H_    0.368478 0.143993 0.734155 0.271310
H28   H     H_    0.330217 0.170600 0.582818 0.272079
H29   H     H_    0.272470 0.693278 0.505221 0.136891
H30   H     H_    0.194002 0.708332 0.395151 0.132318
H31   H     H_    0.366850 0.712749 0.334088 0.244441
H32   H     H_    0.290450 0.725788 0.222361 0.220136
H33   H     H_    0.245462 0.846791 0.334736 0.258960
H34   H     H_    0.242083 0.563315 0.115220 0.172587
H35   H     H_    0.345844 0.856172 0.295484 0.271158
H36   H     H_    0.317901 0.832895 0.454106 0.269618
H37   H     H_    0.727587 0.306660 0.505375 0.136846
H38   H     H_    0.806009 0.291625 0.395273 0.132308
H39   H     H_    0.633134 0.287092 0.334290 0.244427
H40   H     H_    0.709485 0.274089 0.222525 0.220151
H41   H     H_    0.754606 0.153132 0.334879 0.258968
H42   H     H_    0.654209 0.143678 0.295681 0.271167
H43   H     H_    0.682222 0.166996 0.454288 0.269584
H44   H     H_    0.358792 0.532116 0.230853 0.172169
H45   H     H_    0.639964 0.461232 0.768497 0.141723
H46   H     H_    0.360073 0.538865 0.768369 0.141728
H47   H     H_    0.641183 0.467852 0.230990 0.172187
H48   H     H_    0.865593 0.587570 0.705848 0.153630
N1    N     N_R   0.500000 0.707230 0.500000 -0.095670
N2    N     N_R   0.500000 0.292770 0.500000 -0.095743
O1    O     O_R   0.389110 0.566570 0.499990 -0.616023
O2    O     O_3   0.285093 0.399116 0.683814 -0.635718
O3    O     O_3   0.256972 0.604733 0.368542 -0.663810
O4    O     O_3   0.742971 0.395186 0.368677 -0.663785
O5    O     O_R   0.610890 0.433430 0.500010 -0.615944
O6    O     O_R   0.610890 0.566570 0.500010 -0.604223
O7    O     O_R   0.389110 0.433430 0.499990 -0.604240
O8    O     O_R   0.499990 0.566540 0.316770 -0.627764
O9    O     O_R   0.500010 0.433460 0.683230 -0.628186
O10   O     O_R   0.500010 0.566540 0.683230 -0.628200
O11   O     O_R   0.499990 0.433460 0.316770 -0.627701
O12   O     O_3   0.714993 0.600979 0.683751 -0.635696
Zn1   Zn    Zn3+2 0.500000 0.588860 0.500000 0.936266
Zn2   Zn    Zn3+2 0.500000 0.411140 0.500000 0.936276

loop_
_geom_bond_atom_site_label_1
_geom_bond_atom_site_label_2
_ccdc_geom_bond_type
C6    H13   S    
C40   O12   S    
C23   C45   S    
C40   H15   S    
C41   C42   S    
C14   C18   A    
C5    C56   A    
C5    H11   S    
C5    N1    A    
C3    N1    A    
C25   C28   A    
C15   C19   A    
C42   H19   S    
C40   H14   S    
C30   C35   A    
C23   C29   A    
C19   C21   A    
C24   C26   A    
C3    C54   A    
C55   H6    S    
C29   C33   A    
C52   H41   S    
C50   O4    S    
C31   H3    S    
C11   O8    A    
C35   O2    S    
C46   H26   S    
C2    H8    S    
C22   C25   A    
C48   H32   S    
C9    C10   T    
O8    Zn1   S    
C51   H40   S    
C45   C53   T    
C33   O12   S    
C2    C6    A    
C1    O7    A    
C7    C56   A    
C49   H35   S    
C8    C55   A    
O1    Zn1   S    
C44   C46   S    
C3    H9    S    
C56   H7    S    
C17   C24   A    
C42   H18   S    
C30   C34   A    
C51   C52   S    
C18   H34   S    
C47   H30   S    
C44   H24   S    
C44   H25   S    
O11   Zn2   S    
C50   H38   S    
C15   C26   A    
C47   O3    S    
C4    N2    A    
C17   C21   A    
C29   H48   S    
O5    Zn2   S    
C43   H22   S    
C35   C39   A    
C43   C44   S    
C21   H1    S    
C37   C38   A    
O7    Zn2   S    
C47   C48   S    
C16   C20   A    
C50   C51   S    
C6    N2    A    
C48   H31   S    
C32   C37   A    
C15   H45   S    
C19   H23   S    
C37   O4    S    
C13   O9    A    
C1    O1    A    
C41   H16   S    
C46   H28   S    
C16   H46   S    
C48   C49   S    
C22   C27   A    
C4    C55   A    
C26   C27   A    
C32   H4    S    
C49   H36   S    
C11   O11   A    
C47   H29   S    
C12   O6    A    
C31   C34   A    
C7    C9    S    
C40   C41   S    
C16   C22   A    
N2    Zn2   S    
C20   H12   S    
C36   C39   A    
C2    C8    A    
C24   C28   A    
C49   H33   S    
O6    Zn1   S    
C50   H37   S    
C14   H44   S    
C54   H5    S    
C43   H21   S    
C52   H43   S    
C42   H20   S    
C33   C38   A    
O10   Zn1   S    
N1    Zn1   S    
C23   C32   A    
C17   H47   S    
C4    H10   S    
C11   C28   S    
C30   H2    S    
C52   H42   S    
C18   C20   A    
C43   O2    S    
C14   C25   A    
C12   C38   S    
C13   O10   A    
C1    C39   S    
C41   H17   S    
C46   H27   S    
C34   C53   S    
C8    C10   S    
O9    Zn2   S    
C36   O3    S    
C31   C36   A    
C13   C27   S    
C7    C54   A    
C12   O5    A    
C51   H39   S    
