data_mof_unit_35473.cif
_audit_creation_date              2012-12-11T14:19:33-0500
_audit_creation_method            fapswitch 2.2
_symmetry_space_group_name_H-M    P1
_symmetry_Int_Tables_number       1
_space_group_crystal_system       triclinic
_cell_length_a                    19.49022
_cell_length_b                    7.234322
_cell_length_c                    17.75626
_cell_angle_alpha                 89.999916
_cell_angle_beta                  107.701533
_cell_angle_gamma                 90.0
_cell_volume                      2385.06912027

loop_
_atom_site_label
_atom_site_type_symbol
_atom_type_description
_atom_site_fract_x
_atom_site_fract_y
_atom_site_fract_z
_atom_type_partial_charge
O1    O     O_R   0.414820 0.494320 0.416790 -0.540576
O2    O     O_R   0.585180 0.994320 0.583210 -0.540576
O3    O     O_R   0.560270 0.819500 0.430140 -0.510283
O4    O     O_R   0.439730 0.319500 0.569860 -0.510284
C1    C     C_R   0.580751 0.655692 0.414201 0.760687
C2    C     C_R   0.419249 0.155692 0.585799 0.760687
O5    O     O_R   0.413840 0.823740 0.407440 -0.529611
O6    O     O_R   0.586160 0.323740 0.592560 -0.529610
O7    O     O_R   0.437710 0.998590 0.560350 -0.545673
O8    O     O_R   0.562290 0.498590 0.439650 -0.545673
C3    C     C_R   0.388297 0.655168 0.384590 0.763874
C4    C     C_R   0.611703 0.155168 0.615410 0.763877
O9    O     O_3   0.508000 0.662290 0.550200 -0.371987
O10   O     O_3   0.492000 0.162290 0.449800 -0.371987
V1    V     V_3+5 0.498520 0.935380 0.490690 1.550828
V2    V     V_3+5 0.501480 0.435380 0.509310 1.550827
C5    C     C_2   0.786560 0.263921 0.785739 -0.184927
C6    C     C_2   0.213439 0.763921 0.214261 -0.184927
C7    C     C_2   0.826520 0.112159 0.811717 -0.337406
C8    C     C_2   0.173480 0.612158 0.188283 -0.337407
H1    H     H_    0.801408 0.393480 0.817414 0.152233
H2    H     H_    0.198591 0.893481 0.182587 0.152232
H3    H     H_    0.815509 0.986527 0.776942 0.132509
H4    H     H_    0.184492 0.486525 0.223057 0.132509
C9    C     C_2   0.726713 0.269178 0.709581 0.164827
C10   C     C_2   0.273286 0.769178 0.290419 0.164828
C11   C     C_2   0.672670 0.141087 0.689410 0.065325
C12   C     C_2   0.327330 0.641088 0.310589 0.065325
C13   C     C_R   0.326109 0.993270 0.632168 -0.266122
C14   C     C_R   0.673890 0.493269 0.367830 -0.266122
C15   C     C_R   0.370079 0.148962 0.635463 -0.192533
C16   C     C_R   0.629921 0.648963 0.364537 -0.192533
C17   C     C_R   0.365137 0.299156 0.684589 0.557062
C18   C     C_R   0.634865 0.799159 0.315412 0.557064
C19   C     C_R   0.316566 0.293589 0.729232 -0.020916
C20   C     C_R   0.683435 0.793592 0.270769 -0.020915
C21   C     C_R   0.272130 0.137228 0.724555 -0.012311
C22   C     C_R   0.727870 0.637229 0.275445 -0.012312
C23   C     C_R   0.277011 0.987123 0.675706 0.096815
C24   C     C_R   0.722987 0.487122 0.324293 0.096815
C25   C     C_R   0.311415 0.441707 0.778454 -0.127642
C26   C     C_R   0.688587 0.941712 0.221548 -0.127644
C27   C     C_R   0.263017 0.434876 0.822554 -0.196640
C28   C     C_R   0.736985 0.934879 0.177448 -0.196640
C29   C     C_R   0.218604 0.280142 0.818302 0.097888
C30   C     C_R   0.781398 0.780143 0.181699 0.097888
C31   C     C_R   0.222784 0.130806 0.768855 0.034597
C32   C     C_R   0.777215 0.630806 0.231145 0.034597
C33   C     C_R   0.177818 0.975180 0.763465 0.098076
C34   C     C_R   0.822180 0.475177 0.236534 0.098079
C35   C     C_R   0.183107 0.827571 0.713631 -0.166488
C36   C     C_R   0.816890 0.327567 0.286367 -0.166490
C37   C     C_R   0.232263 0.833374 0.670642 -0.180293
C38   C     C_R   0.767735 0.333370 0.329356 -0.180293
C39   C     C_R   0.170870 0.272159 0.863485 -0.242077
C40   C     C_R   0.829132 0.772160 0.136517 -0.242074
C41   C     C_R   0.126479 0.117049 0.860472 -0.124721
C42   C     C_R   0.873520 0.617047 0.139527 -0.124721
C43   C     C_R   0.128986 0.968610 0.808159 0.138513
C44   C     C_R   0.871011 0.468605 0.191839 0.138510
H5    H     H_    0.328995 0.877729 0.594341 0.169710
H6    H     H_    0.671003 0.377726 0.405656 0.169714
H7    H     H_    0.344749 0.563533 0.783013 0.189055
H8    H     H_    0.655254 0.063539 0.216990 0.189055
H9    H     H_    0.260294 0.551151 0.860031 0.133866
H10   H     H_    0.739709 0.051156 0.139972 0.133867
H11   H     H_    0.169353 0.386511 0.902422 0.138355
H12   H     H_    0.830649 0.886514 0.097581 0.138356
H13   H     H_    0.149837 0.705418 0.708080 0.172141
H14   H     H_    0.850160 0.205413 0.291917 0.172142
H15   H     H_    0.235302 0.716906 0.633386 0.137288
H16   H     H_    0.764695 0.216902 0.366612 0.137290
O11   O     O_R   0.937810 0.773680 0.060480 -0.535992
O12   O     O_R   0.062190 0.273680 0.939520 -0.535992
O13   O     O_R   0.086190 0.439740 0.092580 -0.544442
O14   O     O_R   0.913810 0.939740 0.907420 -0.544442
C45   C     C_R   0.111290 0.608215 0.115709 0.747669
C46   C     C_R   0.888710 0.108215 0.884290 0.747668
O15   O     O_R   0.939760 0.444210 0.069890 -0.547188
O16   O     O_R   0.060240 0.944210 0.930110 -0.547187
O17   O     O_R   0.914790 0.269640 0.916760 -0.533831
O18   O     O_R   0.085210 0.769640 0.083240 -0.533830
C47   C     C_R   0.920640 0.611937 0.086897 0.703443
C48   C     C_R   0.079360 0.111937 0.913103 0.703442
O19   O     O_3   0.992050 0.601530 0.949880 -0.379121
O20   O     O_3   0.007950 0.101530 0.050120 -0.379121
V3    V     V_3+5 0.001480 0.328340 0.009300 1.390834
V4    V     V_3+5 0.998520 0.828340 0.990700 1.390835
N1    N     N_3   0.081380 0.812528 0.797509 -0.682892
H17   H     H_    0.028327 0.858517 0.786011 0.237577
H18   H     H_    0.096675 0.729558 0.848037 0.250989
N2    N     N_3   0.918612 0.312515 0.202483 -0.682897
H19   H     H_    0.971666 0.358493 0.213983 0.237581
H20   H     H_    0.903314 0.229557 0.151952 0.250989
N3    N     N_3   0.725704 0.421783 0.657577 -0.672496
H21   H     H_    0.723966 0.544017 0.688355 0.227649
H22   H     H_    0.774174 0.420561 0.643805 0.225101
N4    N     N_3   0.274295 0.921781 0.342424 -0.672497
H23   H     H_    0.276032 0.044017 0.311645 0.227648
H24   H     H_    0.225824 0.920558 0.356195 0.225101
N5    N     N_3   0.668622 0.991816 0.741461 -0.674804
H25   H     H_    0.679145 0.040496 0.799315 0.248326
H26   H     H_    0.705208 0.888589 0.738932 0.224051
N6    N     N_3   0.331379 0.491819 0.258538 -0.674805
H27   H     H_    0.320854 0.540500 0.200684 0.248326
H28   H     H_    0.294794 0.388589 0.261067 0.224051
F1    F     F_    0.408124 0.449750 0.690021 -0.688317
F2    F     F_    0.591881 0.949756 0.309984 -0.688320

loop_
_geom_bond_atom_site_label_1
_geom_bond_atom_site_label_2
_ccdc_geom_bond_type
C14   C16   A    
N5    H25   S    
C20   C26   A    
N3    H21   S    
O1    C3    A    
O16   C48   A    
O2    C4    A    
C2    O7    A    
O15   V3    S    
C31   C33   A    
O5    C3    A    
C8    C45   S    
C45   O18   A    
C19   C21   A    
O14   C46   A    
C32   C34   A    
C41   C43   A    
C42   C44   A    
C43   N1    S    
C17   C19   A    
C28   H10   S    
C8    H4    S    
C28   C30   A    
C33   C35   A    
C17   F1    S    
C34   C36   A    
C15   C17   A    
O12   V3    S    
C21   C31   A    
O14   V4    S    
C22   C32   A    
C27   H9    S    
C1    C16   S    
O5    V1    S    
C2    C15   S    
N5    H26   S    
C22   C24   A    
C13   C15   A    
C25   C27   A    
C26   C28   A    
N6    H28   S    
N6    H27   S    
C36   C38   A    
C30   C32   A    
C29   C31   A    
C21   C23   A    
C13   H5    S    
C4    C11   S    
O4    C2    A    
O20   V3    S    
C40   H12   S    
C11   N5    S    
C5    H1    S    
C35   C37   A    
C16   C18   A    
O4    V2    S    
C7    C46   S    
C7    H3    S    
O11   V4    S    
O13   C45   A    
C12   N6    S    
O6    C4    A    
C6    C10   S    
C13   C23   A    
N2    H20   S    
C41   C48   S    
C14   C24   A    
O1    V2    S    
O2    V1    S    
C27   C29   A    
O17   V3    S    
C10   N4    S    
O13   V3    S    
C9    N3    S    
N4    H24   S    
C39   C41   A    
N1    H18   S    
C25   H7    S    
C37   H15   S    
C26   H8    S    
O3    V1    S    
O19   V4    S    
C6    H2    S    
C10   C12   D    
O12   C48   A    
C5    C9    S    
O3    C1    A    
C39   H11   S    
N3    H22   S    
C9    C11   D    
C24   C38   A    
C33   C43   A    
C34   C44   A    
C14   H6    S    
O7    V1    S    
C18   F2    S    
C1    O8    A    
O16   V4    S    
O8    V2    S    
C42   C47   S    
O15   C47   A    
C46   O17   A    
C23   C37   A    
C3    C12   S    
O18   V4    S    
C20   C22   A    
N2    H19   S    
C5    C7    D    
C18   C20   A    
C40   C42   A    
C6    C8    D    
C19   C25   A    
C36   H14   S    
C38   H16   S    
C29   C39   A    
O6    V2    S    
N4    H23   S    
O9    V2    S    
C30   C40   A    
O10   V1    S    
C35   H13   S    
N1    H17   S    
C44   N2    S    
O11   C47   A    
