data_mof_unit_46296.cif
_audit_creation_date              2013-03-05T15:45:57-0500
_audit_creation_method            fapswitch 2.2
_symmetry_space_group_name_H-M    P1
_symmetry_Int_Tables_number       1
_space_group_crystal_system       triclinic
_cell_length_a                    18.48097
_cell_length_b                    18.364804
_cell_length_c                    18.527545
_cell_angle_alpha                 120.788577
_cell_angle_beta                  121.003555
_cell_angle_gamma                 59.106588
_cell_volume                      4355.68521479

loop_
_atom_site_label
_atom_site_type_symbol
_atom_site_description
_atom_site_fract_x
_atom_site_fract_y
_atom_site_fract_z
_atom_type_partial_charge
Zn1   Zn    Zn3+2 0.956630 0.130130 0.543370 1.021796
Zn2   Zn    Zn3+2 0.130140 0.956620 0.543380 1.071788
Zn3   Zn    Zn3+2 0.956630 0.956620 0.369870 1.057305
Zn4   Zn    Zn3+2 0.956610 0.956630 0.543370 1.047558
O1    O     O_3   0.000000 0.000000 0.500000 -0.506646
O2    O     O_R   0.055060 0.884200 0.615800 -0.639736
O3    O     O_R   0.884210 0.176520 0.444920 -0.668073
O4    O     O_R   0.176540 0.055080 0.615800 -0.653484
O5    O     O_R   0.884190 0.884200 0.323480 -0.636238
O6    O     O_R   0.176540 0.884190 0.444930 -0.633225
O7    O     O_R   0.884180 0.055090 0.615790 -0.638096
O8    O     O_R   0.055100 0.884190 0.323490 -0.629185
O9    O     O_R   0.884190 0.176530 0.615790 -0.633957
O10   O     O_R   0.055100 0.176520 0.615800 -0.619247
O11   O     O_R   0.884180 0.884200 0.444920 -0.579952
O12   O     O_R   0.176510 0.884190 0.615800 -0.577345
O13   O     O_R   0.884210 0.055080 0.323480 -0.615090
C1    C     C_R   0.140075 0.858711 0.638238 0.815945
C2    C     C_R   0.861733 0.141672 0.360800 0.863114
C3    C     C_R   0.140704 0.139454 0.647174 0.867302
C4    C     C_R   0.858802 0.861605 0.359652 0.876816
C5    C     C_R   0.140484 0.855875 0.359382 0.839544
C6    C     C_R   0.860272 0.142067 0.640850 0.822632
H1    H     H_    0.625040 0.410089 0.552867 0.166868
C7    C     C_R   0.915560 0.115349 0.805750 -0.162498
C8    C     C_R   0.940069 0.097719 0.881687 0.045977
C9    C     C_R   0.885764 0.149726 0.933978 -0.156058
C10   C     C_R   0.806369 0.218020 0.909815 -0.142574
C11   C     C_R   0.777187 0.234129 0.830200 0.083676
C12   C     C_R   0.833415 0.182768 0.778060 0.065319
C13   C     C_R   0.694115 0.300734 0.802406 -0.140610
C14   C     C_R   0.667948 0.318610 0.724564 -0.005718
C15   C     C_R   0.733983 0.281860 0.686467 0.023460
C16   C     C_R   0.809785 0.204066 0.703537 -0.147990
C17   C     C_R   0.579602 0.374527 0.684977 -0.060285
C18   C     C_R   0.563531 0.402437 0.618319 -0.013738
C19   C     C_R   0.634895 0.379111 0.595067 -0.249092
C20   C     C_R   0.720432 0.325490 0.633266 0.002396
H2    H     H_    0.963144 0.077680 0.771022 0.149702
H3    H     H_    0.905226 0.138154 0.994328 0.161242
H4    H     H_    0.769346 0.257727 0.955313 0.160596
C21   C     C_R   0.757292 0.341214 0.430285 -0.143323
H5    H     H_    0.817941 0.324736 0.483965 0.200975
C22   C     C_R   0.690249 0.421568 0.455352 -0.170176
H6    H     H_    0.699405 0.460275 0.525388 0.164955
C23   C     C_R   0.610410 0.450542 0.390671 -0.116620
H7    H     H_    0.555713 0.508727 0.410944 0.163743
C24   C     C_R   0.601997 0.405776 0.300591 0.011639
C25   C     C_R   0.676651 0.332433 0.275954 0.048581
C26   C     C_R   0.748302 0.290716 0.339027 0.075771
C27   C     C_R   0.809136 0.202534 0.308067 -0.159378
C28   C     C_R   0.812364 0.169933 0.221797 -0.051174
H8    H     H_    0.757461 0.199485 0.102407 0.187964
C29   C     C_R   0.750858 0.220817 0.165865 -0.235690
C30   C     C_R   0.684889 0.301723 0.192698 -0.100852
H9    H     H_    0.900939 0.697538 0.254078 0.206909
C31   C     C_R   0.664802 0.940507 0.345491 0.009026
C32   C     C_R   0.577892 0.969767 0.344170 -0.133959
H10   H     H_    0.545563 0.039594 0.378532 0.152718
C33   C     C_R   0.530463 0.910827 0.296943 -0.149529
H11   H     H_    0.462877 0.934724 0.295789 0.154452
C34   C     C_R   0.568294 0.821997 0.248844 -0.171942
H12   H     H_    0.526829 0.780157 0.210838 0.127381
C35   C     C_R   0.656671 0.788759 0.249483 0.085152
C36   C     C_R   0.707381 0.847785 0.300605 0.044884
C37   C     C_R   0.797051 0.811493 0.302265 -0.101256
C38   C     C_R   0.832173 0.722851 0.250850 -0.178196
C39   C     C_R   0.782412 0.665348 0.198775 -0.061693
C40   C     C_R   0.694204 0.698361 0.198175 -0.140307
C41   C     C_R   0.166795 0.660498 0.552307 -0.195350
C42   C     C_R   0.190545 0.565615 0.516150 -0.119930
C43   C     C_R   0.229982 0.516890 0.573678 -0.117179
C44   C     C_R   0.246631 0.563101 0.665905 -0.101036
C45   C     C_R   0.250716 0.650963 0.703418 0.058217
C46   C     C_R   0.203990 0.703689 0.646942 -0.001691
C47   C     C_R   0.195398 0.797017 0.688465 -0.084965
C48   C     C_R   0.235592 0.833928 0.781417 -0.017656
H13   H     H_    0.323783 0.807170 0.904078 0.147095
C49   C     C_R   0.290329 0.778674 0.832956 -0.180159
C50   C     C_R   0.298793 0.688302 0.795621 -0.022659
C51   C     C_R   0.339210 0.749620 0.425067 -0.070944
C52   C     C_R   0.430669 0.743488 0.470407 -0.050306
C53   C     C_R   0.474749 0.742556 0.427136 -0.204011
H14   H     H_    0.543402 0.741680 0.460751 0.201502
C54   C     C_R   0.432962 0.737100 0.338080 -0.154388
H15   H     H_    0.470390 0.735481 0.307387 0.170676
C55   C     C_R   0.343696 0.737826 0.291184 0.088843
C56   C     C_R   0.292023 0.761939 0.340034 0.033310
C57   C     C_R   0.196622 0.796580 0.301415 -0.148981
C58   C     C_R   0.156533 0.787754 0.208909 -0.125578
C59   C     C_R   0.210553 0.749221 0.157555 -0.087355
C60   C     C_R   0.304519 0.715746 0.197226 -0.170303
C61   C     C_R   0.345684 0.063050 0.727783 -0.090596
C62   C     C_R   0.427052 0.024333 0.713793 -0.222226
H16   H     H_    0.466303 0.953930 0.706925 0.188440
C63   C     C_R   0.458123 0.075411 0.708121 -0.055524
C64   C     C_R   0.413263 0.169762 0.728245 -0.038801
C65   C     C_R   0.336143 0.210494 0.753707 0.031223
C66   C     C_R   0.293245 0.154126 0.732484 -0.025683
C67   C     C_R   0.200083 0.192278 0.718493 -0.171323
C68   C     C_R   0.164786 0.282861 0.768275 -0.121273
C69   C     C_R   0.218980 0.336890 0.816244 -0.105723
C70   C     C_R   0.302342 0.303012 0.804125 -0.121856
Zn5   Zn    Zn3+2 0.543340 0.369890 0.956600 1.029055
Zn6   Zn    Zn3+2 0.543340 0.543410 0.130100 0.995562
Zn7   Zn    Zn3+2 0.369830 0.543410 0.956590 1.057128
Zn8   Zn    Zn3+2 0.543370 0.543400 0.956600 1.035060
O14   O     O_3   0.499970 0.500030 0.999970 -0.511369
O15   O     O_R   0.615800 0.615830 0.055050 -0.621560
O16   O     O_R   0.444880 0.323510 0.884180 -0.648462
O17   O     O_R   0.615760 0.444950 0.176490 -0.627393
O18   O     O_R   0.323460 0.615830 0.884170 -0.612702
O19   O     O_R   0.444880 0.615840 0.176480 -0.661941
O20   O     O_R   0.615800 0.444940 0.884180 -0.613556
O21   O     O_R   0.323440 0.615840 0.055040 -0.611657
O22   O     O_R   0.615780 0.323500 0.884180 -0.624559
O23   O     O_R   0.615760 0.323500 0.055050 -0.645858
O24   O     O_R   0.444910 0.615830 0.884180 -0.618571
O25   O     O_R   0.615780 0.615830 0.176490 -0.642733
O26   O     O_R   0.323430 0.444950 0.884170 -0.613732
C71   C     C_R   0.639608 0.640140 0.140396 0.848426
C72   C     C_R   0.359503 0.359461 0.857986 0.883615
C73   C     C_R   0.636406 0.359516 0.139154 0.826382
C74   C     C_R   0.358939 0.635765 0.855915 0.796915
C75   C     C_R   0.360091 0.647248 0.140127 0.843029
C76   C     C_R   0.640573 0.359143 0.860855 0.813722
C77   C     C_1   0.513870 0.430603 0.235473 0.187248
N1    N     N_1   0.443194 0.450270 0.183496 -0.164669
C78   C     C_1   0.703355 0.010193 0.388109 0.133144
N2    N     N_1   0.733375 0.066595 0.421990 -0.218764
C79   C     C_2   0.826598 0.570461 0.148611 0.939417
O27   O     O_2   0.802639 0.509691 0.128727 -0.643652
O28   O     O_R   0.897979 0.550246 0.126087 -0.779932
H17   H     H_    0.923108 0.483735 0.092936 0.356845
C80   C     C_1   0.216423 0.929949 0.827011 0.238234
N3    N     N_1   0.200000 0.006795 0.864110 -0.128470
C81   C     C_2   0.089140 0.710273 0.491399 0.950006
O29   O     O_2   0.100590 0.739364 0.453220 -0.597424
O30   O     O_R   0.002070 0.719582 0.473278 -0.760846
H18   H     H_    0.000215 0.692423 0.507844 0.317620
C82   C     C_2   0.166693 0.519132 0.417372 0.940623
O31   O     O_2   0.179254 0.540809 0.373446 -0.567197
O32   O     O_R   0.128944 0.451823 0.374581 -0.794890
H19   H     H_    0.115370 0.426177 0.307570 0.360314
C83   C     C_1   0.248942 0.420403 0.538011 0.362521
N4    N     N_1   0.264170 0.343345 0.509408 -0.112238
C84   C     C_2   0.228095 0.533533 0.713849 0.934588
O33   O     O_2   0.262057 0.455218 0.710612 -0.584539
O34   O     O_R   0.166900 0.595705 0.759100 -0.759559
H20   H     H_    0.158185 0.568238 0.788280 0.385982
C85   C     C_1   0.059775 0.817848 0.164625 0.313119
N5    N     N_1   0.982767 0.841425 0.128977 -0.097156
C86   C     C_1   0.302565 0.720919 0.454825 0.328810
N6    N     N_1   0.275437 0.696479 0.479395 -0.098579
C87   C     C_2   0.482554 0.736819 0.561904 0.891771
O35   O     O_2   0.444035 0.757467 0.610499 -0.571229
O36   O     O_R   0.576353 0.707871 0.593188 -0.808838
H21   H     H_    0.604087 0.706265 0.656153 0.359050
C88   C     C_1   0.022143 0.027059 0.907128 0.189423
N7    N     N_1   0.087864 0.970187 0.927698 -0.157572
C89   C     C_2   0.169132 0.753296 0.065379 0.957925
O37   O     O_2   0.199821 0.782116 0.044449 -0.613648
O38   O     O_R   0.095290 0.725065 0.003230 -0.797865
H22   H     H_    0.073751 0.731348 0.943445 0.365221
C90   C     C_2   0.078299 0.316643 0.781440 0.963788
O39   O     O_2   0.059718 0.268050 0.791410 -0.623821
O40   O     O_R   0.019550 0.404529 0.785119 -0.745617
H23   H     H_    0.967442 0.421951 0.802331 0.355617
C91   C     C_2   0.325238 0.012313 0.752835 0.986888
O41   O     O_2   0.345438 0.930569 0.718073 -0.520229
O42   O     O_R   0.285190 0.056151 0.817627 -0.778436
H24   H     H_    0.279600 0.121963 0.850025 0.315160
C92   C     C_1   0.536452 0.028559 0.681899 0.266562
N8    N     N_1   0.599143 0.990791 0.660813 -0.151855
C93   C     C_2   0.437476 0.220752 0.707448 0.918638
O43   O     O_2   0.378355 0.278416 0.673797 -0.592806
O44   O     O_R   0.527101 0.200305 0.722575 -0.781243
H25   H     H_    0.534195 0.233154 0.697661 0.332171
C94   C     C_2   0.192696 0.424043 0.885991 0.987225
O45   O     O_2   0.226497 0.428455 0.964176 -0.619914
O46   O     O_R   0.130267 0.500627 0.862179 -0.741927
H26   H     H_    0.116874 0.555247 0.915451 0.377087
C95   C     C_1   0.503153 0.397864 0.705615 0.202502
N9    N     N_1   0.442103 0.417355 0.722606 -0.154762
C96   C     C_2   0.475677 0.465136 0.579131 0.911151
O47   O     O_2   0.450203 0.457409 0.500919 -0.612025
O48   O     O_R   0.424354 0.535814 0.632560 -0.791703
H27   H     H_    0.369376 0.577113 0.599487 0.360622
C97   C     C_1   0.792076 0.344324 0.642486 0.233432
N10   N     N_1   0.849085 0.360479 0.650364 -0.165595
C98   C     C_2   0.885694 0.089120 0.191955 0.949970
O49   O     O_2   0.870423 0.041637 0.113152 -0.611175
O50   O     O_R   0.973088 0.069660 0.253149 -0.804980
H28   H     H_    0.017472 0.014549 0.224360 0.337612

loop_
_geom_bond_atom_site_label_1
_geom_bond_atom_site_label_2
_geom_bond_distance
_ccdc_geom_bond_type
C59   C89   1.494458 S    
O42   H24   1.012274 S    
C61   C62   1.396061 A    
C64   C93   1.484232 S    
C4    C37   1.451392 S    
C87   O36   1.399147 S    
Zn8   O15   1.928069 S    
C44   C45   1.419618 A    
C29   C30   1.396147 A    
O38   H22   1.013985 S    
C55   C56   1.404660 A    
O15   C71   1.286675 A    
C60   C75   1.478716 S    
C83   N4    1.157405 T    
C58   C59   1.402318 A    
C80   N3    1.156813 T    
C93   O44   1.397821 S    
Zn7   O18   1.943071 S    
O46   H26   1.012314 S    
O6    C5    1.284771 A    
C81   O30   1.396775 S    
C61   C91   1.487075 S    
C8    C9    1.388581 A    
C90   O39   1.223600 D    
Zn7   O14   1.939520 S    
C44   C84   1.483085 S    
C53   H14   1.083142 S    
Zn1   O1    1.931300 S    
Zn6   O19   1.942679 S    
C10   C11   1.420408 A    
C84   O34   1.398713 S    
C19   C20   1.389932 A    
O18   C74   1.278407 A    
C82   O32   1.398454 S    
C88   N7    1.157286 T    
O20   C76   1.282568 A    
C96   O48   1.397137 S    
O19   C75   1.274393 A    
C17   C95   1.446722 S    
O32   H19   1.013921 S    
O8    C5    1.277901 A    
C10   H4    1.078430 S    
C51   C86   1.445386 S    
O9    C6    1.269280 A    
C33   C34   1.388015 A    
C18   C96   1.486873 S    
C91   O41   1.220733 D    
C25   C26   1.409496 A    
C34   C35   1.415645 A    
Zn3   O8    1.942825 S    
C69   C70   1.428297 A    
Zn5   O22   1.956396 S    
O36   H21   1.014005 S    
C84   O33   1.220481 D    
C28   C29   1.387901 A    
C39   C40   1.413661 A    
C65   C70   1.426909 A    
C85   N5    1.157926 T    
C41   C42   1.414300 A    
Zn2   O12   1.943219 S    
C61   C66   1.420427 A    
Zn8   O24   1.925406 S    
C42   C82   1.492755 S    
C6    C16   1.479059 S    
O25   C71   1.285047 A    
C37   C38   1.393976 A    
Zn6   O17   1.928843 S    
O40   H23   1.013377 S    
O22   C76   1.275434 A    
C55   C60   1.414023 A    
C69   C94   1.482726 S    
C91   O42   1.396789 S    
C90   O40   1.397358 S    
C97   N10   1.156551 T    
C21   C22   1.393610 A    
C38   C39   1.389945 A    
C89   O38   1.397711 S    
O26   C72   1.274093 A    
C64   C65   1.431792 A    
C23   C24   1.394545 A    
C48   C49   1.381150 A    
O2    C1    1.277343 A    
Zn6   O14   1.946420 S    
C30   C73   1.448839 S    
C87   O35   1.222607 D    
C63   C92   1.445484 S    
C12   C16   1.416467 A    
C54   C55   1.410428 A    
O17   C73   1.277441 A    
C27   C28   1.413749 A    
C68   C69   1.406490 A    
O10   C3    1.286848 A    
C47   C48   1.407569 A    
Zn4   O2    1.925466 S    
C45   C46   1.423348 A    
C57   C58   1.429509 A    
C59   C60   1.408986 A    
H13   C49   1.086042 S    
C58   C85   1.454014 S    
O24   C74   1.294004 A    
C22   C23   1.386131 A    
C79   O28   1.399217 S    
C7    C8    1.395950 A    
C54   H15   1.081434 S    
C52   C53   1.396815 A    
C51   C52   1.419141 A    
C98   O49   1.223331 D    
C33   H11   1.082776 S    
C17   C18   1.410691 A    
C39   C79   1.493261 S    
C62   C63   1.391705 A    
C46   C47   1.432187 A    
C98   O50   1.399076 S    
C95   N9    1.155871 T    
C11   C12   1.413348 A    
Zn3   O5    1.942323 S    
C7    H2    1.080930 S    
O48   H27   1.012981 S    
C66   C67   1.417685 A    
C3    C67   1.475948 S    
C40   C71   1.459661 S    
C9    H3    1.084073 S    
Zn8   O14   1.974475 S    
C20   C97   1.441779 S    
C63   C64   1.417971 A    
C34   H12   1.080897 S    
C26   C27   1.435047 A    
C8    C88   1.440560 S    
O4    C3    1.264201 A    
C35   C40   1.421988 A    
Zn4   O7    1.934606 S    
C68   C90   1.492525 S    
C21   C26   1.417739 A    
C52   C87   1.491832 S    
C24   C25   1.427286 A    
C53   C54   1.387963 A    
C65   C66   1.399876 A    
O3    C2    1.263366 A    
O28   H17   1.014008 S    
C49   C50   1.388161 A    
Zn2   O1    1.939520 S    
Zn1   O9    1.956346 S    
C21   H5    1.071642 S    
C79   O27   1.223037 D    
Zn2   O6    1.946268 S    
Zn5   O14   1.931448 S    
C22   H6    1.082005 S    
C78   N2    1.157791 T    
C50   C74   1.461949 S    
Zn8   O20   1.934605 S    
C31   C78   1.446094 S    
C7    C12   1.420787 A    
C23   H7    1.084338 S    
C18   C19   1.387365 A    
C1    C47   1.450760 S    
Zn7   O26   1.930906 S    
Zn1   O3    1.936295 S    
C13   C14   1.422969 A    
Zn2   O4    1.930907 S    
C14   C17   1.440103 A    
C31   C36   1.434878 A    
C43   C44   1.405932 A    
Zn3   O1    1.946422 S    
O30   H18   1.013546 S    
H8    C29   1.085299 S    
C77   N1    1.157470 T    
H1    C19   1.081854 S    
H9    C38   1.085476 S    
C81   O29   1.219716 D    
Zn5   O23   1.936294 S    
C96   O47   1.223484 D    
C15   C20   1.422842 A    
O21   C75   1.283356 A    
Zn7   O21   1.946159 S    
C14   C15   1.413157 A    
Zn4   O11   1.928068 S    
C32   H10   1.084450 S    
C42   C43   1.405112 A    
C11   C13   1.421391 A    
C93   O43   1.220630 D    
C25   C30   1.408467 A    
C82   O31   1.223057 D    
C35   C36   1.424130 A    
C24   C77   1.446500 S    
Zn5   O16   1.934749 S    
O5    C4    1.284537 A    
C31   C32   1.398516 A    
O11   C4    1.285832 A    
C89   O37   1.223562 D    
O7    C6    1.299831 A    
C67   C68   1.406529 A    
O13   C2    1.292835 A    
C5    C57   1.485281 S    
C15   C16   1.433370 A    
Zn3   O13   1.928844 S    
C36   C37   1.423276 A    
O23   C73   1.265976 A    
C62   H16   1.085189 S    
C51   C56   1.428521 A    
O44   H25   1.011332 S    
C92   N8    1.157460 T    
C94   O45   1.222619 D    
C2    C27   1.473972 S    
Zn4   O1    1.974323 S    
C56   C57   1.428218 A    
C41   C46   1.438899 A    
C41   C81   1.486342 S    
O12   C1    1.286944 A    
O50   H28   1.013515 S    
C9    C10   1.390957 A    
Zn6   O25   1.942322 S    
C45   C50   1.428533 A    
Zn1   O10   1.934997 S    
C48   C80   1.445853 S    
C13   C76   1.458503 S    
C86   N6    1.155606 T    
O34   H20   1.012410 S    
C70   C72   1.471724 S    
C32   C33   1.385689 A    
C28   C98   1.487081 S    
O16   C72   1.276894 A    
C43   C83   1.449671 S    
C94   O46   1.395854 S    
