data_mof_unit_63621.cif
_audit_creation_date              2012-12-10T19:56:36-0500
_audit_creation_method            fapswitch 2.2
_symmetry_space_group_name_H-M    P1
_symmetry_Int_Tables_number       1
_space_group_crystal_system       triclinic
_cell_length_a                    28.279073
_cell_length_b                    18.252573
_cell_length_c                    18.259289
_cell_angle_alpha                 90.001927
_cell_angle_beta                  129.914197
_cell_angle_gamma                 89.996355
_cell_volume                      7228.89625178

loop_
_atom_site_label
_atom_site_type_symbol
_atom_type_description
_atom_site_fract_x
_atom_site_fract_y
_atom_site_fract_z
_atom_type_partial_charge
C1    C     C_R   0.499830 0.999993 0.358573 0.934080
C2    C     C_R   0.500167 0.999997 0.641424 0.934022
C3    C     C_R   0.999831 0.499994 0.358574 0.934052
C4    C     C_R   0.000168 0.499996 0.641425 0.934057
C5    C     C_R   0.814092 0.998979 0.815062 -0.102411
C6    C     C_R   0.185916 0.998963 0.184957 -0.102670
C7    C     C_R   0.314090 0.498975 0.815054 -0.102504
C8    C     C_R   0.685916 0.498962 0.184957 -0.102622
C9    C     C_R   0.781664 0.058388 0.752813 -0.000369
C10   C     C_R   0.218337 0.058235 0.247489 -0.000401
C11   C     C_R   0.281664 0.558354 0.752740 -0.000329
C12   C     C_R   0.718338 0.558208 0.247540 -0.000469
C13   C     C_R   0.718114 0.057688 0.691563 -0.199351
C14   C     C_R   0.281888 0.057550 0.308735 -0.199382
C15   C     C_R   0.218113 0.557652 0.691477 -0.199386
C16   C     C_R   0.781889 0.557535 0.308761 -0.199433
C17   C     C_R   0.686889 0.998616 0.691655 -0.124446
C18   C     C_R   0.313118 0.998629 0.308362 -0.124225
C19   C     C_R   0.186888 0.498620 0.691643 -0.124415
C20   C     C_R   0.813118 0.498630 0.308357 -0.124158
C21   C     C_R   0.719312 0.939065 0.755195 -0.038125
C22   C     C_R   0.280708 0.939219 0.244568 -0.038234
C23   C     C_R   0.219308 0.439114 0.755262 -0.038161
C24   C     C_R   0.780709 0.439224 0.244553 -0.038255
C25   C     C_R   0.829487 0.128776 0.696112 0.213863
C26   C     C_R   0.170598 0.128044 0.304723 0.213968
C27   C     C_R   0.329529 0.628647 0.696040 0.213853
C28   C     C_R   0.670573 0.627768 0.304891 0.214057
C29   C     C_R   0.857145 0.192857 0.697119 -0.152082
C30   C     C_R   0.142870 0.191934 0.304018 -0.152072
C31   C     C_R   0.357216 0.692696 0.697038 -0.151974
C32   C     C_R   0.642809 0.691578 0.304287 -0.152082
C33   C     C_R   0.867108 0.252363 0.753712 -0.134167
C34   C     C_R   0.132744 0.251646 0.247578 -0.133997
C35   C     C_R   0.367167 0.752243 0.753571 -0.134093
C36   C     C_R   0.632670 0.751393 0.247971 -0.133986
C37   C     C_R   0.849612 0.248053 0.809811 -0.122094
C38   C     C_R   0.150164 0.247743 0.191358 -0.122537
C39   C     C_R   0.349627 0.748008 0.809614 -0.122165
C40   C     C_R   0.650123 0.747674 0.191783 -0.122676
C41   C     C_R   0.823057 0.183954 0.810647 -0.201506
C42   C     C_R   0.176783 0.183833 0.190211 -0.201626
C43   C     C_R   0.323043 0.683941 0.810462 -0.201498
C44   C     C_R   0.676777 0.683845 0.190533 -0.201661
C45   C     C_R   0.620476 0.999706 0.622858 0.891246
C46   C     C_R   0.379527 0.999711 0.377138 0.891412
C47   C     C_R   0.120475 0.499707 0.622857 0.891325
C48   C     C_R   0.879527 0.499711 0.377138 0.891363
C49   C     C_R   0.812813 0.123961 0.754007 0.044417
C50   C     C_R   0.187175 0.123628 0.246674 0.044999
C51   C     C_R   0.312817 0.623904 0.753889 0.044455
C52   C     C_R   0.687174 0.623535 0.246862 0.045118
C53   C     C_1   0.499668 0.000038 0.281934 -0.167635
C54   C     C_1   0.500327 0.000050 0.718061 -0.167338
C55   C     C_1   0.999669 0.500040 0.281935 -0.167575
C56   C     C_1   0.000330 0.500046 0.718063 -0.167456
C57   C     C_1   0.499646 0.000109 0.217112 -0.146969
C58   C     C_1   0.500351 0.000123 0.782885 -0.146729
C59   C     C_1   0.999647 0.500112 0.217113 -0.146909
C60   C     C_1   0.000353 0.500117 0.782886 -0.146828
C61   C     C_R   0.000003 0.141286 0.000004 0.933404
C62   C     C_R   0.500004 0.641286 0.000005 0.933411
C63   C     C_R   0.879856 0.000010 0.880069 0.912248
C64   C     C_R   0.120147 0.999990 0.119935 0.912130
C65   C     C_R   0.379855 0.500004 0.880068 0.912228
C66   C     C_R   0.620147 0.499989 0.119935 0.912122
C67   C     C_R   0.000006 0.858778 0.000004 0.966876
C68   C     C_R   0.500005 0.358778 0.000004 0.966844
C69   C     C_R   0.499999 0.140954 0.999999 0.917612
C70   C     C_R   0.999999 0.640954 0.999998 0.917611
C71   C     C_R   0.499854 0.000072 0.140825 0.934392
C72   C     C_R   0.500146 0.000078 0.859174 0.934363
C73   C     C_R   0.999854 0.500074 0.140825 0.934411
C74   C     C_R   0.000146 0.500075 0.859174 0.934345
C75   C     C_R   0.500002 0.859030 0.000005 0.933312
C76   C     C_R   0.000002 0.359030 0.000005 0.933271
C77   C     C_1   0.000008 0.217747 0.000012 -0.141541
C78   C     C_1   0.500010 0.717747 0.000014 -0.141572
C79   C     C_R   0.646298 0.753698 0.715474 -0.178653
C80   C     C_R   0.354162 0.754248 0.283837 -0.178684
C81   C     C_R   0.146094 0.253930 0.715733 -0.178671
C82   C     C_R   0.854031 0.254143 0.283902 -0.178682
C83   C     C_1   0.500009 0.782555 0.000015 -0.183790
C84   C     C_1   0.000008 0.282555 0.000013 -0.183819
C85   C     C_1   0.000002 0.782277 0.999999 -0.131357
C86   C     C_1   0.500002 0.282277 0.999999 -0.131374
C87   C     C_1   0.499998 0.217462 0.999996 -0.144159
C88   C     C_1   0.999998 0.717462 0.999996 -0.144151
C89   C     C_R   0.676637 0.811831 0.711244 -0.071436
C90   C     C_R   0.323850 0.812195 0.288450 -0.070561
C91   C     C_R   0.176417 0.311978 0.711326 -0.071073
C92   C     C_R   0.823718 0.312143 0.288425 -0.070755
C93   C     C_R   0.687017 0.877547 0.759586 0.127007
C94   C     C_R   0.313015 0.877914 0.239843 0.126454
C95   C     C_R   0.187014 0.377690 0.759806 0.126801
C96   C     C_R   0.813018 0.377871 0.239912 0.126526
C97   C     C_R   0.666742 0.884476 0.812145 -0.160998
C98   C     C_R   0.332762 0.885016 0.186572 -0.161707
C99   C     C_R   0.166989 0.384694 0.812705 -0.161342
C100  C     C_R   0.832913 0.384931 0.186840 -0.161510
C101  C     C_R   0.636848 0.825862 0.816906 0.216335
C102  C     C_R   0.362605 0.826576 0.181399 0.216166
C103  C     C_R   0.137119 0.326161 0.817652 0.216265
C104  C     C_R   0.862761 0.326438 0.181762 0.216210
C105  C     C_R   0.626514 0.760638 0.768324 -0.131984
C106  C     C_R   0.373429 0.761362 0.230290 -0.131772
C107  C     C_R   0.126555 0.260946 0.768917 -0.131850
C108  C     C_R   0.873441 0.261213 0.230550 -0.131827
C109  C     C_R   0.783578 0.939214 0.816894 0.096950
C110  C     C_R   0.216445 0.939337 0.182887 0.097336
C111  C     C_R   0.283573 0.439247 0.816945 0.097069
C112  C     C_R   0.716445 0.439354 0.182850 0.097347
H1    H     H_    0.603382 0.715261 0.771805 0.155207
H2    H     H_    0.396528 0.716123 0.226497 0.155067
H3    H     H_    0.103440 0.215633 0.772540 0.155171
H4    H     H_    0.896541 0.215933 0.226828 0.155099
H5    H     H_    0.856694 0.294303 0.852897 0.184044
H6    H     H_    0.142979 0.294163 0.148424 0.183704
H7    H     H_    0.356696 0.794291 0.852649 0.184060
H8    H     H_    0.642933 0.794177 0.148954 0.183483
H9    H     H_    0.638317 0.703145 0.678051 0.150552
H10   H     H_    0.362519 0.703700 0.321494 0.150375
H11   H     H_    0.137933 0.203383 0.678191 0.150474
H12   H     H_    0.862275 0.203587 0.321478 0.150425
H13   H     H_    0.691964 0.805865 0.670332 0.144223
H14   H     H_    0.308914 0.806091 0.329881 0.144128
H15   H     H_    0.191556 0.305955 0.670163 0.144153
H16   H     H_    0.808668 0.306072 0.329704 0.144188
H17   H     H_    0.674594 0.934923 0.849747 0.148351
H18   H     H_    0.324514 0.935451 0.148708 0.148952
H19   H     H_    0.175027 0.435133 0.850437 0.148615
H20   H     H_    0.824780 0.435374 0.149060 0.148821
H21   H     H_    0.692961 0.103309 0.642921 0.177309
H22   H     H_    0.307041 0.103054 0.357599 0.177151
H23   H     H_    0.192960 0.603244 0.642779 0.177273
H24   H     H_    0.807043 0.603020 0.357661 0.177109
H25   H     H_    0.870353 0.196864 0.653226 0.157129
H26   H     H_    0.129730 0.195629 0.348023 0.156853
H27   H     H_    0.370457 0.696645 0.653184 0.157150
H28   H     H_    0.629648 0.695129 0.348274 0.156736
O1    O     O_R   0.500010 0.939400 0.392680 -0.613681
O2    O     O_R   0.499990 0.939400 0.607320 -0.613440
O3    O     O_R   0.000010 0.439400 0.392680 -0.613627
O4    O     O_R   0.999990 0.439400 0.607320 -0.613512
O5    O     O_R   0.551700 0.999990 0.159040 -0.623412
O6    O     O_R   0.448300 0.999990 0.840960 -0.623371
O7    O     O_R   0.051700 0.499990 0.159040 -0.623403
O8    O     O_R   0.948300 0.499990 0.840960 -0.623421
O9    O     O_R   0.448260 1.000000 0.055600 -0.597282
O10   O     O_R   0.551740 1.000000 0.944400 -0.597624
O11   O     O_R   0.948260 0.500000 0.055600 -0.597360
O12   O     O_R   0.051740 0.500000 0.944400 -0.597466
O13   O     O_R   0.551720 0.892660 0.051710 -0.626192
O14   O     O_R   0.448280 0.892660 0.948290 -0.626135
O15   O     O_R   0.051720 0.392660 0.051710 -0.626133
O16   O     O_R   0.948280 0.392660 0.948290 -0.626223
O17   O     O_R   0.499990 0.060580 0.392690 -0.616431
O18   O     O_R   0.500010 0.060580 0.607310 -0.616544
O19   O     O_R   0.999990 0.560580 0.392690 -0.616464
O20   O     O_R   0.000010 0.560580 0.607310 -0.616524
O21   O     O_R   0.591620 0.939400 0.591620 -0.620079
O22   O     O_R   0.408380 0.939400 0.408380 -0.620180
O23   O     O_R   0.091620 0.439400 0.591620 -0.620138
O24   O     O_R   0.908380 0.439400 0.408380 -0.620145
O25   O     O_R   0.591600 0.060580 0.591620 -0.624693
O26   O     O_R   0.408400 0.060580 0.408380 -0.624676
O27   O     O_R   0.091600 0.560580 0.591620 -0.624688
O28   O     O_R   0.908400 0.560580 0.408380 -0.624680
O29   O     O_R   0.999970 0.107360 0.060570 -0.618264
O30   O     O_R   0.000030 0.107360 0.939430 -0.618187
O31   O     O_R   0.499970 0.607360 0.060570 -0.618328
O32   O     O_R   0.500030 0.607360 0.939430 -0.618093
O33   O     O_R   0.908370 0.000030 0.968970 -0.608838
O34   O     O_R   0.091630 0.000030 0.031030 -0.608752
O35   O     O_R   0.408370 0.500030 0.968970 -0.608841
O36   O     O_R   0.591630 0.500030 0.031030 -0.608698
O37   O     O_R   0.908380 1.000000 0.847800 -0.603280
O38   O     O_R   0.091620 1.000000 0.152200 -0.603400
O39   O     O_R   0.408380 0.500000 0.847800 -0.603286
O40   O     O_R   0.591620 0.500000 0.152200 -0.603433
O41   O     O_R   0.000000 0.892710 0.060610 -0.603300
O42   O     O_R   0.000000 0.892710 0.939390 -0.603310
O43   O     O_R   0.500000 0.392710 0.060610 -0.603285
O44   O     O_R   0.500000 0.392710 0.939390 -0.603297
O45   O     O_R   0.551710 0.107310 0.051740 -0.610963
O46   O     O_R   0.448290 0.107310 0.948260 -0.610881
O47   O     O_R   0.051710 0.607310 0.051740 -0.610931
O48   O     O_R   0.948290 0.607310 0.948260 -0.610899
Zn1   Zn    Zn3+2 0.500000 0.919080 0.500000 0.982605
Zn2   Zn    Zn3+2 0.000000 0.419080 0.500000 0.982575
Zn3   Zn    Zn3+2 0.500000 0.080900 0.500000 0.990194
Zn4   Zn    Zn3+2 0.000000 0.580900 0.500000 0.990163
Zn5   Zn    Zn3+2 0.999980 0.000040 0.080910 1.031086
Zn6   Zn    Zn3+2 0.000020 0.000040 0.919090 1.031333
Zn7   Zn    Zn3+2 0.499980 0.500040 0.080910 1.031028
Zn8   Zn    Zn3+2 0.500020 0.500040 0.919090 1.031451
Zn9   Zn    Zn3+2 0.569060 0.999980 0.069070 1.006093
Zn10  Zn    Zn3+2 0.430940 0.999980 0.930930 1.006332
Zn11  Zn    Zn3+2 0.069060 0.499980 0.069070 1.006241
Zn12  Zn    Zn3+2 0.930940 0.499980 0.930930 1.006170
H29   H     H_    0.888155 0.301936 0.753799 0.158600
H30   H     H_    0.111639 0.301069 0.247719 0.158216
H31   H     H_    0.388238 0.801788 0.753652 0.158636
H32   H     H_    0.611536 0.800752 0.248188 0.158063
H33   H     H_    0.809802 0.181290 0.854618 0.166777
H34   H     H_    0.189961 0.181481 0.146124 0.166653
H35   H     H_    0.309758 0.681335 0.854396 0.166789
H36   H     H_    0.689974 0.681635 0.146465 0.166593
I1    I     I_    0.608363 0.834780 0.898744 -0.412586
I2    I     I_    0.390251 0.835728 0.098447 -0.413097
I3    I     I_    0.109021 0.335188 0.900007 -0.412613
I4    I     I_    0.890627 0.335521 0.099102 -0.413230
I5    I     I_    0.834171 0.848073 0.911216 -0.342294
I6    I     I_    0.165899 0.848281 0.088360 -0.341914
I7    I     I_    0.334151 0.348117 0.911301 -0.342122
I8    I     I_    0.665894 0.348331 0.088254 -0.341924
I9    I     I_    0.812592 0.042169 0.604544 -0.357631
I10   I     I_    0.187708 0.041087 0.396029 -0.357818
I11   I     I_    0.312655 0.541976 0.604559 -0.357510
I12   I     I_    0.687700 0.540650 0.396024 -0.357943

loop_
_geom_bond_atom_site_label_1
_geom_bond_atom_site_label_2
_ccdc_geom_bond_type
C69   O45   A    
C99   C103  A    
C81   C107  A    
C68   O43   A    
C8    C66   S    
C30   H26   S    
C80   C106  A    
C55   C59   T    
C26   I10   S    
C22   C94   S    
C14   C18   A    
C25   I9    S    
O7    Zn11  S    
C24   C112  A    
C44   H36   S    
C70   C88   S    
C76   C84   S    
C33   H29   S    
C45   O25   A    
C82   C92   A    
C16   H24   S    
C80   H10   S    
C13   H21   S    
C15   C19   A    
O27   Zn4   S    
C79   H9    S    
C5    C63   S    
C91   H15   S    
C73   O7    A    
C37   C41   A    
C32   C36   A    
C105  H1    S    
C1    O1    A    
C110  I6    S    
C111  I7    S    
C38   C42   A    
C109  I5    S    
C26   C50   A    
O14   Zn10  S    
C95   C99   A    
O36   Zn8   S    
C15   H23   S    
O48   Zn12  S    
C3    O3    A    
C29   C33   A    
C92   C96   A    
C68   C86   S    
C79   C105  A    
C25   C29   A    
O26   Zn3   S    
C6    C64   S    
C45   O21   A    
C9    C13   A    
C67   O41   A    
O25   Zn3   S    
C3    C55   S    
C78   C83   T    
C75   C83   S    
C100  C104  A    
C68   O44   A    
C20   C24   A    
C61   C77   S    
C22   C110  A    
O43   Zn7   S    
C63   O33   A    
O42   Zn6   S    
C82   C108  A    
C8    C12   A    
C69   O46   A    
O41   Zn5   S    
C59   C73   S    
O10   Zn9   S    
C69   C87   S    
C70   O48   A    
O9    Zn10  S    
C47   O23   A    
C44   C52   A    
C28   I12   S    
C34   C38   A    
C65   O35   A    
C3    O19   A    
C6    C110  A    
C66   O36   A    
O16   Zn12  S    
C4    O20   A    
C11   C15   A    
C82   H12   S    
O24   Zn2   S    
C27   I11   S    
C18   C46   S    
C41   C49   A    
C12   C52   S    
C27   C51   A    
C90   C94   A    
O39   Zn8   S    
C101  C105  A    
C62   C78   S    
O38   Zn5   S    
C67   C85   S    
C79   C89   A    
O37   Zn6   S    
C30   C34   A    
C42   H34   S    
C43   H35   S    
C41   H33   S    
C12   C16   A    
C28   C32   A    
C9    C49   S    
O20   Zn4   S    
O21   Zn1   S    
C2    C54   S    
C103  I3    S    
O30   Zn6   S    
C53   C57   T    
C86   C87   T    
C102  I2    S    
O29   Zn5   S    
C14   H22   S    
C77   C84   T    
C101  I1    S    
C98   C102  A    
O2    Zn1   S    
C66   O40   A    
C29   H25   S    
C76   O16   A    
C89   C93   A    
C33   C37   A    
C56   C60   T    
O12   Zn11  S    
O47   Zn11  S    
C81   C91   A    
O6    Zn10  S    
C35   C39   A    
O17   Zn3   S    
C5    C9    A    
C62   O31   A    
C67   O42   A    
C36   H32   S    
C7    C65   S    
C47   O27   A    
C75   O13   A    
C7    C11   A    
C48   O28   A    
C36   C40   A    
C16   C20   A    
C97   C101  A    
C1    C53   S    
C98   H18   S    
C24   C96   S    
C90   H14   S    
O1    Zn1   S    
C1    O17   A    
C57   C71   S    
C107  H3    S    
C20   C48   S    
O40   Zn7   S    
C70   O47   A    
C42   C50   A    
O31   Zn7   S    
C71   O5    A    
C106  H2    S    
O34   Zn6   S    
C72   O10   A    
C58   C72   S    
C27   C31   A    
C10   C14   A    
C2    O2    A    
C31   C35   A    
O32   Zn8   S    
C61   O29   A    
O5    Zn9   S    
C104  I4    S    
C64   O34   A    
C10   C50   S    
C93   C97   A    
C104  C108  A    
C62   O32   A    
C19   C23   A    
C54   C58   T    
C85   C88   T    
C74   O8    A    
C92   H16   S    
C46   O26   A    
C40   H8    S    
C18   C22   A    
C65   O39   A    
O11   Zn12  S    
C35   H31   S    
O8    Zn12  S    
C17   C45   S    
C63   O37   A    
C4    O4    A    
C21   C109  A    
C100  H20   S    
C32   H28   S    
C48   O24   A    
C13   C17   A    
C23   C111  A    
C73   O11   A    
C76   O15   A    
O28   Zn4   S    
C99   H19   S    
C89   H13   S    
C108  H4    S    
C8    C112  A    
C37   H5    S    
C97   H17   S    
O44   Zn8   S    
O18   Zn3   S    
O33   Zn5   S    
C28   C52   A    
C75   O14   A    
C43   C51   A    
C64   O38   A    
C71   O9    A    
C21   C93   S    
C34   H30   S    
C39   H7    S    
O19   Zn4   S    
C96   C100  A    
C60   C74   S    
C74   O12   A    
O3    Zn2   S    
C7    C111  A    
C102  C106  A    
O23   Zn2   S    
C19   C47   S    
C112  I8    S    
C80   C90   A    
O15   Zn11  S    
C25   C49   A    
C81   H11   S    
C11   C51   S    
C6    C10   A    
C91   C95   A    
C38   H6    S    
C40   C44   A    
O13   Zn9   S    
C2    O18   A    
C39   C43   A    
C46   O22   A    
C72   O6    A    
C94   C98   A    
C23   C95   S    
O46   Zn10  S    
C103  C107  A    
C61   O30   A    
C5    C109  A    
O45   Zn9   S    
C31   H27   S    
O4    Zn2   S    
O35   Zn7   S    
O22   Zn1   S    
C4    C56   S    
C26   C30   A    
C17   C21   A    
