data_mof_unit_35211.cif
_audit_creation_date              2012-12-10T16:34:42-0500
_audit_creation_method            fapswitch 2.2
_symmetry_space_group_name_H-M    P1
_symmetry_Int_Tables_number       1
_space_group_crystal_system       triclinic
_cell_length_a                    28.197576
_cell_length_b                    18.8446
_cell_length_c                    17.123161
_cell_angle_alpha                 90.194086
_cell_angle_beta                  61.058939
_cell_angle_gamma                 89.957738
_cell_volume                      7962.42109904

loop_
_atom_site_label
_atom_site_type_symbol
_atom_type_description
_atom_site_fract_x
_atom_site_fract_y
_atom_site_fract_z
_atom_type_partial_charge
C1    C     C_R   0.703634 0.271460 0.674972 0.888213
C2    C     C_R   0.299485 0.733690 0.323143 0.905477
C3    C     C_R   0.296680 0.271487 0.324210 0.892593
C4    C     C_R   0.700987 0.733808 0.676491 0.894564
C5    C     C_R   0.203635 0.771462 0.674971 0.888212
C6    C     C_R   0.799484 0.233689 0.323143 0.905477
C7    C     C_R   0.796679 0.771488 0.324211 0.892605
C8    C     C_R   0.200984 0.233811 0.676492 0.894575
C9    C     C_R   0.906128 0.505444 0.478890 0.033723
C10   C     C_R   0.090333 0.502680 0.524755 0.029600
C11   C     C_R   0.406129 0.005444 0.478888 0.033713
C12   C     C_R   0.590332 0.002679 0.524759 0.029598
C13   C     C_R   0.092930 0.377186 0.507021 0.012449
C14   C     C_R   0.925018 0.627844 0.429348 -0.010595
C15   C     C_R   0.885581 0.387255 0.538819 -0.000759
C16   C     C_R   0.109315 0.621757 0.468889 -0.008547
C17   C     C_R   0.592931 0.877186 0.507020 0.012455
C18   C     C_R   0.425019 0.127844 0.429348 -0.010572
C19   C     C_R   0.385583 0.887254 0.538814 -0.000748
C20   C     C_R   0.609315 0.121756 0.468890 -0.008549
C21   C     C_R   0.703179 0.238768 0.972477 -0.020930
C22   C     C_R   0.261240 0.702590 0.065898 -0.024672
C23   C     C_R   0.308819 0.235500 0.011948 -0.044035
C24   C     C_R   0.747070 0.705127 0.921883 -0.019041
C25   C     C_R   0.203188 0.738787 0.972474 -0.020921
C26   C     C_R   0.761243 0.202587 0.065888 -0.024724
C27   C     C_R   0.808822 0.735476 0.011957 -0.044074
C28   C     C_R   0.247062 0.205161 0.921875 -0.018998
C29   C     C_R   0.721096 0.168655 0.971420 -0.033504
C30   C     C_R   0.225501 0.760964 0.088866 -0.026117
C31   C     C_R   0.264280 0.190234 0.043568 -0.036230
C32   C     C_R   0.803409 0.722785 0.871467 -0.031455
C33   C     C_R   0.221098 0.668672 0.971421 -0.033469
C34   C     C_R   0.725499 0.260955 0.088861 -0.026102
C35   C     C_R   0.764270 0.690232 0.043595 -0.036218
C36   C     C_R   0.303392 0.222871 0.871459 -0.031497
C37   C     C_R   0.760521 0.156750 0.999294 -0.029802
C38   C     C_R   0.215051 0.787806 0.022441 -0.036899
C39   C     C_R   0.226951 0.206041 0.014163 0.006441
C40   C     C_R   0.831030 0.750034 0.917756 -0.034631
C41   C     C_R   0.260518 0.656756 0.999301 -0.029772
C42   C     C_R   0.715044 0.287792 0.022439 -0.036877
C43   C     C_R   0.726952 0.706043 0.014172 0.006438
C44   C     C_R   0.331013 0.250101 0.917758 -0.034635
C45   C     C_R   0.632404 0.307194 0.952573 -0.044603
C46   C     C_R   0.325811 0.627220 0.101896 -0.032797
C47   C     C_R   0.381871 0.291150 0.043740 -0.041333
C48   C     C_R   0.663043 0.646753 0.923721 -0.070965
C49   C     C_R   0.132412 0.807208 0.952570 -0.044608
C50   C     C_R   0.825808 0.127215 0.101898 -0.032798
C51   C     C_R   0.881875 0.791138 0.043745 -0.041371
C52   C     C_R   0.163043 0.146755 0.923710 -0.071026
C53   C     C_R   0.618437 0.349012 0.897211 -0.156683
C54   C     C_R   0.371090 0.632492 0.118488 -0.158179
C55   C     C_R   0.388108 0.342423 0.099798 -0.133760
C56   C     C_R   0.624152 0.644281 0.891831 -0.170672
C57   C     C_R   0.118441 0.849019 0.897208 -0.156688
C58   C     C_R   0.871087 0.132485 0.118491 -0.158170
C59   C     C_R   0.888109 0.842419 0.099799 -0.133763
C60   C     C_R   0.124149 0.144280 0.891827 -0.170691
C61   C     C_R   0.649105 0.344153 0.805206 -0.120829
C62   C     C_R   0.368981 0.681378 0.182093 -0.102337
C63   C     C_R   0.353629 0.341933 0.191910 -0.086809
C64   C     C_R   0.631591 0.685636 0.819243 -0.095224
C65   C     C_R   0.149107 0.844158 0.805203 -0.120842
C66   C     C_R   0.868978 0.181372 0.182094 -0.102328
C67   C     C_R   0.853628 0.841934 0.191911 -0.086782
C68   C     C_R   0.131582 0.185635 0.819241 -0.095217
C69   C     C_R   0.684337 0.286968 0.769167 -0.132270
C70   C     C_R   0.322642 0.721228 0.226254 -0.153862
C71   C     C_R   0.318300 0.285588 0.227636 -0.139484
C72   C     C_R   0.679802 0.722190 0.772402 -0.149683
C73   C     C_R   0.184341 0.786975 0.769165 -0.132280
C74   C     C_R   0.822639 0.221223 0.226254 -0.153861
C75   C     C_R   0.818299 0.785589 0.227639 -0.139481
C76   C     C_R   0.179786 0.222201 0.772408 -0.149728
C77   C     C_R   0.704869 0.251270 0.821505 -0.040722
C78   C     C_R   0.294400 0.739087 0.179363 -0.011187
C79   C     C_R   0.300719 0.249339 0.171679 -0.067059
C80   C     C_R   0.712611 0.737295 0.813024 -0.021340
C81   C     C_R   0.204878 0.751284 0.821502 -0.040688
C82   C     C_R   0.794397 0.239081 0.179362 -0.011185
C83   C     C_R   0.800717 0.749337 0.171686 -0.067050
C84   C     C_R   0.212583 0.237327 0.813042 -0.021211
C85   C     C_R   0.693895 0.128547 0.525862 0.879460
C86   C     C_R   0.305843 0.872179 0.474788 0.895165
C87   C     C_R   0.308792 0.129835 0.464284 0.888849
C88   C     C_R   0.692345 0.871360 0.529803 0.890675
C89   C     C_R   0.193895 0.628547 0.525861 0.879467
C90   C     C_R   0.805842 0.372179 0.474789 0.895170
C91   C     C_R   0.808792 0.629836 0.464284 0.888850
C92   C     C_R   0.192346 0.371360 0.529803 0.890660
C93   C     C_R   0.679435 0.264383 0.914431 0.018969
C94   C     C_R   0.294596 0.690137 0.114657 0.018523
C95   C     C_R   0.330021 0.259767 0.076110 0.004167
C96   C     C_R   0.708376 0.693987 0.883504 0.016406
C97   C     C_R   0.179445 0.764403 0.914427 0.018983
C98   C     C_R   0.794596 0.190134 0.114652 0.018511
C99   C     C_R   0.830024 0.759755 0.076116 0.004147
C100  C     C_R   0.208368 0.194003 0.883498 0.016396
C101  C     C_R   0.076965 0.096298 0.931429 0.934516
C102  C     C_R   0.928653 0.897838 0.063735 0.887764
C103  C     C_R   0.918994 0.087774 0.073567 0.931909
C104  C     C_R   0.074398 0.900765 0.933843 0.903766
C105  C     C_R   0.576965 0.596301 0.931430 0.934482
C106  C     C_R   0.428652 0.397840 0.063736 0.887800
C107  C     C_R   0.418996 0.587779 0.073565 0.931922
C108  C     C_R   0.574397 0.400762 0.933844 0.903772
C109  C     C_R   0.557419 0.129416 0.477875 -0.018581
C110  C     C_R   0.436870 0.880791 0.532301 -0.013979
C111  C     C_R   0.464141 0.132152 0.458223 -0.005180
C112  C     C_R   0.538706 0.875934 0.525088 -0.025460
C113  C     C_R   0.057418 0.629416 0.477876 -0.018586
C114  C     C_R   0.936868 0.380792 0.532307 -0.013978
C115  C     C_R   0.964140 0.632152 0.458224 -0.005178
C116  C     C_R   0.038705 0.375935 0.525090 -0.025457
C117  C     C_R   0.537466 0.195078 0.465670 -0.039686
C118  C     C_R   0.459159 0.814574 0.536593 -0.061516
C119  C     C_R   0.488874 0.196680 0.461208 -0.059554
C120  C     C_R   0.511209 0.812010 0.529670 -0.053068
C121  C     C_R   0.037464 0.695079 0.465674 -0.039688
C122  C     C_R   0.959156 0.314575 0.536603 -0.061513
C123  C     C_R   0.988872 0.696681 0.461211 -0.059519
C124  C     C_R   0.011206 0.312010 0.529677 -0.053055
C125  C     C_R   0.479418 0.069334 0.484694 0.015897
C126  C     C_R   0.515317 0.941168 0.522615 0.005127
C127  C     C_R   0.525406 0.068455 0.496397 0.011641
C128  C     C_R   0.467369 0.942822 0.517475 0.009696
C129  C     C_R   0.979418 0.569334 0.484695 0.015920
C130  C     C_R   0.015317 0.441169 0.522616 0.005128
C131  C     C_R   0.025406 0.568456 0.496397 0.011646
C132  C     C_R   0.967368 0.442822 0.517477 0.009697
C133  C     C_R   0.950508 0.506295 0.495014 -0.018184
C134  C     C_R   0.043236 0.504369 0.515585 -0.021804
C135  C     C_R   0.450508 0.006295 0.495013 -0.018197
C136  C     C_R   0.543236 0.004369 0.515587 -0.021803
C137  C     C_R   0.875419 0.443104 0.494825 -0.025488
C138  C     C_R   0.121147 0.564087 0.509739 -0.015288
C139  C     C_R   0.112146 0.437266 0.531744 -0.019138
C140  C     C_R   0.891477 0.567029 0.449664 0.002874
C141  C     C_R   0.375421 0.943104 0.494822 -0.025489
C142  C     C_R   0.621146 0.064087 0.509743 -0.015288
C143  C     C_R   0.612145 0.937266 0.531748 -0.019142
C144  C     C_R   0.391477 0.067029 0.449664 0.002871
C145  C     C_R   0.834679 0.439254 0.468677 -0.157967
C146  C     C_R   0.164237 0.563647 0.531151 -0.172533
C147  C     C_R   0.159776 0.436486 0.541865 -0.160260
C148  C     C_R   0.842926 0.565760 0.443696 -0.179400
C149  C     C_R   0.334680 0.939254 0.468675 -0.157967
C150  C     C_R   0.664236 0.063647 0.531153 -0.172524
C151  C     C_R   0.659775 0.936486 0.541867 -0.160263
C152  C     C_R   0.342927 0.065760 0.443696 -0.179409
C153  C     C_R   0.821598 0.500706 0.437197 -0.096144
C154  C     C_R   0.177968 0.500457 0.558380 -0.099664
C155  C     C_R   0.321599 0.000705 0.437196 -0.096136
C156  C     C_R   0.677968 0.000457 0.558382 -0.099662
O1    O     O_R   0.746490 0.236330 0.638080 -0.619711
O2    O     O_R   0.253510 0.763670 0.361920 -0.625641
O3    O     O_R   0.253510 0.236330 0.361920 -0.614601
O4    O     O_R   0.746490 0.763670 0.638080 -0.641397
O5    O     O_R   0.246490 0.736330 0.638080 -0.619721
O6    O     O_R   0.753510 0.263670 0.361920 -0.625631
O7    O     O_R   0.753510 0.736330 0.361920 -0.614610
O8    O     O_R   0.246490 0.263670 0.638080 -0.641342
O9    O     O_R   0.674170 0.186160 0.516270 -0.620102
O10   O     O_R   0.325830 0.813840 0.483730 -0.617826
O11   O     O_R   0.325830 0.186160 0.483730 -0.610412
O12   O     O_R   0.674170 0.813840 0.516270 -0.621347
O13   O     O_R   0.174170 0.686160 0.516270 -0.620098
O14   O     O_R   0.825830 0.313840 0.483730 -0.617828
O15   O     O_R   0.825830 0.686160 0.483730 -0.610458
O16   O     O_R   0.174170 0.313840 0.516270 -0.621350
O17   O     O_R   0.739960 0.127620 0.525000 -0.643877
O18   O     O_R   0.260040 0.872380 0.475000 -0.613085
O19   O     O_R   0.260040 0.127620 0.475000 -0.643279
O20   O     O_R   0.739960 0.872380 0.525000 -0.610864
O21   O     O_R   0.239960 0.627620 0.525000 -0.643867
O22   O     O_R   0.760040 0.372380 0.475000 -0.613081
O23   O     O_R   0.760040 0.627620 0.475000 -0.643279
O24   O     O_R   0.239960 0.372380 0.525000 -0.610884
O25   O     O_R   0.680700 0.294870 0.629350 -0.630975
O26   O     O_R   0.319300 0.705130 0.370650 -0.639898
O27   O     O_R   0.319300 0.294870 0.370650 -0.613205
O28   O     O_R   0.680700 0.705130 0.629350 -0.637164
O29   O     O_R   0.180700 0.794870 0.629350 -0.630968
O30   O     O_R   0.819300 0.205130 0.370650 -0.639916
O31   O     O_R   0.819300 0.794870 0.370650 -0.613210
O32   O     O_R   0.180700 0.205130 0.629350 -0.637182
O33   O     O_R   0.062020 0.072840 0.007170 -0.616112
O34   O     O_R   0.937980 0.927160 0.992830 -0.658675
O35   O     O_R   0.937980 0.072840 0.992830 -0.625820
O36   O     O_R   0.062020 0.927160 0.007170 -0.623342
O37   O     O_R   0.562020 0.572840 0.007170 -0.616102
O38   O     O_R   0.437980 0.427160 0.992830 -0.658649
O39   O     O_R   0.437980 0.572840 0.992830 -0.625827
O40   O     O_R   0.562020 0.427160 0.007170 -0.623345
O41   O     O_R   0.947860 0.073950 0.109290 -0.616040
O42   O     O_R   0.052140 0.926050 0.890710 -0.641807
O43   O     O_R   0.052140 0.073950 0.890710 -0.606867
O44   O     O_R   0.947860 0.926050 0.109290 -0.626701
O45   O     O_R   0.447860 0.573950 0.109290 -0.616049
O46   O     O_R   0.552140 0.426050 0.890710 -0.641799
O47   O     O_R   0.552140 0.573950 0.890710 -0.606879
O48   O     O_R   0.447860 0.426050 0.109290 -0.626714
Zn1   Zn    Zn3+2 0.792340 0.208750 0.507670 0.973567
Zn2   Zn    Zn3+2 0.207660 0.791250 0.492330 0.987405
Zn3   Zn    Zn3+2 0.207660 0.208750 0.492330 0.974090
Zn4   Zn    Zn3+2 0.792340 0.791250 0.507670 0.991742
Zn5   Zn    Zn3+2 0.292340 0.708750 0.507670 0.973573
Zn6   Zn    Zn3+2 0.707660 0.291250 0.492330 0.987405
Zn7   Zn    Zn3+2 0.707660 0.708750 0.492330 0.974094
Zn8   Zn    Zn3+2 0.292340 0.291250 0.507670 0.991784
Zn9   Zn    Zn3+2 0.505960 0.500000 0.080520 0.949142
Zn10  Zn    Zn3+2 0.494040 0.500000 0.919480 0.936652
Zn11  Zn    Zn3+2 0.005960 1.000000 0.080520 0.949139
Zn12  Zn    Zn3+2 0.994040 0.000000 0.919480 0.936647
C157  C     C_1   0.036525 0.244288 0.526555 0.158124
N1    N     N_1   0.056891 0.190304 0.523720 -0.245759
C158  C     C_1   0.960643 0.763592 0.472525 0.166973
N2    N     N_1   0.938015 0.816881 0.481904 -0.236823
C159  C     C_1   0.933012 0.249580 0.532401 0.175750
N3    N     N_1   0.912447 0.197938 0.527446 -0.221490
C160  C     C_1   0.064505 0.760983 0.464217 0.195699
N4    N     N_1   0.086092 0.813507 0.463034 -0.235707
C161  C     C_1   0.536528 0.744287 0.526549 0.158118
N5    N     N_1   0.556893 0.690304 0.523714 -0.245753
C162  C     C_1   0.460645 0.263593 0.472522 0.167071
N6    N     N_1   0.438018 0.316882 0.481899 -0.236742
C163  C     C_1   0.433018 0.749579 0.532381 0.175760
N7    N     N_1   0.412456 0.697938 0.527418 -0.221505
C164  C     C_1   0.564509 0.260981 0.464208 0.195679
N8    N     N_1   0.586097 0.313505 0.463022 -0.235713
C165  C     C_1   0.788996 0.497162 0.393320 0.247959
N9    N     N_1   0.763168 0.493278 0.357913 -0.234323
C166  C     C_1   0.209199 0.500305 0.605160 0.241803
N10   N     N_1   0.233805 0.498990 0.642948 -0.228888
C167  C     C_1   0.289002 0.997161 0.393311 0.247948
N11   N     N_1   0.263177 0.993274 0.357898 -0.234327
C168  C     C_1   0.709201 0.000304 0.605156 0.241798
N12   N     N_1   0.733810 0.998987 0.642939 -0.228868
C169  C     C_1   0.130564 0.358482 0.416649 0.216148
N13   N     N_1   0.162155 0.348666 0.343290 -0.244756
C170  C     C_1   0.926322 0.678318 0.364401 0.167083
N14   N     N_1   0.925528 0.718264 0.313863 -0.219601
C171  C     C_1   0.839650 0.365820 0.621099 0.209207
N15   N     N_1   0.801703 0.352303 0.687510 -0.232417
C172  C     C_1   0.153396 0.652070 0.390005 0.205261
N16   N     N_1   0.189052 0.675879 0.327136 -0.229586
C173  C     C_1   0.630566 0.858489 0.416645 0.216158
N17   N     N_1   0.662158 0.848681 0.343286 -0.244749
C174  C     C_1   0.426321 0.178318 0.364402 0.167068
N18   N     N_1   0.425526 0.218265 0.313865 -0.219610
C175  C     C_1   0.339652 0.865823 0.621097 0.209193
N19   N     N_1   0.301705 0.852310 0.687509 -0.232422
C176  C     C_1   0.653398 0.152067 0.390007 0.205279
N20   N     N_1   0.689056 0.175872 0.327139 -0.229599
C177  C     C_1   0.740823 0.353075 0.979552 0.134134
N21   N     N_1   0.762880 0.404193 0.942712 -0.222224
C178  C     C_1   0.306956 0.614644 0.940517 0.187606
N22   N     N_1   0.344652 0.582324 0.891352 -0.244970
C179  C     C_1   0.377340 0.295162 0.868636 0.175950
N23   N     N_1   0.413773 0.332112 0.827738 -0.225170
C180  C     C_1   0.682600 0.754067 0.065363 0.110252
N24   N     N_1   0.646972 0.792676 0.105822 -0.276418
C181  C     C_1   0.240836 0.853086 0.979555 0.134139
N25   N     N_1   0.262898 0.904202 0.942715 -0.222225
C182  C     C_1   0.806943 0.114615 0.940537 0.187764
N26   N     N_1   0.844628 0.082262 0.891386 -0.245039
C183  C     C_1   0.877367 0.795070 0.868611 0.176060
N27   N     N_1   0.913810 0.832001 0.827691 -0.225162
C184  C     C_1   0.182597 0.254055 0.065379 0.110312
N28   N     N_1   0.146968 0.292657 0.105860 -0.276483
C185  C     C_1   0.699066 0.111093 0.943487 0.147733
N29   N     N_1   0.680002 0.066110 0.921824 -0.240338
C186  C     C_1   0.177843 0.755968 0.174859 0.184150
N30   N     N_1   0.139298 0.751560 0.243598 -0.218615
C187  C     C_1   0.282327 0.117446 0.028960 0.177950
N31   N     N_1   0.298431 0.059937 0.012351 -0.239781
C188  C     C_1   0.833812 0.706311 0.777299 0.169709
N32   N     N_1   0.858467 0.692241 0.702175 -0.203458
C189  C     C_1   0.199062 0.611126 0.943481 0.147575
N33   N     N_1   0.179988 0.566162 0.921806 -0.240351
C190  C     C_1   0.677840 0.255943 0.174850 0.184120
N34   N     N_1   0.639295 0.251519 0.243587 -0.218623
C191  C     C_1   0.782301 0.617436 0.029014 0.177965
N35   N     N_1   0.798393 0.559921 0.012423 -0.239785
C192  C     C_1   0.333784 0.206501 0.777256 0.169746
N36   N     N_1   0.358430 0.192519 0.702105 -0.203385
C193  C     C_R   0.597326 0.302980 0.050105 0.129714
C194  C     C_R   0.570615 0.239074 0.086805 -0.166352
C195  C     C_R   0.543145 0.230322 0.178853 -0.111739
C196  C     C_R   0.539751 0.286606 0.234690 -0.071068
C197  C     C_R   0.566397 0.350291 0.198809 -0.164386
C198  C     C_R   0.596807 0.357425 0.106626 -0.085465
H1    H     H_    0.572916 0.195244 0.043963 0.142025
H2    H     H_    0.525175 0.179540 0.206467 0.140554
H3    H     H_    0.518545 0.280011 0.305596 0.145307
H4    H     H_    0.565219 0.392842 0.242332 0.125866
H5    H     H_    0.619942 0.405074 0.078854 0.151208
C199  C     C_R   0.300140 0.556591 0.104141 0.092201
C200  C     C_R   0.244173 0.547236 0.162214 -0.161958
C201  C     C_R   0.217818 0.484703 0.161471 -0.151160
C202  C     C_R   0.246804 0.430306 0.102227 -0.128282
C203  C     C_R   0.302031 0.438172 0.044681 -0.134642
C204  C     C_R   0.328552 0.500289 0.046066 -0.141403
H6    H     H_    0.220284 0.589050 0.206587 0.159239
H7    H     H_    0.174747 0.478989 0.205876 0.148935
H8    H     H_    0.226381 0.382860 0.099224 0.147614
H9    H     H_    0.324101 0.397090 0.996669 0.158279
H10   H     H_    0.369645 0.506171 0.995004 0.199327
C205  C     C_R   0.430137 0.247050 0.982021 0.115127
C206  C     C_R   0.429107 0.173113 0.996208 -0.126376
C207  C     C_R   0.474154 0.130638 0.943436 -0.139182
C208  C     C_R   0.521129 0.160993 0.875783 -0.100860
C209  C     C_R   0.522976 0.233799 0.860497 -0.144229
C210  C     C_R   0.478022 0.276559 0.913091 -0.157482
H11   H     H_    0.393662 0.148057 0.049327 0.127866
H12   H     H_    0.472699 0.074124 0.955463 0.127612
H13   H     H_    0.556041 0.128094 0.835013 0.128930
H14   H     H_    0.559269 0.257120 0.807376 0.136291
H15   H     H_    0.480823 0.331887 0.896863 0.180438
C211  C     C_R   0.652476 0.607538 0.006183 0.130708
C212  C     C_R   0.684407 0.549351 0.002718 -0.131336
C213  C     C_R   0.675415 0.516326 0.081995 -0.144663
C214  C     C_R   0.633754 0.539242 0.164160 -0.151567
C215  C     C_R   0.601488 0.596570 0.168145 -0.137593
C216  C     C_R   0.611150 0.631123 0.089906 -0.054171
H16   H     H_    0.716838 0.531070 0.939259 0.152290
H17   H     H_    0.700540 0.472880 0.080836 0.169668
H18   H     H_    0.626790 0.512802 0.224794 0.121374
H19   H     H_    0.569562 0.614813 0.231966 0.112096
H20   H     H_    0.586282 0.676133 0.093734 0.140267
C217  C     C_R   0.097335 0.802992 0.050102 0.129720
C218  C     C_R   0.070622 0.739086 0.086801 -0.166348
C219  C     C_R   0.043149 0.730334 0.178849 -0.111749
C220  C     C_R   0.039752 0.786620 0.234688 -0.071072
C221  C     C_R   0.066399 0.850304 0.198808 -0.164370
C222  C     C_R   0.096813 0.857438 0.106624 -0.085462
H21   H     H_    0.072925 0.695256 0.043957 0.142037
H22   H     H_    0.025178 0.679553 0.206462 0.140557
H23   H     H_    0.018542 0.780025 0.305595 0.145319
H24   H     H_    0.065218 0.892856 0.242332 0.125864
H25   H     H_    0.119946 0.905087 0.078854 0.151210
C223  C     C_R   0.800130 0.056587 0.104152 0.092209
C224  C     C_R   0.744156 0.047250 0.162195 -0.161963
C225  C     C_R   0.717799 0.984719 0.161452 -0.151077
C226  C     C_R   0.746793 0.930302 0.102244 -0.128307
C227  C     C_R   0.802027 0.938149 0.044724 -0.134713
C228  C     C_R   0.828546 0.000270 0.046104 -0.141436
H26   H     H_    0.720261 0.089079 0.206534 0.159245
H27   H     H_    0.674722 0.979022 0.205827 0.148929
H28   H     H_    0.726371 0.882856 0.099239 0.147616
H29   H     H_    0.824103 0.897055 0.996734 0.158284
H30   H     H_    0.869643 0.006145 0.995053 0.199336
C229  C     C_R   0.930142 0.747035 0.982034 0.115145
C230  C     C_R   0.929105 0.673095 0.996210 -0.126371
C231  C     C_R   0.974151 0.630616 0.943437 -0.139184
C232  C     C_R   0.021130 0.660970 0.875795 -0.100850
C233  C     C_R   0.022984 0.733780 0.860524 -0.144207
C234  C     C_R   0.978031 0.776544 0.913118 -0.157504
H31   H     H_    0.893656 0.648038 0.049319 0.127866
H32   H     H_    0.972690 0.574099 0.955452 0.127613
H33   H     H_    0.056040 0.628069 0.835025 0.128939
H34   H     H_    0.059281 0.757101 0.807410 0.136290
H35   H     H_    0.980836 0.831874 0.896896 0.180424
C235  C     C_R   0.152481 0.107539 0.006169 0.130709
C236  C     C_R   0.184419 0.049359 0.002702 -0.131347
C237  C     C_R   0.175430 0.016336 0.081977 -0.144689
C238  C     C_R   0.133767 0.039246 0.164143 -0.151570
C239  C     C_R   0.101495 0.096566 0.168130 -0.137581
C240  C     C_R   0.111153 0.131119 0.089893 -0.054164
H36   H     H_    0.216852 0.031082 0.939242 0.152293
H37   H     H_    0.200561 0.972896 0.080818 0.169676
H38   H     H_    0.126806 0.012805 0.224775 0.121380
H39   H     H_    0.069567 0.114805 0.231952 0.112093
H40   H     H_    0.086282 0.176126 0.093724 0.140257
C241  C     C_R   0.653003 0.405688 0.747174 0.154287
C242  C     C_R   0.693278 0.457077 0.727373 -0.185177
C243  C     C_R   0.700244 0.512305 0.668477 -0.120251
C244  C     C_R   0.667002 0.516652 0.629097 -0.110132
C245  C     C_R   0.625960 0.466883 0.650021 -0.182812
C246  C     C_R   0.618749 0.411712 0.709017 0.000169
H41   H     H_    0.719553 0.453915 0.756952 0.150570
H42   H     H_    0.731605 0.551461 0.652958 0.144665
H43   H     H_    0.672447 0.559085 0.583200 0.166121
H44   H     H_    0.599944 0.470807 0.620056 0.120704
H45   H     H_    0.587350 0.372791 0.723591 0.113944
C247  C     C_R   0.416354 0.701544 0.193553 0.159444
C248  C     C_R   0.447208 0.761150 0.148377 -0.179443
C249  C     C_R   0.488689 0.785087 0.164370 -0.141116
C250  C     C_R   0.499233 0.750218 0.226280 -0.125327
C251  C     C_R   0.469205 0.690356 0.270638 -0.175256
C252  C     C_R   0.428290 0.665679 0.253808 -0.020526
H46   H     H_    0.438570 0.789604 0.101804 0.125084
H47   H     H_    0.512221 0.831178 0.129574 0.137249
H48   H     H_    0.530908 0.769238 0.239435 0.142951
H49   H     H_    0.477335 0.663332 0.318590 0.122162
H50   H     H_    0.405243 0.619604 0.288897 0.128207
C253  C     C_R   0.348527 0.403770 0.250659 0.137832
C254  C     C_R   0.305534 0.451769 0.274996 -0.190027
C255  C     C_R   0.297780 0.507459 0.334101 -0.115336
C256  C     C_R   0.332210 0.514605 0.370969 -0.109148
C257  C     C_R   0.374908 0.466843 0.347803 -0.192385
C258  C     C_R   0.383074 0.411482 0.288098 0.010451
H51   H     H_    0.277603 0.445161 0.249208 0.166320
H52   H     H_    0.264777 0.544579 0.351936 0.138428
H53   H     H_    0.326106 0.557293 0.417230 0.164707
H54   H     H_    0.401484 0.472478 0.376531 0.119436
H55   H     H_    0.415657 0.373904 0.271952 0.139201
C259  C     C_R   0.584763 0.705992 0.806281 0.136156
C260  C     C_R   0.553474 0.765470 0.852180 -0.183948
C261  C     C_R   0.508327 0.784829 0.843616 -0.138361
C262  C     C_R   0.493955 0.744861 0.789426 -0.095866
C263  C     C_R   0.524738 0.685515 0.743717 -0.142467
C264  C     C_R   0.570179 0.666363 0.751519 -0.027011
H56   H     H_    0.563900 0.796493 0.895075 0.129776
H57   H     H_    0.484310 0.830591 0.879394 0.126865
H58   H     H_    0.458859 0.759690 0.783170 0.123325
H59   H     H_    0.513140 0.654012 0.702773 0.131503
H60   H     H_    0.593210 0.619952 0.716633 0.132745
C265  C     C_R   0.153002 0.905691 0.747170 0.154298
C266  C     C_R   0.193278 0.957081 0.727360 -0.185188
C267  C     C_R   0.200242 0.012304 0.668461 -0.120235
C268  C     C_R   0.166997 0.016647 0.629085 -0.110119
C269  C     C_R   0.125954 0.966876 0.650017 -0.182816
C270  C     C_R   0.118745 0.911710 0.709017 0.000164
H61   H     H_    0.219555 0.953922 0.756937 0.150567
H62   H     H_    0.231603 0.051461 0.652936 0.144669
H63   H     H_    0.172441 0.059076 0.583184 0.166103
H64   H     H_    0.099937 0.970797 0.620054 0.120702
H65   H     H_    0.087346 0.872787 0.723596 0.113955
C271  C     C_R   0.916354 0.201546 0.193542 0.159449
C272  C     C_R   0.947209 0.261146 0.148346 -0.179424
C273  C     C_R   0.988694 0.285091 0.164325 -0.141149
C274  C     C_R   0.999241 0.250236 0.226241 -0.125333
C275  C     C_R   0.969213 0.190379 0.270617 -0.175259
C276  C     C_R   0.928294 0.165694 0.253801 -0.020537
H66   H     H_    0.938569 0.289589 0.101769 0.125069
H67   H     H_    0.012226 0.331177 0.129515 0.137219
H68   H     H_    0.030918 0.269262 0.239385 0.142973
H69   H     H_    0.977345 0.163365 0.318572 0.122162
H70   H     H_    0.905247 0.119622 0.288903 0.128200
C277  C     C_R   0.848520 0.903777 0.250654 0.137803
C278  C     C_R   0.805528 0.951776 0.274971 -0.190021
C279  C     C_R   0.797768 0.007475 0.334069 -0.115356
C280  C     C_R   0.832191 0.014631 0.370949 -0.109156
C281  C     C_R   0.874888 0.966870 0.347803 -0.192372
C282  C     C_R   0.883060 0.911500 0.288105 0.010440
H71   H     H_    0.777602 0.945161 0.249173 0.166345
H72   H     H_    0.764766 0.044594 0.351889 0.138436
H73   H     H_    0.826084 0.057325 0.417203 0.164753
H74   H     H_    0.901460 0.972512 0.376540 0.119430
H75   H     H_    0.915642 0.873923 0.271973 0.139201
C283  C     C_R   0.084749 0.205985 0.806288 0.136185
C284  C     C_R   0.053441 0.265439 0.852231 -0.183929
C285  C     C_R   0.008282 0.284784 0.843690 -0.138347
C286  C     C_R   0.993920 0.244825 0.789480 -0.095848
C287  C     C_R   0.024724 0.185502 0.743729 -0.142486
C288  C     C_R   0.070175 0.166364 0.751509 -0.027029
H76   H     H_    0.063857 0.296453 0.895143 0.129748
H77   H     H_    0.984249 0.330526 0.879502 0.126847
H78   H     H_    0.958816 0.259642 0.783243 0.123315
H79   H     H_    0.013132 0.154006 0.702770 0.131504
H80   H     H_    0.093219 0.119968 0.716596 0.132745
C289  C     C_R   0.755586 0.206937 0.780455 0.150270
C290  C     C_R   0.802174 0.230322 0.783408 -0.130372
C291  C     C_R   0.849429 0.189489 0.746289 -0.119467
C292  C     C_R   0.850407 0.123575 0.708319 -0.105518
C293  C     C_R   0.804285 0.098750 0.706837 -0.151241
C294  C     C_R   0.756907 0.139771 0.743174 -0.055047
H81   H     H_    0.801934 0.280341 0.814723 0.152143
H82   H     H_    0.885076 0.208500 0.748147 0.128033
H83   H     H_    0.886881 0.091561 0.680378 0.134852
H84   H     H_    0.805534 0.047396 0.677853 0.152810
H85   H     H_    0.721204 0.119628 0.742364 0.137169
C295  C     C_R   0.283343 0.815285 0.177309 0.114808
C296  C     C_R   0.323529 0.857260 0.110800 -0.172422
C297  C     C_R   0.315131 0.929827 0.108230 -0.108191
C298  C     C_R   0.265911 0.960221 0.170258 -0.103792
C299  C     C_R   0.225645 0.918828 0.236201 -0.167088
C300  C     C_R   0.235025 0.847118 0.241754 -0.080641
H86   H     H_    0.361506 0.833824 0.061688 0.125526
H87   H     H_    0.346734 0.962179 0.057906 0.145740
H88   H     H_    0.258773 0.015823 0.167616 0.153944
H89   H     H_    0.187354 0.942243 0.283722 0.125781
H90   H     H_    0.203588 0.816408 0.294423 0.177675
C301  C     C_R   0.249878 0.207058 0.214644 0.134741
C302  C     C_R   0.201748 0.237578 0.226065 -0.081534
C303  C     C_R   0.152133 0.202948 0.274002 -0.093267
C304  C     C_R   0.150103 0.137508 0.312739 -0.133076
C305  C     C_R   0.197786 0.105960 0.301156 -0.140473
C306  C     C_R   0.247943 0.139469 0.250369 -0.107059
H91   H     H_    0.203070 0.288970 0.197608 0.140658
H92   H     H_    0.115227 0.227530 0.282447 0.132787
H93   H     H_    0.111638 0.111059 0.351421 0.127257
H94   H     H_    0.195227 0.055682 0.332376 0.142536
H95   H     H_    0.284633 0.114853 0.242887 0.121473
C307  C     C_R   0.732838 0.811153 0.809955 0.119481
C308  C     C_R   0.704008 0.853965 0.886068 -0.164995
C309  C     C_R   0.726619 0.916316 0.897259 -0.103021
C310  C     C_R   0.776633 0.939656 0.829827 -0.099626
C311  C     C_R   0.804569 0.899836 0.751695 -0.171117
C312  C     C_R   0.783289 0.835466 0.742065 -0.084375
H96   H     H_    0.665189 0.836694 0.939320 0.145292
H97   H     H_    0.705655 0.945658 0.959186 0.158757
H98   H     H_    0.793928 0.988205 0.838454 0.160159
H99   H     H_    0.843693 0.917582 0.699850 0.138153
H100  H     H_    0.808081 0.803615 0.683866 0.171821
C313  C     C_R   0.255597 0.706952 0.780451 0.150272
C314  C     C_R   0.302184 0.730337 0.783407 -0.130395
C315  C     C_R   0.349442 0.689508 0.746277 -0.119467
C316  C     C_R   0.350424 0.623598 0.708294 -0.105433
C317  C     C_R   0.304302 0.598772 0.706812 -0.151309
C318  C     C_R   0.256921 0.639787 0.743162 -0.055048
H101  H     H_    0.301943 0.780353 0.814726 0.152145
H102  H     H_    0.385088 0.708519 0.748136 0.128042
H103  H     H_    0.386900 0.591590 0.680343 0.134867
H104  H     H_    0.305553 0.547423 0.677817 0.152739
H105  H     H_    0.221218 0.619644 0.742350 0.137204
C319  C     C_R   0.783333 0.315277 0.177320 0.114816
C320  C     C_R   0.823519 0.357264 0.110829 -0.172421
C321  C     C_R   0.815117 0.429832 0.108279 -0.108183
C322  C     C_R   0.765892 0.460215 0.170305 -0.103767
C323  C     C_R   0.725626 0.418811 0.236230 -0.167101
C324  C     C_R   0.735010 0.347100 0.241765 -0.080626
H106  H     H_    0.861500 0.333836 0.061719 0.125509
H107  H     H_    0.846720 0.462193 0.057970 0.145726
H108  H     H_    0.758752 0.515817 0.167678 0.153943
H109  H     H_    0.687332 0.442219 0.283753 0.125788
H110  H     H_    0.703573 0.316382 0.294423 0.177674
C325  C     C_R   0.749872 0.707064 0.214655 0.134759
C326  C     C_R   0.701744 0.737588 0.226071 -0.081549
C327  C     C_R   0.652128 0.702962 0.274005 -0.093291
C328  C     C_R   0.650093 0.637522 0.312747 -0.133051
C329  C     C_R   0.697774 0.605970 0.301171 -0.140479
C330  C     C_R   0.747932 0.639474 0.250384 -0.107050
H111  H     H_    0.703070 0.788977 0.197606 0.140649
H112  H     H_    0.615224 0.727545 0.282443 0.132777
H113  H     H_    0.611627 0.611076 0.351426 0.127261
H114  H     H_    0.695211 0.555691 0.332393 0.142525
H115  H     H_    0.784620 0.614855 0.242906 0.121471
C331  C     C_R   0.232698 0.311232 0.810110 0.119418
C332  C     C_R   0.203781 0.353947 0.886296 -0.165023
C333  C     C_R   0.226292 0.416337 0.897634 -0.103048
C334  C     C_R   0.276285 0.439823 0.830268 -0.099226
C335  C     C_R   0.304299 0.400104 0.752057 -0.171032
C336  C     C_R   0.283121 0.335692 0.742280 -0.084620
H116  H     H_    0.164976 0.336570 0.939489 0.145264
H117  H     H_    0.205263 0.445598 0.959619 0.158671
H118  H     H_    0.293496 0.488407 0.839004 0.160168
H119  H     H_    0.343403 0.417962 0.700264 0.138049
H120  H     H_    0.307965 0.303929 0.684018 0.171811

loop_
_geom_bond_atom_site_label_1
_geom_bond_atom_site_label_2
_ccdc_geom_bond_type
C231  C232  A    
C269  C270  A    
C160  N4    T    
C34   C42   A    
O19   Zn3   S    
C327  H112  S    
O42   Zn12  S    
C16   C113  A    
C110  C118  A    
C221  C222  A    
C103  O35   A    
C207  H12   S    
C200  C201  A    
C275  C276  A    
C27   C99   S    
C319  C324  A    
C324  H110  S    
C13   C139  A    
C46   C199  S    
C42   C177  S    
C101  O33   A    
C24   C96   S    
C331  C332  A    
C184  N28   T    
C104  O36   A    
O44   Zn11  S    
C30   C38   A    
C103  O41   A    
C226  C227  A    
C205  C210  A    
C238  H38   S    
C92   O24   A    
C223  C228  A    
C218  H21   S    
C109  C127  A    
C87   O11   A    
C186  N30   T    
C39   C184  S    
C213  C214  A    
C88   O12   A    
C323  H109  S    
C111  C125  A    
C215  C216  A    
C5    O29   A    
C125  C135  A    
C143  C151  A    
C126  C136  A    
C30   C186  S    
C19   C141  A    
C6    O6    A    
C171  N15   T    
C299  C300  A    
C92   C147  S    
C82   C98   A    
C196  H3    S    
C130  C134  A    
C73   C81   A    
C237  C238  A    
C49   C217  S    
C268  H63   S    
C115  C123  A    
C317  H104  S    
C84   C100  A    
C243  C244  A    
O1    Zn1   S    
C127  C136  A    
O14   Zn1   S    
C128  C135  A    
C44   C179  S    
C112  C120  A    
C63   C253  S    
O6    Zn6   S    
C27   C35   A    
C208  C209  A    
C293  C294  A    
C21   C29   A    
C66   C271  S    
C335  H119  S    
C86   O18   A    
C23   C31   A    
C303  H92   S    
C24   C32   A    
C254  H51   S    
C20   C142  A    
O35   Zn12  S    
C333  H117  S    
C322  H108  S    
C229  C230  A    
C146  C154  A    
C316  C317  A    
C307  C308  A    
O46   Zn10  S    
O37   Zn9   S    
C129  C133  A    
C54   C107  S    
C271  C272  A    
C63   C71   A    
C328  H113  S    
C248  C249  A    
C36   C44   A    
C304  C305  A    
C65   C265  S    
C199  C200  A    
C20   C176  S    
C68   C283  S    
C265  C270  A    
C57   C104  S    
C315  H102  S    
C48   C96   A    
C218  C219  A    
C59   C102  S    
C104  O42   A    
C16   C138  A    
C334  H118  S    
C220  C221  A    
O3    Zn3   S    
C78   C94   A    
C77   C289  S    
C258  H55   S    
C6    O30   A    
C289  C294  A    
C50   C223  S    
C85   O9    A    
C333  C334  A    
O20   Zn4   S    
C117  C119  A    
C336  H120  S    
O27   Zn8   S    
C89   O13   A    
C241  C246  A    
C53   C108  S    
C243  H42   S    
C234  H35   S    
C21   C93   S    
O8    Zn8   S    
C296  H86   S    
C227  C228  A    
C23   C95   S    
C295  C300  A    
C195  H2    S    
C149  C155  A    
C279  C280  A    
C118  C120  A    
C121  C123  A    
C49   C97   A    
C219  C220  A    
C116  C130  A    
C326  C327  A    
C290  C291  A    
C283  C288  A    
C125  C127  A    
C24   C43   A    
C45   C193  S    
C328  C329  A    
O25   Zn6   S    
C10   C138  A    
C220  H23   S    
C242  C243  A    
C235  C240  A    
C204  H10   S    
C172  N16   T    
C110  C128  A    
C244  C245  A    
C15   C137  A    
C9    C133  A    
C199  C204  A    
C310  H98   S    
O32   Zn3   S    
C265  C266  A    
C217  C222  A    
C257  C258  A    
C69   C77   A    
C45   C93   A    
C71   C79   A    
C255  C256  A    
C225  H27   S    
C106  O38   A    
C51   C229  S    
C62   C70   A    
C209  H14   S    
C251  H49   S    
C331  C336  A    
C200  H6    S    
C7    O31   A    
C261  C262  A    
C92   O16   A    
C194  C195  A    
C294  H85   S    
C179  N23   T    
C9    C140  A    
O9    Zn6   S    
C222  H25   S    
C66   C74   A    
C8    C76   S    
C49   C57   A    
C309  C310  A    
O22   Zn6   S    
C111  C119  A    
C169  N13   T    
C224  H26   S    
O24   Zn8   S    
C84   C331  S    
C302  C303  A    
O39   Zn10  S    
C52   C60   A    
C59   C67   A    
C226  H28   S    
C85   C150  S    
C53   C61   A    
C245  H44   S    
C19   C175  S    
C317  C318  A    
C247  C248  A    
C55   C63   A    
C269  H64   S    
C56   C64   A    
C283  C284  A    
C35   C43   A    
C165  N9    T    
C27   C40   A    
C221  H24   S    
C45   C53   A    
C266  H61   S    
C167  N11   T    
C3    O3    A    
C22   C94   S    
O12   Zn7   S    
C173  N17   T    
C313  C318  A    
C80   C307  S    
C185  N29   T    
C156  C168  S    
C29   C185  S    
C50   C98   A    
C287  C288  A    
C28   C36   A    
C8    O8    A    
C298  H88   S    
C157  N1    T    
C329  H114  S    
C52   C100  A    
O43   Zn12  S    
C21   C42   A    
C278  C279  A    
C197  C198  A    
C25   C38   A    
O4    Zn4   S    
C332  C333  A    
C46   C94   A    
C18   C174  S    
C166  N10   T    
C193  C194  A    
C11   C141  A    
C60   C68   A    
C259  C260  A    
C236  H36   S    
C32   C188  S    
C280  H73   S    
C25   C97   S    
C268  C269  A    
C14   C140  A    
C240  H40   S    
C87   C152  S    
C266  C267  A    
C88   C151  S    
C310  C311  A    
C67   C75   A    
C122  C124  A    
C315  C316  A    
C64   C259  S    
C233  C234  A    
C162  N6    T    
O28   Zn7   S    
O18   Zn2   S    
C256  C257  A    
C208  H13   S    
C286  C287  A    
C123  C158  S    
C124  C157  S    
C126  C128  A    
C22   C30   A    
C260  H56   S    
C332  H116  S    
O29   Zn2   S    
O16   Zn3   S    
C239  H39   S    
C254  C255  A    
C290  H81   S    
C278  H71   S    
C322  C323  A    
C101  O43   A    
C202  H8    S    
C68   C76   A    
C87   O19   A    
C307  C312  A    
C88   O20   A    
C12   C143  A    
C257  H54   S    
C198  H5    S    
C144  C152  A    
C43   C180  S    
C246  H45   S    
C138  C146  A    
C17   C173  S    
C67   C277  S    
C291  H82   S    
C304  H93   S    
C5    C73   S    
C297  C298  A    
C321  C322  A    
C248  H46   S    
C113  C121  A    
C292  C293  A    
C308  H96   S    
C12   C136  A    
C301  C302  A    
C183  N27   T    
C3    O27   A    
C228  H30   S    
C285  H77   S    
C178  N22   T    
C25   C33   A    
C252  H50   S    
C90   O22   A    
C262  C263  A    
C300  H90   S    
C297  H87   S    
C305  H94   S    
C298  C299  A    
C86   O10   A    
C52   C235  S    
C131  C134  A    
C76   C84   A    
C273  C274  A    
C109  C117  A    
C180  N24   T    
C312  H100  S    
C8    O32   A    
C217  C218  A    
C137  C145  A    
C38   C181  S    
C161  N5    T    
O11   Zn8   S    
C107  O45   A    
C90   C145  S    
C82   C319  S    
C313  C314  A    
C105  O47   A    
C22   C41   A    
C326  H111  S    
C118  C163  S    
C14   C115  A    
C34   C190  S    
C191  N35   T    
C47   C205  S    
C335  C336  A    
C242  H41   S    
C41   C178  S    
C235  C236  A    
O33   Zn11  S    
C9    C137  A    
C279  H72   S    
C318  H105  S    
C154  C166  S    
C188  N32   T    
C6    C74   S    
C301  C306  A    
C108  O40   A    
O36   Zn11  S    
C112  C126  A    
C255  H52   S    
C211  C212  A    
C284  C285  A    
C83   C99   A    
C327  C328  A    
C203  H9    S    
C74   C82   A    
C295  C296  A    
C239  C240  A    
C311  H99   S    
C253  C258  A    
C309  H97   S    
C55   C106  S    
C141  C149  A    
C281  C282  A    
C50   C58   A    
C219  H22   S    
C174  N18   T    
C158  N2    T    
C54   C62   A    
C28   C39   A    
C247  C252  A    
O5    Zn5   S    
C201  H7    S    
C117  C164  S    
C1    C69   S    
C23   C44   A    
C212  C213  A    
O2    Zn2   S    
C306  H95   S    
C3    C71   S    
C79   C95   A    
C296  C297  A    
C102  O44   A    
C192  N36   T    
C152  C155  A    
C293  H84   S    
C139  C147  A    
C46   C54   A    
C230  H31   S    
C153  C165  S    
C214  H18   S    
C151  C156  A    
C18   C111  A    
C89   C146  S    
O45   Zn9   S    
C277  C282  A    
C210  H15   S    
C91   O15   A    
C263  C264  A    
C10   C139  A    
C281  H74   S    
C4    C72   S    
C61   C241  S    
C274  H68   S    
C16   C172  S    
C311  C312  A    
C1    O25   A    
C116  C124  A    
C57   C65   A    
C251  C252  A    
C215  H19   S    
O38   Zn10  S    
C26   C37   A    
C249  C250  A    
C288  H80   S    
C193  C198  A    
C17   C143  A    
C182  N26   T    
C48   C211  S    
C142  C150  A    
C11   C144  A    
C18   C144  A    
C325  C330  A    
C259  C264  A    
O13   Zn2   S    
C299  H89   S    
C75   C83   A    
C207  C208  A    
C237  H37   S    
C7    O7    A    
C314  H101  S    
C77   C93   A    
C102  O34   A    
C12   C142  A    
C214  C215  A    
C56   C105  S    
C13   C116  A    
C106  O48   A    
C14   C170  S    
C62   C247  S    
C155  C167  S    
C72   C80   A    
C29   C37   A    
C260  C261  A    
C264  H60   S    
O17   Zn1   S    
C36   C192  S    
C2    C70   S    
O34   Zn12  S    
C262  H58   S    
C253  C254  A    
C5    O5    A    
C205  C206  A    
C280  C281  A    
C70   C78   A    
O47   Zn10  S    
C130  C132  A    
C236  C237  A    
C320  H106  S    
C140  C148  A    
C107  O39   A    
C285  C286  A    
C119  C162  S    
C250  C251  A    
C40   C183  S    
C206  C207  A    
C105  O37   A    
C271  C276  A    
C79   C301  S    
C163  N7    T    
C329  C330  A    
C196  C197  A    
C213  H17   S    
C245  C246  A    
C177  N21   T    
C11   C135  A    
C321  H107  S    
O10   Zn5   S    
C37   C182  S    
C216  H20   S    
C292  H83   S    
C308  C309  A    
O23   Zn7   S    
C176  N20   T    
C197  H4    S    
C181  N25   T    
C65   C73   A    
C325  C326  A    
C212  H16   S    
C2    O26   A    
O21   Zn5   S    
C147  C154  A    
C108  O46   A    
C223  C224  A    
C58   C66   A    
C170  N14   T    
C13   C169  S    
C202  C203  A    
C132  C133  A    
C122  C159  S    
C91   O23   A    
O31   Zn4   S    
C85   O17   A    
C305  C306  A    
C89   O21   A    
C80   C96   A    
C320  C321  A    
C273  H67   S    
O41   Zn11  S    
C2    O2    A    
C330  H115  S    
C145  C153  A    
C28   C100  S    
C195  C196  A    
C32   C40   A    
C229  C234  A    
C150  C156  A    
C316  H103  S    
C91   C148  S    
C26   C34   A    
C227  H29   S    
C334  C335  A    
C270  H65   S    
C168  N12   T    
C51   C99   A    
C250  H48   S    
C33   C189  S    
C256  H53   S    
C194  H1    S    
C291  C292  A    
C15   C171  S    
C272  H66   S    
C33   C41   A    
C284  H76   S    
C275  H69   S    
C86   C149  S    
C267  C268  A    
O7    Zn7   S    
C319  C320  A    
C7    C75   S    
C81   C313  S    
C189  N33   T    
O48   Zn9   S    
O26   Zn5   S    
C20   C109  A    
C314  C315  A    
C175  N19   T    
C159  N3    T    
C211  C216  A    
C286  H78   S    
C90   O14   A    
C35   C191  S    
C289  C290  A    
C121  C160  S    
C15   C114  A    
C232  H33   S    
C282  H75   S    
C4    O28   A    
C241  C242  A    
C233  H34   S    
C263  H59   S    
C26   C98   S    
C203  C204  A    
C261  H57   S    
C302  H91   S    
C51   C59   A    
C60   C101  S    
C17   C112  A    
C190  N34   T    
C47   C55   A    
C238  C239  A    
C115  C129  A    
C19   C110  A    
C61   C69   A    
C231  H32   S    
C48   C56   A    
C201  C202  A    
C113  C131  A    
O30   Zn1   S    
C78   C295  S    
C114  C132  A    
C10   C134  A    
C276  H70   S    
C267  H62   S    
C287  H79   S    
C303  C304  A    
C1    O1    A    
O15   Zn4   S    
C209  C210  A    
C277  C278  A    
O40   Zn9   S    
C225  C226  A    
C4    O4    A    
C81   C97   A    
C83   C325  S    
C230  C231  A    
C31   C39   A    
C244  H43   S    
C64   C72   A    
C232  C233  A    
C31   C187  S    
C274  C275  A    
C114  C122  A    
C323  C324  A    
C272  C273  A    
C148  C153  A    
C164  N8    T    
C249  H47   S    
C47   C95   A    
C206  H11   S    
C58   C103  S    
C224  C225  A    
C187  N31   T    
C120  C161  S    
C129  C131  A    
