data_mof_unit_63283.cif
_audit_creation_date              2012-12-11T14:47:30-0500
_audit_creation_method            fapswitch 2.2
_symmetry_space_group_name_H-M    P1
_symmetry_Int_Tables_number       1
_space_group_crystal_system       triclinic
_cell_length_a                    19.439191
_cell_length_b                    6.961777
_cell_length_c                    19.425447
_cell_angle_alpha                 89.999972
_cell_angle_beta                  96.043908
_cell_angle_gamma                 89.999955
_cell_volume                      2614.25866108

loop_
_atom_site_label
_atom_site_type_symbol
_atom_type_description
_atom_site_fract_x
_atom_site_fract_y
_atom_site_fract_z
_atom_type_partial_charge
O1    O     O_R   0.673510 0.377480 0.186100 -0.532568
O2    O     O_R   0.326490 0.622520 0.813900 -0.532568
O3    O     O_R   0.826490 0.877480 0.313900 -0.532568
O4    O     O_R   0.173510 0.122520 0.686100 -0.532568
O5    O     O_R   0.807790 0.705750 0.184090 -0.526238
O6    O     O_R   0.192210 0.294250 0.815910 -0.526238
O7    O     O_R   0.692210 0.205750 0.315910 -0.526238
O8    O     O_R   0.307790 0.794250 0.684090 -0.526239
C1    C     C_1   0.478117 0.994561 0.521182 0.025494
C2    C     C_1   0.521883 0.005438 0.478818 0.025494
C3    C     C_1   0.021883 0.494561 0.978818 0.025494
C4    C     C_1   0.978117 0.505439 0.021182 0.025494
C5    C     C_R   0.830658 0.538208 0.166024 0.746796
C6    C     C_R   0.169342 0.461792 0.833976 0.746796
C7    C     C_R   0.669342 0.038208 0.333976 0.746797
C8    C     C_R   0.330658 0.961792 0.666024 0.746796
O9    O     O_R   0.672870 0.707110 0.178120 -0.524335
O10   O     O_R   0.327130 0.292890 0.821880 -0.524334
O11   O     O_R   0.827130 0.207110 0.321880 -0.524335
O12   O     O_R   0.172870 0.792890 0.678120 -0.524334
O13   O     O_R   0.690610 0.878650 0.307880 -0.518211
O14   O     O_R   0.309390 0.121350 0.692120 -0.518211
O15   O     O_R   0.809390 0.378650 0.192120 -0.518211
O16   O     O_R   0.190610 0.621350 0.807880 -0.518211
C9    C     C_R   0.646042 0.540268 0.162656 0.736344
C10   C     C_R   0.353958 0.459732 0.837344 0.736343
C11   C     C_R   0.853958 0.040268 0.337344 0.736343
C12   C     C_R   0.146042 0.959732 0.662656 0.736343
C13   C     C_1   0.382708 0.971877 0.614064 -0.173916
C14   C     C_1   0.617292 0.028123 0.385936 -0.173916
C15   C     C_1   0.117292 0.471877 0.885936 -0.173916
C16   C     C_1   0.882708 0.528123 0.114064 -0.173916
O17   O     O_3   0.755980 0.544260 0.292580 -0.358321
O18   O     O_3   0.244020 0.455740 0.707420 -0.358321
O19   O     O_3   0.744020 0.044260 0.207420 -0.358321
O20   O     O_3   0.255980 0.955740 0.792580 -0.358321
V1    V     V_3+5 0.748890 0.818640 0.242100 1.493355
V2    V     V_3+5 0.251110 0.181360 0.757900 1.493356
V3    V     V_3+5 0.751110 0.318640 0.257900 1.493355
V4    V     V_3+5 0.248890 0.681360 0.742100 1.493355
C17   C     C_R   0.083469 0.957381 0.610560 -0.101082
C18   C     C_R   0.916531 0.042619 0.389440 -0.101081
C19   C     C_R   0.416531 0.457380 0.889440 -0.101082
C20   C     C_R   0.583469 0.542620 0.110560 -0.101082
C21   C     C_1   0.426265 0.981869 0.571468 0.032448
C22   C     C_1   0.573734 0.018131 0.428532 0.032448
C23   C     C_1   0.073735 0.481869 0.928532 0.032449
C24   C     C_1   0.926265 0.518131 0.071468 0.032448
C25   C     C_R   0.018591 0.211187 0.445686 -0.064852
C26   C     C_R   0.981409 0.788813 0.554314 -0.064852
C27   C     C_R   0.481410 0.711191 0.054313 -0.064852
C28   C     C_R   0.518590 0.288809 0.945687 -0.064852
C29   C     C_R   0.966397 0.191737 0.389726 0.110036
C30   C     C_R   0.033603 0.808263 0.610274 0.110036
C31   C     C_R   0.533603 0.691741 0.110273 0.110038
C32   C     C_R   0.466396 0.308259 0.889727 0.110038
C33   C     C_R   0.923037 0.907929 0.443357 -0.216716
C34   C     C_R   0.076963 0.092071 0.556643 -0.216715
C35   C     C_R   0.576962 0.407928 0.056644 -0.216714
C36   C     C_R   0.423038 0.592072 0.943356 -0.216714
C37   C     C_R   0.976107 0.922798 0.499194 0.082549
C38   C     C_R   0.023893 0.077202 0.500806 0.082549
C39   C     C_R   0.523892 0.422797 0.000807 0.082550
C40   C     C_R   0.476108 0.577203 0.999193 0.082550
H1    H     H_    0.115371 0.204911 0.557445 0.138974
H2    H     H_    0.884629 0.795089 0.442555 0.138974
H3    H     H_    0.384630 0.704915 0.942553 0.138975
H4    H     H_    0.615370 0.295085 0.057447 0.138975
I1    I     I_    0.032181 0.615577 0.696401 -0.375209
I2    I     I_    0.967819 0.384423 0.303599 -0.375209
I3    I     I_    0.467818 0.115569 0.803601 -0.375209
I4    I     I_    0.532182 0.884431 0.196399 -0.375210
C41   C     C_1   0.065938 0.372218 0.446544 0.348711
N1    N     N_1   0.103655 0.501072 0.447414 -0.323261
C42   C     C_1   0.934062 0.627782 0.553456 0.348711
N2    N     N_1   0.896345 0.498928 0.552585 -0.323261
C43   C     C_1   0.434063 0.872224 0.053454 0.348710
N3    N     N_1   0.396348 0.001081 0.052582 -0.323262
C44   C     C_1   0.565936 0.127776 0.946546 0.348710
N4    N     N_1   0.603652 0.998918 0.947418 -0.323262

loop_
_geom_bond_atom_site_label_1
_geom_bond_atom_site_label_2
_ccdc_geom_bond_type
C34   C38   A    
C1    C21   S    
O5    V1    S    
C41   N1    T    
C5    C16   S    
C3    C23   S    
O10   C10   A    
C6    C15   S    
C4    C24   S    
C43   N3    T    
C5    O15   A    
C26   C30   A    
C20   C31   A    
O19   V1    S    
C17   C34   A    
C18   C29   A    
O12   V4    S    
O15   V3    S    
C20   C35   A    
O14   V2    S    
C12   C17   S    
C9    C20   S    
C6    O16   A    
O17   V3    S    
C36   H3    S    
C2    C22   S    
O6    V2    S    
C28   C44   S    
O11   C11   A    
C1    C2    T    
C33   H2    S    
O5    C5    A    
C31   I4    S    
O7    C7    A    
O8    C8    A    
C15   C23   T    
O1    C9    A    
C16   C24   T    
C29   I2    S    
C18   C33   A    
O4    C12   A    
C10   C19   S    
O20   V4    S    
O12   C12   A    
C8    C13   S    
O17   V1    S    
C44   N4    T    
C13   C21   T    
O19   V3    S    
C42   N2    T    
C27   C43   S    
C35   H4    S    
O6    C6    A    
C34   H1    S    
C32   I3    S    
O2    C10   A    
O9    V1    S    
O11   V3    S    
C19   C36   A    
O4    V2    S    
C25   C41   S    
C7    C14   S    
C8    O14   A    
C25   C38   A    
O18   V2    S    
C14   C22   T    
C27   C40   A    
C28   C39   A    
C3    C4    T    
C33   C37   A    
C35   C39   A    
C36   C40   A    
O9    C9    A    
O20   V2    S    
O10   V2    S    
C26   C42   S    
C11   C18   S    
C30   I1    S    
C25   C29   A    
O3    C11   A    
O16   V4    S    
C27   C31   A    
C37   C38   A    
C17   C30   A    
O1    V3    S    
C39   C40   A    
O2    V4    S    
C19   C32   A    
C7    O13   A    
O13   V1    S    
O3    V1    S    
C26   C37   A    
O7    V3    S    
O18   V4    S    
O8    V4    S    
C28   C32   A    
