data_mof_unit_28172.cif
_audit_creation_date              2012-12-11T15:53:31-0500
_audit_creation_method            fapswitch 2.2
_symmetry_space_group_name_H-M    P1
_symmetry_Int_Tables_number       1
_space_group_crystal_system       triclinic
_cell_length_a                    6.928464
_cell_length_b                    14.551149
_cell_length_c                    15.97612
_cell_angle_alpha                 90.427434
_cell_angle_beta                  90.01285
_cell_angle_gamma                 89.980329
_cell_volume                      1610.6213255

loop_
_atom_site_label
_atom_site_type_symbol
_atom_type_description
_atom_site_fract_x
_atom_site_fract_y
_atom_site_fract_z
_atom_type_partial_charge
O1    O     O_R   0.361600 0.167310 0.164620 -0.545587
O2    O     O_R   0.638400 0.832690 0.835380 -0.545587
O3    O     O_R   0.691080 0.157570 0.338750 -0.547066
O4    O     O_R   0.308920 0.842430 0.661250 -0.547066
O5    O     O_R   0.861410 0.336420 0.339360 -0.543934
O6    O     O_R   0.138590 0.663580 0.660640 -0.543934
C1    C     C_R   0.522054 0.135242 0.367527 0.728187
C2    C     C_R   0.477946 0.864758 0.632473 0.728186
O7    O     O_R   0.691320 0.156280 0.165240 -0.546798
O8    O     O_R   0.308680 0.843720 0.834760 -0.546798
O9    O     O_R   0.861640 0.335130 0.164600 -0.544889
O10   O     O_R   0.138360 0.664870 0.835400 -0.544889
C3    C     C_R   0.522270 0.133789 0.136061 0.674464
C4    C     C_R   0.477730 0.866211 0.863939 0.674465
O11   O     O_R   0.361370 0.168600 0.339370 -0.528925
O12   O     O_R   0.638630 0.831400 0.660630 -0.528925
O13   O     O_3   0.527990 0.310540 0.251980 -0.368934
O14   O     O_3   0.472010 0.689460 0.748020 -0.368934
V1    V     V_3+5 0.802830 0.240980 0.251990 1.427841
V2    V     V_3+5 0.197170 0.759020 0.748010 1.427841
O15   O     O_R   0.191360 0.346160 0.165220 -0.545939
O16   O     O_R   0.808640 0.653840 0.834780 -0.545939
C5    C     C_R   0.022273 0.368278 0.136082 0.677913
C6    C     C_R   0.977727 0.631722 0.863918 0.677914
O17   O     O_R   0.191130 0.347440 0.338740 -0.524533
O18   O     O_R   0.808870 0.652560 0.661260 -0.524532
C7    C     C_R   0.022183 0.369107 0.367719 0.763855
C8    C     C_R   0.977817 0.630893 0.632281 0.763855
V3    V     V_3+5 0.302840 0.262750 0.251990 1.465082
V4    V     V_3+5 0.697160 0.737250 0.748010 1.465082
O19   O     O_3   0.027820 0.193180 0.251990 -0.375855
O20   O     O_3   0.972180 0.806820 0.748010 -0.375855
C9    C     C_3   0.819914 0.473656 0.477267 -0.228508
C10   C     C_3   0.180086 0.526344 0.522733 -0.228508
C11   C     C_3   0.910882 0.463130 0.565328 -0.065239
C12   C     C_3   0.089118 0.536870 0.434672 -0.065239
H1    H     H_    0.671507 0.452382 0.459314 0.138401
H2    H     H_    0.328493 0.547618 0.540685 0.138401
C13   C     C_3   0.988815 0.562018 0.562036 -0.070525
C14   C     C_3   0.011185 0.437982 0.437964 -0.070525
C15   C     C_3   0.900555 0.572954 0.473985 0.002484
C16   C     C_3   0.099444 0.427046 0.526015 0.002485
C17   C     C_R   0.820623 0.524530 0.966801 -0.138830
C18   C     C_R   0.179377 0.475470 0.033199 -0.138830
H3    H     H_    0.679890 0.542359 0.942311 0.118779
H4    H     H_    0.320110 0.457640 0.057689 0.118779
C19   C     C_R   0.831608 0.461550 0.032554 -0.143976
C20   C     C_R   0.168392 0.538450 0.967446 -0.143976
H5    H     H_    0.698802 0.432670 0.056493 0.119505
H6    H     H_    0.301198 0.567330 0.943507 0.119505
C21   C     C_R   0.011144 0.436107 0.066719 -0.042947
C22   C     C_R   0.988856 0.563893 0.933280 -0.042947
C23   C     C_R   0.679394 0.025280 0.467372 -0.154721
C24   C     C_R   0.320606 0.974720 0.532628 -0.154721
H7    H     H_    0.820063 0.043594 0.443162 0.122090
H8    H     H_    0.179937 0.956406 0.556838 0.122090
C25   C     C_R   0.668459 0.960049 0.531087 -0.096832
C26   C     C_R   0.331541 0.039951 0.468913 -0.096832
H9    H     H_    0.801216 0.930053 0.553997 0.133030
H10   H     H_    0.198784 0.069947 0.446003 0.133030
C27   C     C_R   0.488925 0.933928 0.564608 -0.044772
C28   C     C_R   0.511075 0.066072 0.435392 -0.044772
C29   C     C_R   0.679507 0.025551 0.032733 -0.149476
C30   C     C_R   0.320493 0.974449 0.967267 -0.149476
H11   H     H_    0.820322 0.044188 0.056848 0.116543
H12   H     H_    0.179678 0.955812 0.943152 0.116543
C31   C     C_R   0.668493 0.961514 0.967007 -0.145999
C32   C     C_R   0.331507 0.038486 0.032993 -0.145999
H13   H     H_    0.801369 0.932643 0.942697 0.117908
H14   H     H_    0.198631 0.067357 0.057302 0.117908
C33   C     C_R   0.488831 0.935065 0.933311 -0.042637
C34   C     C_R   0.511169 0.064935 0.066689 -0.042637
C35   C     C_1   0.811060 0.422370 0.637054 0.273724
N1    N     N_1   0.732242 0.390338 0.693613 -0.360488
C36   C     C_1   0.188940 0.577630 0.362946 0.273724
N2    N     N_1   0.267758 0.609662 0.306387 -0.360488
C37   C     C_2   0.787605 0.652848 0.441277 0.342081
H15   H     H_    0.730167 0.650197 0.378154 0.071802
O21   O     O_2   0.759693 0.720764 0.484828 -0.536280
C38   C     C_2   0.212395 0.347152 0.558723 0.342080
H16   H     H_    0.269833 0.349803 0.621846 0.071802
O22   O     O_2   0.240307 0.279236 0.515172 -0.536280

loop_
_geom_bond_atom_site_label_1
_geom_bond_atom_site_label_2
_ccdc_geom_bond_type
C6    C22   S    
C29   H11   S    
C26   C28   A    
O13   V3    S    
C35   N1    T    
C23   H7    S    
C10   C16   S    
O4    C2    A    
V1    O19   S    
C19   H5    S    
C37   H15   S    
C16   C38   S    
O9    V1    S    
C30   C32   A    
O3    C1    A    
C15   C37   S    
C17   C22   A    
C25   H9    S    
C31   C33   A    
O12   V4    S    
C4    C33   S    
C30   C33   A    
O9    C5    A    
C11   C16   S    
O7    C3    A    
C9    C11   S    
O5    C7    A    
O7    V1    S    
O6    C8    A    
O8    V2    S    
O3    V1    S    
O14   V4    S    
C10   C12   S    
C2    C27   S    
C20   H6    S    
C2    O12   A    
C12   C15   S    
O1    V3    S    
C18   H4    S    
O11   V3    S    
C26   H10   S    
C29   C31   A    
C37   O21   D    
O17   V3    S    
C24   H8    S    
C9    C14   S    
C10   C13   S    
C12   C14   S    
C13   C15   S    
O8    C4    A    
C23   C25   A    
C38   H16   S    
C19   C21   A    
C8    C13   S    
O15   V3    S    
C9    H1    S    
C31   H13   S    
C30   H12   S    
C11   C13   S    
C36   N2    T    
C1    C28   S    
C12   C36   S    
C23   C28   A    
C5    C21   S    
C7    C14   S    
C32   C34   A    
O10   V2    S    
C24   C26   A    
C17   H3    S    
C18   C21   A    
C38   O22   D    
C24   C27   A    
O18   V4    S    
O15   C5    A    
O16   C6    A    
O1    C3    A    
V2    O20   S    
C11   C35   S    
O16   V4    S    
C10   H2    S    
C14   C16   S    
C25   C27   A    
O5    V1    S    
C3    C34   S    
O17   C7    A    
O6    V2    S    
O10   C6    A    
O18   C8    A    
O2    V4    S    
C9    C15   S    
V3    O19   S    
V4    O20   S    
C1    O11   A    
O13   V1    S    
O14   V2    S    
O2    C4    A    
O4    V2    S    
C20   C22   A    
C29   C34   A    
C32   H14   S    
C17   C19   A    
C18   C20   A    
