data_mof_unit_45314.cif
_audit_creation_date              2012-12-11T16:56:12-0500
_audit_creation_method            fapswitch 2.2
_symmetry_space_group_name_H-M    P1
_symmetry_Int_Tables_number       1
_space_group_crystal_system       triclinic
_cell_length_a                    6.980286
_cell_length_b                    14.524206
_cell_length_c                    16.195651
_cell_angle_alpha                 90.460034
_cell_angle_beta                  90.131878
_cell_angle_gamma                 89.955259
_cell_volume                      1641.90774388

loop_
_atom_site_label
_atom_site_type_symbol
_atom_type_description
_atom_site_fract_x
_atom_site_fract_y
_atom_site_fract_z
_atom_type_partial_charge
O1    O     O_R   0.505830 0.583360 0.413880 -0.537081
O2    O     O_R   0.175830 0.595460 0.585520 -0.542729
O3    O     O_R   0.005520 0.416640 0.586120 -0.540862
C1    C     C_R   0.344705 0.617333 0.614424 0.696506
O4    O     O_R   0.176120 0.594390 0.414490 -0.544092
O5    O     O_R   0.005810 0.415570 0.413870 -0.539986
C2    C     C_R   0.344692 0.616141 0.385911 0.693142
O6    O     O_R   0.505540 0.584430 0.586130 -0.536328
O7    O     O_3   0.339200 0.441330 0.500000 -0.370600
V1    V     V_3+5 0.064350 0.510880 0.500000 1.385175
O8    O     O_R   0.676100 0.404540 0.414480 -0.540028
C3    C     C_R   0.845043 0.382242 0.386092 0.691496
O9    O     O_R   0.675810 0.405610 0.585510 -0.539377
C4    C     C_R   0.845125 0.383817 0.613629 0.743753
V2    V     V_3+5 0.564340 0.489120 0.500000 1.394956
O10   O     O_3   0.839360 0.558670 0.500000 -0.372627
C5    C     C_2   0.721348 0.209119 0.786038 -0.132824
C6    C     C_2   0.885428 0.181785 0.822674 -0.314379
H1    H     H_    0.586198 0.180576 0.806839 0.137048
H2    H     H_    0.022195 0.209672 0.803943 0.128026
C7    C     C_2   0.709219 0.277646 0.718055 -0.137312
C8    C     C_2   0.861730 0.315605 0.680540 -0.312377
H3    H     H_    0.566103 0.296788 0.698062 0.135121
H4    H     H_    0.005992 0.297161 0.698673 0.129340
C9    C     C_R   0.725858 0.245288 0.191592 0.105126
C10   C     C_R   0.882664 0.185697 0.183296 -0.110847
C11   C     C_R   0.035272 0.197182 0.239450 -0.180403
H5    H     H_    0.158913 0.152632 0.235657 0.131965
C12   C     C_R   0.023388 0.261485 0.304895 -0.179899
H6    H     H_    0.139415 0.265406 0.349108 0.131345
C13   C     C_R   0.857901 0.315694 0.316460 -0.108427
C14   C     C_R   0.713726 0.308641 0.256519 0.098616
C15   C     C_3   0.504817 0.291940 0.267147 -0.417128
C16   C     C_3   0.517939 0.223237 0.196150 -0.396223
H7    H     H_    0.417625 0.353716 0.252233 0.172898
H8    H     H_    0.472355 0.259326 0.327360 0.171096
H9    H     H_    0.438846 0.245437 0.140075 0.175492
H10   H     H_    0.492363 0.150869 0.215068 0.165954
C17   C     C_R   0.508102 0.681868 0.741182 0.105853
C18   C     C_R   0.353163 0.682019 0.685915 -0.113812
C19   C     C_R   0.201084 0.742834 0.703541 -0.180521
H11   H     H_    0.077956 0.745309 0.663107 0.134260
C20   C     C_R   0.212264 0.805666 0.770248 -0.176720
H12   H     H_    0.096857 0.854407 0.779139 0.128908
C21   C     C_R   0.376185 0.809926 0.821311 -0.111890
C22   C     C_R   0.519633 0.744302 0.806938 0.103212
C23   C     C_3   0.729298 0.757598 0.795115 -0.412435
C24   C     C_3   0.716902 0.689268 0.723768 -0.398901
H13   H     H_    0.814313 0.731724 0.848222 0.175986
H14   H     H_    0.763955 0.828727 0.775272 0.167279
H15   H     H_    0.794182 0.623751 0.735754 0.170286
H16   H     H_    0.745058 0.720559 0.662569 0.169677
C25   C     C_R   0.518011 0.739069 0.306884 0.060899
C26   C     C_R   0.353437 0.686042 0.319569 -0.096122
C27   C     C_R   0.199720 0.698627 0.264471 -0.189486
H17   H     H_    0.074745 0.655488 0.269254 0.139370
C28   C     C_R   0.212577 0.761557 0.198794 -0.197385
H18   H     H_    0.097085 0.767235 0.155105 0.147906
C29   C     C_R   0.379737 0.812498 0.185042 -0.098169
C30   C     C_R   0.532776 0.798331 0.239314 0.081890
C31   C     C_3   0.729258 0.763644 0.219683 -0.026733
C32   C     C_3   0.716739 0.704396 0.296316 -0.395029
H19   H     H_    0.837122 0.819518 0.224656 0.138937
H20   H     H_    0.811278 0.728649 0.347360 0.150974
H21   H     H_    0.722894 0.628865 0.284322 0.176381
O11   O     O_R   0.229930 0.912420 0.917160 -0.539782
O12   O     O_R   0.559420 0.902500 0.088780 -0.540469
O13   O     O_R   0.729660 0.081330 0.089380 -0.536976
C33   C     C_R   0.390736 0.879702 0.116535 0.692441
O14   O     O_R   0.559650 0.901420 0.917750 -0.540028
O15   O     O_R   0.729880 0.080250 0.917130 -0.536407
C34   C     C_R   0.390498 0.879549 0.888821 0.695141
O16   O     O_R   0.229700 0.913500 0.089410 -0.540782
O17   O     O_3   0.396250 0.055540 0.003280 -0.369803
V3    V     V_3+5 0.671130 0.986010 0.003260 1.389250
O18   O     O_R   0.059600 0.091310 0.917720 -0.544152
C35   C     C_R   0.890783 0.113159 0.889627 0.742971
O19   O     O_R   0.059370 0.092380 0.088750 -0.542630
C36   C     C_R   0.890712 0.114588 0.117235 0.695133
V4    V     V_3+5 0.171120 0.007820 0.003230 1.387025
O20   O     O_3   0.896130 0.938240 0.003240 -0.373422
C37   C     C_3   0.737911 0.705747 0.139535 -0.759130
H22   H     H_    0.606874 0.663115 0.131477 0.218505
H23   H     H_    0.753499 0.751323 0.085367 0.219421
H24   H     H_    0.862099 0.658095 0.141061 0.195551

loop_
_geom_bond_atom_site_label_1
_geom_bond_atom_site_label_2
_ccdc_geom_bond_type
C27   H17   S    
C11   C12   A    
C16   H9    S    
C19   H11   S    
C1    O6    A    
C23   H13   S    
C21   C22   A    
O13   V3    S    
C10   C11   A    
C31   C37   S    
O5    C3    A    
C15   H7    S    
O19   V4    S    
C28   C29   A    
V2    O10   S    
C15   H8    S    
C31   H19   S    
C32   H20   S    
O1    C2    A    
C22   C23   S    
O8    V2    S    
C24   H15   S    
O11   C34   A    
C13   C14   A    
C33   O16   A    
O1    V2    S    
O7    V1    S    
C9    C16   S    
C9    C14   A    
C29   C30   A    
O17   V4    S    
C7    C8    D    
C21   C34   S    
C19   C20   A    
C25   C30   A    
C5    C6    D    
C23   H14   S    
C7    H3    S    
O17   V3    S    
C1    C18   S    
O18   C35   A    
C17   C18   A    
O4    C2    A    
O19   C36   A    
V3    O20   S    
C9    C10   A    
C25   C26   A    
C5    C7    S    
C30   C31   S    
O12   C33   A    
O2    C1    A    
C20   H12   S    
C12   H6    S    
C25   C32   S    
C23   C24   S    
C15   C16   S    
C20   C21   A    
O3    C4    A    
C29   C33   S    
C17   C22   A    
C18   C19   A    
O6    V2    S    
C37   H23   S    
O9    V2    S    
C3    C13   S    
C8    H4    S    
O12   V3    S    
O2    V1    S    
O15   C35   A    
C26   C27   A    
C32   H21   S    
C16   H10   S    
O18   V4    S    
V4    O20   S    
O5    V1    S    
O8    C3    A    
C37   H24   S    
O11   V4    S    
C10   C36   S    
C14   C15   S    
C4    C8    S    
C27   C28   A    
O7    V2    S    
O4    V1    S    
C12   C13   A    
O3    V1    S    
V1    O10   S    
O15   V3    S    
C28   H18   S    
O13   C36   A    
C6    C35   S    
C5    H1    S    
O16   V4    S    
C6    H2    S    
C31   C32   S    
C24   H16   S    
C37   H22   S    
O14   V3    S    
O14   C34   A    
C2    C26   S    
O9    C4    A    
C17   C24   S    
C11   H5    S    
