data_mof_unit_40886.cif
_audit_creation_date              2012-12-11T16:30:31-0500
_audit_creation_method            fapswitch 2.2
_symmetry_space_group_name_H-M    P1
_symmetry_Int_Tables_number       1
_space_group_crystal_system       triclinic
_cell_length_a                    6.937299
_cell_length_b                    14.446548
_cell_length_c                    15.991951
_cell_angle_alpha                 89.999963
_cell_angle_beta                  89.901684
_cell_angle_gamma                 90.000113
_cell_volume                      1602.71133738

loop_
_atom_site_label
_atom_site_type_symbol
_atom_type_description
_atom_site_fract_x
_atom_site_fract_y
_atom_site_fract_z
_atom_type_partial_charge
O1    O     O_R   0.611670 0.415650 0.164070 -0.530795
O2    O     O_R   0.388330 0.915650 0.835930 -0.530804
O3    O     O_R   0.940950 0.405490 0.337780 -0.540164
O4    O     O_R   0.059050 0.905490 0.662220 -0.540164
O5    O     O_R   0.111350 0.584350 0.338470 -0.525712
O6    O     O_R   0.888650 0.084350 0.661530 -0.525714
C1    C     C_R   0.771869 0.381921 0.366024 0.662125
C2    C     C_R   0.228132 0.881923 0.633976 0.662130
O7    O     O_R   0.941380 0.404630 0.164680 -0.541158
O8    O     O_R   0.058620 0.904630 0.835320 -0.541158
O9    O     O_R   0.111780 0.583470 0.164130 -0.530311
O10   O     O_R   0.888220 0.083470 0.835870 -0.530302
C3    C     C_R   0.772772 0.383337 0.135519 0.793393
C4    C     C_R   0.227227 0.883341 0.864484 0.793398
O11   O     O_R   0.611240 0.416530 0.338400 -0.544147
O12   O     O_R   0.388760 0.916530 0.661600 -0.544149
O13   O     O_3   0.778020 0.558680 0.251290 -0.360587
O14   O     O_3   0.221980 0.058680 0.748710 -0.360588
V1    V     V_3+5 0.052840 0.489110 0.251260 1.429827
V2    V     V_3+5 0.947160 0.989110 0.748740 1.429834
O15   O     O_R   0.441500 0.594510 0.164760 -0.535135
O16   O     O_R   0.558500 0.094510 0.835240 -0.535141
C5    C     C_R   0.272963 0.615930 0.135611 0.703153
C6    C     C_R   0.727038 0.115931 0.864388 0.703148
O17   O     O_R   0.441080 0.595370 0.337860 -0.550180
O18   O     O_R   0.558920 0.095370 0.662140 -0.550179
C7    C     C_R   0.271927 0.616571 0.368052 0.675881
C8    C     C_R   0.728073 0.116570 0.631945 0.675891
V3    V     V_3+5 0.552850 0.510890 0.251270 1.416537
V4    V     V_3+5 0.447150 0.010890 0.748730 1.416530
O19   O     O_3   0.277800 0.441320 0.251250 -0.373108
O20   O     O_3   0.722200 0.941320 0.748750 -0.373108
C9    C     C_3   0.053930 0.686533 0.481308 0.103366
C10   C     C_3   0.946052 0.186510 0.518671 0.103376
H1    H     H_    0.947071 0.706116 0.432391 0.114648
H2    H     H_    0.052933 0.206094 0.567578 0.114650
C11   C     C_3   0.041746 0.760409 0.552043 -0.358587
C12   C     C_3   0.958230 0.260376 0.447926 -0.358610
H3    H     H_    0.996110 0.728353 0.612211 0.133263
H4    H     H_    0.003784 0.228307 0.387752 0.133260
H5    H     H_    0.928842 0.811993 0.535431 0.130350
H6    H     H_    0.071183 0.311945 0.464513 0.130347
H7    H     H_    0.188467 0.804583 0.359807 0.128322
H8    H     H_    0.811615 0.304564 0.640193 0.128309
H9    H     H_    0.186382 0.912378 0.464907 0.143909
H10   H     H_    0.813786 0.412357 0.535091 0.143924
C13   C     C_3   0.298701 0.785696 0.407278 -0.413609
C14   C     C_3   0.701362 0.285696 0.592724 -0.413599
C15   C     C_3   0.412063 0.665678 0.508612 -0.320054
C16   C     C_3   0.587898 0.165691 0.491396 -0.320077
C17   C     C_3   0.259278 0.686186 0.439929 0.124450
C18   C     C_3   0.740722 0.186184 0.560067 0.124446
H11   H     H_    0.559024 0.672309 0.481325 0.139660
H12   H     H_    0.440950 0.172320 0.518697 0.139659
H13   H     H_    0.399034 0.593307 0.531509 0.124856
H14   H     H_    0.600912 0.093323 0.468491 0.124869
C19   C     C_3   0.238556 0.810225 0.563960 0.102182
C20   C     C_3   0.761447 0.310222 0.436038 0.102171
C21   C     C_3   0.292940 0.857315 0.479875 -0.328624
C22   C     C_3   0.707158 0.357319 0.520132 -0.328612
C23   C     C_3   0.392348 0.734611 0.582852 -0.335882
C24   C     C_3   0.607585 0.234635 0.417164 -0.335831
H15   H     H_    0.351470 0.696098 0.640441 0.123241
H16   H     H_    0.648370 0.196126 0.359559 0.123227
H17   H     H_    0.535015 0.767216 0.594756 0.147583
H18   H     H_    0.464929 0.267263 0.405290 0.147585
H19   H     H_    0.441902 0.788725 0.375918 0.147602
H20   H     H_    0.558169 0.288743 0.624089 0.147606
H21   H     H_    0.436305 0.891301 0.485552 0.139404
H22   H     H_    0.563828 0.391346 0.514477 0.139381
H23   H     H_    0.168300 0.570298 0.753538 0.102138
H24   H     H_    0.831661 0.070294 0.246466 0.102138
C25   C     C_R   0.276840 0.944171 0.041216 0.178766
C26   C     C_R   0.723205 0.444168 0.958782 0.178783
C27   C     C_R   0.304393 0.970290 0.124712 -0.139190
C28   C     C_R   0.695725 0.470294 0.875283 -0.139179
C29   C     C_R   0.319055 0.904429 0.187223 -0.183285
C30   C     C_R   0.681095 0.404435 0.812767 -0.183286
C31   C     C_R   0.305675 0.811059 0.167790 -0.150991
C32   C     C_R   0.694427 0.311063 0.832201 -0.150985
C33   C     C_R   0.278007 0.780918 0.084564 0.035160
C34   C     C_R   0.722032 0.280919 0.915430 0.035156
C35   C     C_R   0.264059 0.848075 0.019077 0.060141
C36   C     C_R   0.735964 0.348073 0.980921 0.060139
C37   C     C_R   0.263497 0.684963 0.066750 -0.177443
C38   C     C_R   0.736510 0.184963 0.933250 -0.177437
C39   C     C_R   0.238075 0.654836 0.983296 0.048412
C40   C     C_R   0.761916 0.154836 0.016706 0.048412
C41   C     C_R   0.223854 0.720633 0.917505 0.055935
C42   C     C_R   0.776129 0.220632 0.082498 0.055920
C43   C     C_R   0.236994 0.816840 0.934976 -0.190342
C44   C     C_R   0.763001 0.316838 0.065023 -0.190330
C45   C     C_R   0.228581 0.559328 0.963670 -0.176052
C46   C     C_R   0.771416 0.059329 0.036332 -0.176041
C47   C     C_R   0.203275 0.529536 0.881584 -0.097537
C48   C     C_R   0.796719 0.029535 0.118417 -0.097557
C49   C     C_R   0.187924 0.593718 0.817275 -0.136984
C50   C     C_R   0.812049 0.093715 0.182727 -0.136983
C51   C     C_R   0.198376 0.688117 0.834603 -0.149407
C52   C     C_R   0.801592 0.188115 0.165399 -0.149395
H25   H     H_    0.314566 0.042883 0.141147 0.131526
H26   H     H_    0.685595 0.542890 0.858844 0.131517
H27   H     H_    0.340677 0.925938 0.251378 0.122324
H28   H     H_    0.659542 0.425945 0.748607 0.122324
H29   H     H_    0.317661 0.762618 0.219019 0.098740
H30   H     H_    0.682455 0.262623 0.780970 0.098728
H31   H     H_    0.240183 0.506624 0.011495 0.116536
H32   H     H_    0.759832 0.006627 0.988504 0.116535
H33   H     H_    0.195613 0.456240 0.867859 0.129054
H34   H     H_    0.804387 0.956239 0.132140 0.129058
H35   H     H_    0.186473 0.735073 0.782185 0.078953
H36   H     H_    0.813481 0.235069 0.217821 0.078938
N1    N     N_3   0.262024 0.016654 0.980411 -0.662442
H37   H     H_    0.149205 0.060509 0.997588 0.233178
H38   H     H_    0.388535 0.055666 0.982409 0.231677
N2    N     N_3   0.737970 0.516648 0.019594 -0.662440
H39   H     H_    0.850818 0.560499 0.002450 0.233168
H40   H     H_    0.611490 0.555672 0.017569 0.231673
N3    N     N_3   0.001331 0.594190 0.512370 -0.687800
H41   H     H_    0.077509 0.579258 0.567080 0.223972
H42   H     H_    0.855197 0.594768 0.528471 0.209270
N4    N     N_3   0.998614 0.094157 0.487619 -0.687805
H43   H     H_    0.922431 0.079224 0.432909 0.223961
H44   H     H_    0.144743 0.094721 0.471514 0.209273

loop_
_geom_bond_atom_site_label_1
_geom_bond_atom_site_label_2
_ccdc_geom_bond_type
C20   C24   S    
V4    O20   S    
C37   C39   A    
O13   V3    S    
O4    C2    A    
V1    O19   S    
H24   C50   S    
H23   C49   S    
C46   H32   S    
C16   H12   S    
C26   C28   A    
C41   C51   A    
C28   C30   A    
C12   H6    S    
O3    C1    A    
C30   C32   A    
C19   C21   S    
C20   C22   S    
C32   H30   S    
C25   N1    S    
N2    H39   S    
C31   H29   S    
C6    C38   S    
C42   C52   A    
C23   H15   S    
O7    C3    A    
O9    V1    S    
C24   H16   S    
C33   C35   A    
C12   C20   S    
O7    V1    S    
O6    C8    A    
O8    V2    S    
C15   C17   S    
C48   C50   A    
C16   C18   S    
O3    V1    S    
O14   V4    S    
C41   C43   A    
H7    C13   S    
C1    C20   S    
C10   H2    S    
C33   C37   A    
C14   C22   S    
N3    H42   S    
C26   N2    S    
C10   N4    S    
O5    C7    A    
O17   V3    S    
C25   C27   A    
C13   H19   S    
C49   C51   A    
C7    C17   S    
O11   V3    S    
C29   C31   A    
C28   H26   S    
C40   C46   A    
C52   H36   S    
C15   C23   S    
C24   H18   S    
C38   C40   A    
C30   H28   S    
C32   C34   A    
C47   H33   S    
C31   C33   A    
O13   V1    S    
C13   C17   S    
C1    O11   A    
C34   C38   A    
O15   V3    S    
C16   H14   S    
C9    C17   S    
C2    C19   S    
C42   C44   A    
C22   H22   S    
V3    O19   S    
C51   H35   S    
O10   V2    S    
O1    V3    S    
C14   H20   S    
C46   C48   A    
C27   C29   A    
C21   H21   S    
C40   C42   A    
C9    N3    S    
C34   C36   A    
O15   C5    A    
C3    C44   S    
O8    C4    A    
C16   C24   S    
O16   C6    A    
C29   H27   S    
O1    C3    A    
N4    H44   S    
O6    V2    S    
N1    H37   S    
V2    O20   S    
H9    C21   S    
O16   V4    S    
H10   C22   S    
C10   C12   S    
O18   C8    A    
C26   C36   A    
N3    H41   S    
C47   C49   A    
C19   C23   S    
O5    V1    S    
O17   C7    A    
C35   C43   A    
O10   C6    A    
C10   C18   S    
O2    V4    S    
C39   C41   A    
C11   H3    S    
C15   H13   S    
C45   H31   S    
C12   H4    S    
C8    C18   S    
C45   C47   A    
C48   H34   S    
C15   H11   S    
C39   C45   A    
O9    C5    A    
C9    H1    S    
N2    H40   S    
O14   V2    S    
C11   H5    S    
O2    C4    A    
C50   C52   A    
C9    C11   S    
C4    C43   S    
C13   C21   S    
O4    V2    S    
C23   H17   S    
C14   C18   S    
C2    O12   A    
C5    C37   S    
C27   H25   S    
C36   C44   A    
N4    H43   S    
O12   V4    S    
C25   C35   A    
C11   C19   S    
H8    C14   S    
N1    H38   S    
O18   V4    S    
