data_mof_unit_47993.cif
_audit_creation_date              2013-03-05T16:25:01-0500
_audit_creation_method            fapswitch 2.2
_symmetry_space_group_name_H-M    P1
_symmetry_Int_Tables_number       1
_space_group_crystal_system       triclinic
_cell_length_a                    15.228468
_cell_length_b                    13.959198
_cell_length_c                    9.079753
_cell_angle_alpha                 90.000516
_cell_angle_beta                  92.966272
_cell_angle_gamma                 90.001325
_cell_volume                      1927.56239854

loop_
_atom_site_label
_atom_site_type_symbol
_atom_site_description
_atom_site_fract_x
_atom_site_fract_y
_atom_site_fract_z
_atom_type_partial_charge
O1    O     O_R   0.371460 0.581430 0.500010 -0.538728
O2    O     O_R   0.628540 0.418570 0.499990 -0.529227
O3    O     O_R   0.628540 0.581430 0.499990 -0.538733
O4    O     O_R   0.371460 0.418570 0.500010 -0.529238
C1    C     C_R   0.330096 0.499778 0.507574 0.855819
C2    C     C_R   0.669903 0.499779 0.492418 0.855807
O5    O     O_R   0.500000 0.581420 0.288390 -0.542399
O6    O     O_R   0.500000 0.418580 0.711610 -0.557438
O7    O     O_R   0.500000 0.581420 0.711610 -0.542384
O8    O     O_R   0.500000 0.418580 0.288390 -0.557413
C3    C     C_R   0.531119 0.106211 0.622848 -0.246680
C4    C     C_R   0.440458 0.891994 0.408550 -0.248010
C5    C     C_R   0.468884 0.106204 0.377163 -0.246683
C6    C     C_R   0.559539 0.891996 0.591467 -0.247990
C7    C     C_R   0.499762 0.500001 0.220713 0.856515
C8    C     C_R   0.500238 0.500002 0.779287 0.856527
Cu1   Cu    Cu3+1 0.500000 0.596430 0.500000 1.135555
Cu2   Cu    Cu3+1 0.500000 0.403570 0.500000 1.130766
N1    N     N_R   0.500000 0.258690 0.500000 -0.281409
N2    N     N_R   0.500000 0.741310 0.500000 -0.294396
C9    C     C_R   0.500000 0.053450 0.500008 0.054004
C10   C     C_R   0.499999 0.944811 0.500009 0.053145
C11   C     C_1   0.499920 0.499985 0.065550 -0.022218
C12   C     C_1   0.500081 0.499985 0.934450 -0.022204
C13   C     C_R   0.097125 0.587042 0.554812 -0.173492
C14   C     C_R   0.908363 0.425956 0.541525 -0.185916
C15   C     C_R   0.902885 0.587062 0.445317 -0.173496
C16   C     C_R   0.091627 0.425973 0.458451 -0.185897
H1    H     H_    0.063400 0.649593 0.594313 0.196801
H2    H     H_    0.945822 0.364553 0.582028 0.194521
H3    H     H_    0.936619 0.649627 0.405880 0.196808
H4    H     H_    0.054160 0.364588 0.417890 0.194512
C17   C     C_R   0.189143 0.583043 0.567095 0.323147
C18   C     C_R   0.817504 0.418223 0.525599 0.304816
C19   C     C_R   0.810867 0.583066 0.432993 0.323150
C20   C     C_R   0.182486 0.418238 0.474323 0.304787
C21   C     C_R   0.233318 0.499506 0.519425 -0.258083
C22   C     C_R   0.766683 0.499511 0.480573 -0.258087
C23   C     C_R   0.048310 0.508818 0.500712 0.013528
C24   C     C_R   0.951690 0.508819 0.499363 0.013521
C25   C     C_R   0.533353 0.207276 0.620920 0.492899
C26   C     C_R   0.442192 0.791124 0.407605 0.496618
C27   C     C_R   0.466651 0.207269 0.379080 0.492911
C28   C     C_R   0.557804 0.791126 0.592404 0.496626
H5    H     H_    0.554826 0.069572 0.722021 0.193698
H6    H     H_    0.391690 0.927933 0.337540 0.190502
H7    H     H_    0.445180 0.069559 0.277993 0.193703
H8    H     H_    0.608303 0.927937 0.662485 0.190501
N3    N     N_R   0.571575 0.253553 0.749408 0.146056
O9    O     O_R   0.551462 0.224227 0.879305 -0.290025
O10   O     O_R   0.640105 0.307916 0.739323 -0.281797
N4    N     N_R   0.383095 0.741918 0.306639 0.140798
O11   O     O_R   0.404689 0.731937 0.170766 -0.298250
O12   O     O_R   0.300410 0.737109 0.335091 -0.299023
N5    N     N_R   0.428440 0.253536 0.250578 0.146070
O13   O     O_R   0.448535 0.224175 0.120689 -0.290029
O14   O     O_R   0.359929 0.307926 0.260649 -0.281747
N6    N     N_R   0.616892 0.741922 0.693384 0.140796
O15   O     O_R   0.595289 0.731953 0.829255 -0.298264
O16   O     O_R   0.699578 0.737107 0.664948 -0.299010
N7    N     N_R   0.235759 0.660949 0.639277 0.161765
O17   O     O_R   0.295203 0.643297 0.743937 -0.319418
O18   O     O_R   0.207512 0.748381 0.621403 -0.273001
N8    N     N_R   0.779928 0.325244 0.546491 0.169227
O19   O     O_R   0.738509 0.283288 0.435297 -0.298240
O20   O     O_R   0.809276 0.272569 0.656676 -0.273689
N9    N     N_R   0.764266 0.660991 0.360847 0.161779
O21   O     O_R   0.704833 0.643367 0.256156 -0.319390
O22   O     O_R   0.792524 0.748417 0.378777 -0.272996
N10   N     N_R   0.220054 0.325276 0.453270 0.169229
O23   O     O_R   0.261459 0.283236 0.564394 -0.298225
O24   O     O_R   0.190701 0.272684 0.342991 -0.273677

loop_
_geom_bond_atom_site_label_1
_geom_bond_atom_site_label_2
_geom_bond_distance
_ccdc_geom_bond_type
C28   N6    1.427152 S    
N2    C26   1.373277 A    
C11   C12   1.190484 T    
C2    C22   1.483263 S    
O3    Cu1   1.968642 S    
N10   O23   1.301610 A    
C1    C21   1.483258 S    
O2    Cu2   1.968633 S    
O1    Cu1   1.968636 S    
N7    O17   1.301611 A    
C19   N9    1.438035 S    
C15   C24   1.395851 A    
N5    O13   1.299948 A    
O3    C2    1.305797 A    
O4    Cu2   1.968645 S    
N8    O19   1.301626 A    
C6    C10   1.406185 A    
C18   N8    1.434994 S    
Cu1   Cu2   2.692172 S    
C5    C9    1.398669 A    
C14   C18   1.387910 A    
C8    C12   1.408966 S    
N8    O20   1.301953 A    
C9    C10   1.516516 S    
C13   C23   1.395852 A    
N9    O22   1.301457 A    
O7    Cu1   1.932758 S    
O2    C2    1.300404 A    
C4    C26   1.408349 A    
O5    Cu1   1.932756 S    
O8    Cu2   1.932760 S    
C17   N7    1.438035 S    
O1    C1    1.305793 A    
C16   H4    1.083357 S    
C25   N3    1.430672 S    
C20   C21   1.421620 A    
N2    C28   1.373278 A    
O7    C8    1.291937 A    
N4    O12   1.300154 A    
C17   C21   1.424722 A    
C14   H2    1.083357 S    
O8    C7    1.291978 A    
N5    O14   1.297392 A    
C13   H1    1.083471 S    
C20   N10   1.434980 S    
C14   C24   1.394983 A    
C3    H5    1.081264 S    
C13   C17   1.401076 A    
C7    C11   1.408966 S    
N6    O16   1.300149 A    
N9    O21   1.301614 A    
C4    C10   1.406188 A    
C5    C27   1.411322 A    
C19   C22   1.424719 A    
N4    O11   1.300596 A    
C16   C20   1.387901 A    
C6    C28   1.408350 A    
N3    O9    1.299946 A    
O6    C8    1.291975 A    
C3    C25   1.411327 A    
C27   N5    1.430680 S    
C23   C24   1.470801 S    
C5    H7    1.081262 S    
C6    H8    1.081379 S    
Cu2   N1    2.022407 S    
N10   O24   1.301939 A    
O5    C7    1.291933 A    
C16   C23   1.394974 A    
C15   C19   1.401071 A    
N6    O15   1.300596 A    
C18   C22   1.421619 A    
C15   H3    1.083466 S    
Cu1   N2    2.022407 S    
C3    C9    1.398677 A    
N7    O18   1.301455 A    
O6    Cu2   1.932755 S    
N1    C25   1.385936 A    
N1    C27   1.385942 A    
O4    C1    1.300403 A    
N3    O10   1.297402 A    
C4    H6    1.081380 S    
C26   N4    1.427148 S    
