data_mof_unit_29667.cif
_audit_creation_date              2012-12-10T16:51:18-0500
_audit_creation_method            fapswitch 2.2
_symmetry_space_group_name_H-M    P1
_symmetry_Int_Tables_number       1
_space_group_crystal_system       triclinic
_cell_length_a                    27.777968
_cell_length_b                    8.672327
_cell_length_c                    7.433027
_cell_angle_alpha                 102.974745
_cell_angle_beta                  93.963757
_cell_angle_gamma                 92.402863
_cell_volume                      1737.68177144

loop_
_atom_site_label
_atom_site_type_symbol
_atom_type_description
_atom_site_fract_x
_atom_site_fract_y
_atom_site_fract_z
_atom_type_partial_charge
C1    C     C_R   0.498543 0.199656 0.453204 0.892482
C2    C     C_R   0.501457 0.800344 0.546796 0.892481
C3    C     C_R   0.102260 0.498601 0.515822 -0.043162
C4    C     C_R   0.897742 0.501444 0.484195 -0.043161
C5    C     C_R   0.125211 0.354298 0.479290 -0.020749
C6    C     C_R   0.874791 0.645746 0.520752 -0.020743
C7    C     C_R   0.097333 0.211442 0.437612 -0.151770
C8    C     C_R   0.902670 0.788602 0.562453 -0.151777
C9    C     C_R   0.130784 0.642210 0.559144 -0.021433
C10   C     C_R   0.869219 0.357836 0.440848 -0.021427
C11   C     C_R   0.354640 0.498887 0.509238 -0.036421
C12   C     C_R   0.645360 0.501127 0.490764 -0.036430
C13   C     C_R   0.971510 0.353709 0.455082 0.043944
C14   C     C_R   0.028493 0.646337 0.544928 0.043947
C15   C     C_R   0.977190 0.647061 0.536045 0.045156
C16   C     C_R   0.022812 0.352985 0.463985 0.045157
C17   C     C_R   0.949047 0.500737 0.491676 0.068569
C18   C     C_R   0.050955 0.499308 0.508343 0.068569
C19   C     C_R   0.941543 0.211885 0.410166 -0.215913
C20   C     C_R   0.058460 0.788161 0.589812 -0.215907
C21   C     C_R   0.891550 0.214322 0.403563 -0.143727
C22   C     C_R   0.108452 0.785724 0.596407 -0.143724
C23   C     C_R   0.407493 0.499656 0.502835 0.798843
C24   C     C_R   0.592507 0.500346 0.497165 0.798837
C25   C     C_R   0.047268 0.210381 0.430250 -0.214117
C26   C     C_R   0.952734 0.789664 0.569810 -0.214124
C27   C     C_2   0.497843 0.031738 0.426804 -0.362806
C28   C     C_2   0.502157 0.968262 0.573196 -0.362807
C29   C     C_R   0.175834 0.356321 0.484147 0.535540
C30   C     C_R   0.824169 0.643723 0.515895 0.535522
C31   C     C_R   0.181300 0.638899 0.562809 0.539220
C32   C     C_R   0.818702 0.361146 0.437179 0.539216
C33   C     C_R   0.274485 0.476153 0.350036 -0.102250
C34   C     C_R   0.716344 0.481214 0.315383 -0.098320
C35   C     C_R   0.324507 0.477351 0.344499 -0.204475
C36   C     C_R   0.666234 0.480468 0.320471 -0.212748
C37   C     C_R   0.333762 0.519216 0.679502 -0.212703
C38   C     C_R   0.675497 0.523010 0.655536 -0.204520
C39   C     C_R   0.283652 0.518477 0.684593 -0.098313
C40   C     C_R   0.725519 0.524226 0.650002 -0.102231
C41   C     C_R   0.253995 0.496852 0.519860 0.363939
C42   C     C_R   0.746006 0.503190 0.480148 0.363865
Cu1   Cu    Cu3+1 0.505380 0.517380 0.684380 0.956565
Cu2   Cu    Cu3+1 0.494620 0.482620 0.315620 0.956563
H1    H     H_    0.356067 0.535947 0.808564 0.158567
H2    H     H_    0.660504 0.539295 0.788753 0.158283
H3    H     H_    0.462191 0.378197 0.948557 0.225766
H4    H     H_    0.537809 0.621803 0.051443 0.225773
H5    H     H_    0.267836 0.534565 0.816214 0.134444
H6    H     H_    0.748440 0.540867 0.777592 0.135893
H7    H     H_    0.643926 0.463460 0.191384 0.158620
H8    H     H_    0.339501 0.461333 0.211304 0.158251
H9    H     H_    0.732157 0.464863 0.183739 0.134528
H10   H     H_    0.251567 0.459782 0.222472 0.135824
H11   H     H_    0.955258 0.095599 0.378622 0.138524
H12   H     H_    0.044744 0.904448 0.621329 0.138512
H13   H     H_    0.029038 0.094513 0.397189 0.135490
H14   H     H_    0.970964 0.905533 0.602898 0.135502
H15   H     H_    0.493777 0.960036 0.285772 0.179860
H16   H     H_    0.506223 0.039964 0.714228 0.179858
N1    N     N_R   0.202607 0.497320 0.524382 -0.473976
N2    N     N_R   0.797394 0.502724 0.475632 -0.473961
N3    N     N_2   0.486510 0.456430 0.038510 -0.218479
N4    N     N_2   0.513490 0.543570 0.961490 -0.218476
O1    O     O_R   0.503500 0.286120 0.619780 -0.583125
O2    O     O_R   0.496500 0.713880 0.380220 -0.583126
O3    O     O_R   0.494410 0.256780 0.308360 -0.583307
O4    O     O_R   0.505590 0.743220 0.691640 -0.583308
O5    O     O_R   0.434810 0.514700 0.655690 -0.591925
O6    O     O_R   0.565190 0.485300 0.344310 -0.591929
O7    O     O_R   0.425720 0.485350 0.344280 -0.584427
O8    O     O_R   0.574280 0.514650 0.655720 -0.584426
O9    O     O_2   0.198171 0.218722 0.448465 -0.515287
O10   O     O_2   0.801832 0.781322 0.551593 -0.515314
O11   O     O_2   0.791072 0.224166 0.397391 -0.512327
O12   O     O_2   0.208931 0.775876 0.602577 -0.512298
H17   H     H_    0.114126 0.098880 0.409607 0.186507
H18   H     H_    0.885877 0.901164 0.590480 0.186519
H19   H     H_    0.870399 0.102288 0.369121 0.193158
H20   H     H_    0.129603 0.897758 0.630825 0.193153

loop_
_geom_bond_atom_site_label_1
_geom_bond_atom_site_label_2
_ccdc_geom_bond_type
Cu1   O8    S    
C8    C26   A    
C31   N1    A    
Cu2   O2    S    
C34   C42   A    
C41   N1    S    
C20   H12   S    
C32   O11   S    
C24   O6    A    
C39   C41   A    
Cu2   O7    S    
C19   C21   A    
C2    O4    A    
H3    N3    S    
C30   O10   S    
C9    C22   A    
H4    N4    S    
C29   O9    S    
C33   H10   S    
C3    C18   A    
C11   C37   A    
C14   C18   A    
C1    O3    A    
Cu1   O4    S    
C1    O1    A    
Cu2   O6    S    
C12   C36   A    
C42   N2    S    
C7    H17   S    
C40   C42   A    
Cu2   N3    S    
C8    H18   S    
C25   H13   S    
Cu1   N4    S    
C5    C29   A    
C28   H16   S    
C10   C21   A    
C29   N1    A    
C13   C19   A    
C23   O7    A    
C4    C6    A    
C5    C7    A    
C15   C26   A    
C6    C8    A    
C3    C5    A    
C23   O5    A    
Cu1   Cu2   S    
C3    C9    A    
C14   C20   A    
Cu1   O1    S    
C21   H19   S    
C26   H14   S    
C36   H7    S    
C4    C17   A    
C39   H5    S    
C20   C22   A    
C30   N2    A    
C4    C10   A    
C35   H8    S    
C24   O8    A    
C19   H11   S    
C16   C25   A    
C15   C17   A    
C6    C30   A    
C2    O2    A    
C12   C24   S    
C7    C25   A    
C13   C17   A    
C33   C41   A    
C11   C35   A    
C32   N2    A    
C37   C39   A    
C27   H15   S    
C38   C40   A    
C31   O12   S    
C40   H6    S    
C11   C23   S    
C33   C35   A    
C34   C36   A    
C12   C38   A    
C38   H2    S    
C9    C31   A    
C22   H20   S    
N3    N4    D    
C10   C32   A    
C34   H9    S    
C16   C18   A    
C13   C16   A    
C27   C28   D    
C1    C27   S    
C14   C15   A    
Cu2   O3    S    
C2    C28   S    
Cu1   O5    S    
C37   H1    S    
