data_mof_unit_36392.cif
_audit_creation_date              2013-03-05T16:02:25-0500
_audit_creation_method            fapswitch 2.2
_symmetry_space_group_name_H-M    P1
_symmetry_Int_Tables_number       1
_space_group_crystal_system       triclinic
_cell_length_a                    14.996427
_cell_length_b                    14.001143
_cell_length_c                    10.643259
_cell_angle_alpha                 89.915527
_cell_angle_beta                  89.769202
_cell_angle_gamma                 89.990786
_cell_volume                      2234.71384187

loop_
_atom_site_label
_atom_site_type_symbol
_atom_site_description
_atom_site_fract_x
_atom_site_fract_y
_atom_site_fract_z
_atom_type_partial_charge
O1    O     O_R   0.367860 0.580280 0.500020 -0.625649
O2    O     O_R   0.367860 0.419720 0.500020 -0.623977
C1    C     C_R   0.326533 0.500006 0.500740 0.888843
O3    O     O_R   0.500000 0.580270 0.314790 -0.630960
O4    O     O_R   0.500000 0.419730 0.314790 -0.628603
C2    C     C_R   0.498440 0.500209 0.257619 0.852756
Zn1   Zn    Zn3+2 0.500020 0.607200 0.499990 0.933312
Zn2   Zn    Zn3+2 0.500020 0.392800 0.499990 0.931154
O5    O     O_R   0.632160 0.580270 0.499960 -0.623012
O6    O     O_R   0.632160 0.419730 0.499960 -0.629094
O7    O     O_R   0.500030 0.580270 0.685200 -0.630783
O8    O     O_R   0.500030 0.419730 0.685200 -0.629998
C3    C     C_R   0.673474 0.499986 0.500825 0.884106
C4    C     C_R   0.501053 0.499962 0.742536 0.847280
C5    C     C_3   0.481465 0.602730 0.070999 -0.404113
C6    C     C_3   0.427651 0.431376 0.071743 -0.410100
H1    H     H_    0.534734 0.652805 0.101978 0.180938
H2    H     H_    0.440163 0.357315 0.105636 0.189061
H3    H     H_    0.416679 0.629932 0.107971 0.182660
H4    H     H_    0.360619 0.453332 0.106613 0.169853
C7    C     C_3   0.478755 0.601480 0.928380 -0.443154
C8    C     C_3   0.428597 0.431764 0.928013 -0.453610
H5    H     H_    0.410478 0.621478 0.896794 0.175787
H6    H     H_    0.362418 0.456210 0.893272 0.166627
H7    H     H_    0.524084 0.657565 0.890816 0.193035
H8    H     H_    0.436941 0.357685 0.892714 0.184007
H9    H     H_    0.645051 0.514170 0.118732 0.148103
H10   H     H_    0.606364 0.394525 0.114842 0.163673
C9    C     C_3   0.593097 0.467300 0.076625 -0.387626
C10   C     C_3   0.499889 0.500569 0.121579 0.116350
C11   C     C_3   0.503282 0.499746 0.879112 0.177009
C12   C     C_3   0.598461 0.468230 0.930455 0.404547
C13   C     C_R   0.815286 0.583273 0.473882 -0.259721
C14   C     C_R   0.769203 0.499964 0.504479 -0.085172
C15   C     C_R   0.814152 0.416710 0.539202 -0.256976
C16   C     C_R   0.906917 0.414933 0.541967 0.093144
C17   C     C_R   0.953511 0.499450 0.509110 0.013845
C18   C     C_R   0.907319 0.583724 0.475713 0.136701
C19   C     C_R   0.954279 0.331247 0.575770 0.197333
C20   C     C_R   0.047395 0.333042 0.574380 -0.226768
C21   C     C_R   0.093095 0.416168 0.540481 0.066434
C22   C     C_R   0.046326 0.499915 0.508561 0.056608
C23   C     C_R   0.092588 0.584142 0.475098 0.134623
C24   C     C_R   0.046149 0.667269 0.443273 -0.224085
C25   C     C_R   0.953666 0.667047 0.443529 -0.219972
C26   C     C_R   0.185396 0.416754 0.537567 -0.248891
C27   C     C_R   0.230778 0.500065 0.503595 -0.075650
C28   C     C_R   0.184796 0.583626 0.473193 -0.269573
H11   H     H_    0.779562 0.647493 0.446952 0.155858
H12   H     H_    0.776071 0.353790 0.564211 0.176759
H13   H     H_    0.084555 0.269337 0.599308 0.147143
H14   H     H_    0.221875 0.352544 0.562409 0.155563
H15   H     H_    0.220673 0.647909 0.446633 0.160085
H16   H     H_    0.081333 0.732104 0.417621 0.145473
H17   H     H_    0.918362 0.731760 0.418000 0.143976
C29   C     C_R   0.552844 0.798172 0.416432 -0.066974
C30   C     C_R   0.552898 0.202005 0.416501 -0.066550
N1    N     N_R   0.500070 0.750030 0.500050 -0.101302
N2    N     N_R   0.500070 0.249970 0.500050 -0.101863
C31   C     C_R   0.447437 0.798001 0.583843 -0.066952
C32   C     C_R   0.447447 0.201839 0.583862 -0.065508
C33   C     C_R   0.446255 0.898689 0.585988 0.015531
C34   C     C_R   0.446272 0.101149 0.586012 0.017076
C35   C     C_R   0.500236 0.949380 0.500258 0.084965
C36   C     C_R   0.500252 0.050633 0.500278 0.085149
C37   C     C_R   0.554182 0.898865 0.414484 0.016843
C38   C     C_R   0.554225 0.101322 0.414536 0.015871
C39   C     C_R   0.392657 0.949649 0.671330 -0.209482
C40   C     C_R   0.392661 0.050016 0.671338 -0.211854
C41   C     C_R   0.607909 0.050367 0.329301 -0.209031
C42   C     C_R   0.607881 0.950001 0.329267 -0.211220
H18   H     H_    0.593828 0.757909 0.351381 0.126198
H19   H     H_    0.593910 0.242402 0.351479 0.131031
H20   H     H_    0.406444 0.757607 0.648891 0.130855
H21   H     H_    0.406444 0.242111 0.648883 0.126456
H22   H     H_    0.350727 0.911907 0.738016 0.139326
H23   H     H_    0.350731 0.087620 0.738017 0.137644
H24   H     H_    0.649868 0.088110 0.262651 0.139558
H25   H     H_    0.649822 0.912399 0.262598 0.137650
C43   C     C_3   0.672811 0.538642 0.887828 -0.907338
H26   H     H_    0.674790 0.545538 0.783917 0.238686
H27   H     H_    0.663745 0.610633 0.929229 0.227010
H28   H     H_    0.739274 0.512798 0.918911 0.244951
C44   C     C_3   0.627429 0.367436 0.884556 -0.889251
H29   H     H_    0.577878 0.311791 0.909461 0.227572
H30   H     H_    0.639455 0.366143 0.781641 0.259918
H31   H     H_    0.691294 0.346408 0.929534 0.229668
C45   C     C_3   0.907585 0.239867 0.612779 -0.935019
H32   H     H_    0.864878 0.252509 0.696611 0.241827
H33   H     H_    0.865875 0.214186 0.533741 0.242326
H34   H     H_    0.955640 0.182298 0.636658 0.241076

loop_
_geom_bond_atom_site_label_1
_geom_bond_atom_site_label_2
_geom_bond_distance
_ccdc_geom_bond_type
C34   C36   1.408518 A    
H9    C9    1.114616 S    
C21   C22   1.408085 A    
C40   H23   1.083351 S    
C15   C16   1.391788 A    
C44   H31   1.111889 S    
C4    C11   1.454124 S    
C42   H25   1.083346 S    
C11   C12   1.592490 S    
C32   H21   1.082842 S    
C5    H3    1.114021 S    
C7    C11   1.561928 S    
C17   C18   1.413829 A    
C31   C33   1.410076 A    
C16   C17   1.417001 A    
C44   H30   1.109546 S    
C9    C12   1.557523 S    
C43   H28   1.111747 S    
Zn2   N2    1.999784 S    
O4    C2    1.280058 A    
O7    C4    1.278650 A    
C30   N2    1.365752 A    
C41   H24   1.083425 S    
C13   H11   1.085347 S    
C26   H14   1.085226 S    
Zn1   O5    2.017118 S    
C14   C15   1.396495 A    
C30   H19   1.082877 S    
C17   C22   1.391897 A    
C32   C34   1.410044 A    
O5    C3    1.283457 A    
C18   C25   1.399479 A    
C33   C35   1.408513 A    
C34   C40   1.405710 A    
C39   C40   1.405254 A    
C29   H18   1.082819 S    
C21   C26   1.384438 A    
C41   C42   1.405241 A    
C23   C28   1.382881 A    
Zn1   N1    1.999785 S    
C6    H4    1.113547 S    
C19   C45   1.509646 S    
C30   C38   1.410002 A    
O3    Zn1   2.007418 S    
C28   H15   1.085182 S    
C12   C44   1.555331 S    
N2    C32   1.365770 A    
C8    C11   1.557385 S    
C27   C28   1.396217 A    
C44   H29   1.107891 S    
C43   H27   1.108798 S    
C19   C20   1.396654 A    
C36   C38   1.408515 A    
O1    C1    1.283558 A    
C35   C37   1.408501 A    
Zn1   O7    2.006429 S    
C23   C24   1.398141 A    
C9    C10   1.547506 S    
C12   C43   1.554313 S    
C37   C42   1.405744 A    
C45   H34   1.110995 S    
Zn2   O8    2.007521 S    
C15   H12   1.082263 S    
C13   C14   1.393372 A    
C6    H2    1.113524 S    
O3    C2    1.276505 A    
C20   C21   1.396935 A    
C2    C10   1.447989 S    
C45   H33   1.110578 S    
C7    H5    1.114550 S    
C8    H6    1.114147 S    
C22   C23   1.412765 A    
C6    C10   1.549170 S    
C24   C25   1.386906 A    
C5    C10   1.552700 S    
C31   H20   1.082874 S    
C5    H1    1.114185 S    
C7    H7    1.111584 S    
C26   C27   1.396967 A    
H10   C9    1.114722 S    
C6    C8    1.529769 S    
O1    Zn1   2.017508 S    
C16   C19   1.416807 A    
O2    Zn2   2.017389 S    
O8    C4    1.279314 A    
C43   H26   1.110294 S    
O6    C3    1.283306 A    
O4    Zn2   2.006326 S    
C39   H22   1.083411 S    
C20   H13   1.084821 S    
C13   C18   1.380395 A    
C33   C39   1.405711 A    
C38   C41   1.405688 A    
C35   C36   1.417667 A    
O2    C1    1.283557 A    
C3    C14   1.436287 S    
C29   C37   1.410086 A    
C1    C27   1.436188 S    
C29   N1    1.365820 A    
C24   H16   1.084080 S    
C5    C7    1.518765 S    
C45   H32   1.110606 S    
C25   H17   1.084145 S    
Zn2   O6    2.017237 S    
C8    H8    1.110546 S    
N1    C31   1.365798 A    
