data_mof_unit_39093.cif
_audit_creation_date              2012-12-11T17:41:38-0500
_audit_creation_method            fapswitch 2.2
_symmetry_space_group_name_H-M    P1
_symmetry_Int_Tables_number       1
_space_group_crystal_system       triclinic
_cell_length_a                    15.455303
_cell_length_b                    14.808063
_cell_length_c                    15.037998
_cell_angle_alpha                 109.596602
_cell_angle_beta                  120.694745
_cell_angle_gamma                 59.362804
_cell_volume                      2533.1486935

loop_
_atom_site_label
_atom_site_type_symbol
_atom_type_description
_atom_site_fract_x
_atom_site_fract_y
_atom_site_fract_z
_atom_type_partial_charge
C1    C     C_R   0.745045 0.000104 0.789788 -0.185012
C2    C     C_R   0.382705 0.304496 0.117959 -0.115268
C3    C     C_R   0.591950 0.685555 0.799344 -0.155762
C4    C     C_R   0.429305 0.195678 0.091671 -0.162989
C5    C     C_R   0.633741 0.734237 0.900498 0.179650
C6    C     C_R   0.362455 0.139888 0.039240 0.240967
C7    C     C_R   0.747922 0.688141 0.963756 -0.098809
C8    C     C_R   0.248678 0.194391 0.015742 -0.091013
C9    C     C_R   0.818631 0.596501 0.926371 -0.131200
C10   C     C_R   0.202673 0.303048 0.043363 -0.143688
C11   C     C_R   0.776248 0.549639 0.825604 -0.116014
C12   C     C_R   0.199115 0.063335 0.228284 -0.158180
C13   C     C_R   0.269397 0.358221 0.093502 -0.101469
C14   C     C_R   0.563596 0.849697 0.038212 0.558770
C15   C     C_R   0.389159 0.998633 0.899437 0.596087
C16   C     C_R   0.243389 0.291005 0.490820 -0.120435
C17   C     C_R   0.801377 0.726288 0.560111 -0.137871
C18   C     C_R   0.496064 0.948949 0.072167 -0.193733
C19   C     C_R   0.474238 0.914830 0.871905 -0.197712
C20   C     C_R   0.412311 0.025988 0.003268 -0.225057
C21   C     C_R   0.557876 0.834269 0.937987 -0.209688
C22   C     C_2   0.150449 0.399372 0.614377 -0.202970
C23   C     C_R   0.211758 0.300757 0.566327 0.141641
C24   C     C_2   0.978017 0.653955 0.537101 -0.222482
C25   C     C_2   0.134602 0.491876 0.599973 -0.115508
C26   C     C_2   0.039284 0.585954 0.608826 -0.118134
C27   C     C_2   0.825053 0.135609 0.897404 -0.337662
C28   C     C_2   0.015966 0.056513 0.157377 -0.360798
C29   C     C_R   0.096501 0.722507 0.176593 0.682466
C30   C     C_R   0.845623 0.122558 0.409997 0.707771
C31   C     C_R   0.192660 0.657189 0.251726 -0.330083
C32   C     C_R   0.739574 0.205818 0.381086 -0.320579
C33   C     C_R   0.298410 0.628037 0.260058 0.039425
C34   C     C_R   0.863030 0.726282 0.518416 0.152678
C35   C     C_R   0.716890 0.297257 0.449981 0.047246
C36   C     C_R   0.307218 0.663733 0.190860 -0.136678
C37   C     C_R   0.802961 0.307364 0.546011 -0.156831
C38   C     C_R   0.212614 0.726067 0.114138 -0.171217
C39   C     C_R   0.909955 0.227480 0.572901 -0.159731
C40   C     C_R   0.592498 0.215883 0.485378 -0.131314
C41   C     C_R   0.407366 0.768367 0.440172 -0.154924
C42   C     C_R   0.107856 0.755574 0.106372 -0.284247
C43   C     C_R   0.931822 0.135698 0.505498 -0.300988
C44   C     C_R   0.404355 0.461389 0.343206 -0.263389
C45   C     C_R   0.503511 0.299809 0.431077 0.061788
C46   C     C_R   0.599785 0.481885 0.419014 -0.261698
C47   C     C_R   0.505926 0.379672 0.394667 0.054875
C48   C     C_R   0.498806 0.570094 0.391877 0.046385
C49   C     C_R   0.605313 0.385416 0.419602 0.068668
C50   C     C_R   0.400411 0.554913 0.335729 0.072334
C51   C     C_2   0.857494 0.109917 0.990796 0.458928
C52   C     C_2   0.974748 0.084110 0.062244 0.507351
C53   C     C_R   0.402723 0.983370 0.707422 -0.067611
C54   C     C_R   0.593882 0.956494 0.268312 -0.077139
C55   C     C_R   0.410519 0.290155 0.412223 -0.126956
C56   C     C_R   0.498842 0.674128 0.442756 0.056020
C57   C     C_R   0.591486 0.694084 0.514565 -0.116623
C58   C     C_R   0.585284 0.912186 0.788164 -0.144973
C59   C     C_R   0.408177 0.025308 0.194878 -0.164091
C60   C     C_R   0.242599 0.199812 0.583082 -0.141341
C61   C     C_R   0.800630 0.815207 0.466223 -0.133732
C62   C     C_R   0.754594 0.087225 0.701455 0.310198
C63   C     C_R   0.193154 0.976407 0.318055 0.301754
C64   C     C_R   0.772480 0.079761 0.800043 0.117078
C65   C     C_R   0.133594 0.026159 0.227783 0.143433
C66   C     C_3   0.586961 0.708576 0.089604 -0.242945
C67   C     C_R   0.488532 0.931536 0.791166 0.128604
C68   C     C_3   0.213630 0.025696 0.784088 -0.350335
C69   C     C_3   0.910343 0.841136 0.130087 -0.224991
C70   C     C_3   0.926526 0.940369 0.393747 -0.317920
C71   C     C_3   0.815207 0.126504 0.682242 -1.066839
C72   C     C_3   0.141853 0.961318 0.370414 -1.085263
C73   C     C_3   0.087935 0.981400 0.978474 -0.312522
C74   C     C_3   0.697617 0.158954 0.003008 -0.247974
C75   C     C_R   0.501064 0.970190 0.174837 0.154032
C76   C     C_R   0.662968 0.594082 0.762157 -0.118333
H1    H     H_    0.752809 0.968455 0.849595 0.177538
H2    H     H_    0.516951 0.155249 0.109766 0.109682
H3    H     H_    0.782709 0.723555 0.041508 0.170591
H4    H     H_    0.195753 0.153052 0.976862 0.122652
H5    H     H_    0.906479 0.562066 0.975483 0.130241
H6    H     H_    0.115050 0.344663 0.025006 0.118272
H7    H     H_    0.009276 0.588853 0.661512 0.128566
H8    H     H_    0.177121 0.495651 0.562894 0.128263
H9    H     H_    0.008992 0.649581 0.484403 0.136814
H10   H     H_    0.106616 0.396544 0.650767 0.135461
H11   H     H_    0.036847 0.802640 0.044517 0.129067
H12   H     H_    0.172183 0.125544 0.185610 0.170290
H13   H     H_    0.015724 0.075184 0.527973 0.128896
H14   H     H_    0.230556 0.353051 0.457092 0.091693
H15   H     H_    0.829530 0.676554 0.616501 0.086410
H16   H     H_    0.184629 0.630021 0.304513 0.144194
H17   H     H_    0.673881 0.197840 0.306444 0.141886
H18   H     H_    0.387518 0.640741 0.194374 0.118067
H19   H     H_    0.787238 0.377725 0.599654 0.112848
H20   H     H_    0.220768 0.749648 0.059115 0.122857
H21   H     H_    0.976009 0.236916 0.646236 0.138734
H22   H     H_    0.327701 0.453323 0.309088 0.129164
H23   H     H_    0.962838 0.054224 0.182660 0.173731
H24   H     H_    0.675944 0.489053 0.446262 0.132829
H25   H     H_    0.675792 0.186671 0.497522 0.133160
H26   H     H_    0.321849 0.782421 0.395189 0.144980
H27   H     H_    0.318009 0.994036 0.673196 0.129436
H28   H     H_    0.679520 0.920032 0.280486 0.131412
H29   H     H_    0.326088 0.332572 0.359783 0.092367
H30   H     H_    0.677128 0.638713 0.538973 0.093682
H31   H     H_    0.669064 0.863725 0.837233 0.109481
H32   H     H_    0.322607 0.048848 0.139625 0.118721
H33   H     H_    0.229819 0.178803 0.636345 0.131485
H34   H     H_    0.863867 0.176454 0.892315 0.171119
H35   H     H_    0.829399 0.845603 0.435889 0.087256
H36   H     H_    0.646733 0.646042 0.143260 0.175132
H37   H     H_    0.563030 0.668965 0.008892 0.136213
H38   H     H_    0.513401 0.755591 0.108045 0.131483
H39   H     H_    0.194985 0.018994 0.843225 0.140065
H40   H     H_    0.240211 0.947163 0.739657 0.135156
H41   H     H_    0.135868 0.080198 0.728952 0.181968
H42   H     H_    0.878213 0.830969 0.043996 0.139469
H43   H     H_    0.938038 0.905980 0.164830 0.180675
H44   H     H_    0.840226 0.864865 0.148599 0.187711
H45   H     H_    0.831171 0.478871 0.796729 0.105140
H46   H     H_    0.908998 0.950134 0.460433 0.119265
H47   H     H_    0.015995 0.917134 0.421374 0.173645
H48   H     H_    0.906984 0.874636 0.338657 0.199586
H49   H     H_    0.770563 0.213196 0.679191 0.261784
H50   H     H_    0.899845 0.108184 0.745614 0.254570
H51   H     H_    0.826908 0.084337 0.610124 0.248947
H52   H     H_    0.067964 0.034597 0.372223 0.275129
H53   H     H_    0.116750 0.895509 0.327192 0.261049
H54   H     H_    0.200978 0.943782 0.451880 0.244010
H55   H     H_    0.023159 0.954080 0.916784 0.149130
H56   H     H_    0.233189 0.442623 0.113177 0.123178
H57   H     H_    0.149216 0.923846 0.037019 0.159106
H58   H     H_    0.132500 0.984132 0.941229 0.161428
H59   H     H_    0.641810 0.182970 0.922855 0.159338
H60   H     H_    0.709493 0.227742 0.059206 0.134745
H61   H     H_    0.656107 0.132010 0.024371 0.172607
H62   H     H_    0.630148 0.557730 0.684052 0.119758
H63   H     H_    0.434343 0.347275 0.156331 0.125749
H64   H     H_    0.504322 0.718613 0.749004 0.115672
N1    N     N_R   0.705410 0.966550 0.689210 -0.067477
N2    N     N_R   0.556610 0.796750 0.548620 -0.037116
N3    N     N_R   0.556610 0.951620 0.703500 -0.046178
N4    N     N_R   0.443390 0.048380 0.296500 -0.041687
N5    N     N_R   0.294590 0.131500 0.522480 -0.042839
N6    N     N_R   0.705410 0.868500 0.477520 -0.043700
N7    N     N_R   0.705410 0.023370 0.632390 -0.061765
N8    N     N_R   0.294590 0.976630 0.367610 -0.059985
N9    N     N_R   0.294590 0.033450 0.310790 -0.072193
N10   N     N_R   0.294590 0.188320 0.465660 -0.045384
N11   N     N_R   0.705410 0.811680 0.534340 -0.042278
N12   N     N_R   0.556610 0.157790 0.497330 -0.040928
N13   N     N_R   0.443390 0.842210 0.502670 -0.044896
N14   N     N_R   0.443390 0.997080 0.657540 -0.056372
N15   N     N_R   0.556610 0.002920 0.342460 -0.054318
N16   N     N_R   0.443390 0.203250 0.451380 -0.040857
Ni1   Ni    Ni4+2 0.629830 0.882720 0.617850 0.205105
Ni2   Ni    Ni4+2 0.370170 0.117280 0.382150 0.207642
Ni3   Ni    Ni4+2 0.629830 0.013030 0.487540 0.208619
Ni4   Ni    Ni4+2 0.370170 0.986970 0.512460 0.201658
O1    O     O_3   0.638644 0.771470 0.104789 -0.626173
O2    O     O_3   0.293808 0.066733 0.829500 -0.618064
O3    O     O_3   0.995123 0.745278 0.172266 -0.653117
O4    O     O_3   0.862297 0.031960 0.341073 -0.634011
O5    O     O_3   0.042624 0.082966 0.026651 -0.646964
O6    O     O_3   0.799941 0.074895 0.008262 -0.655698

loop_
_geom_bond_atom_site_label_1
_geom_bond_atom_site_label_2
_ccdc_geom_bond_type
C63   C65   A    
C16   H14   S    
C26   H7    S    
C66   H37   S    
C29   C42   A    
C1    H1    S    
C29   O3    S    
C15   O2    S    
C17   H15   S    
C30   O4    S    
N7    Ni3   S    
C73   H55   S    
C72   H53   S    
C47   C49   A    
C11   H45   S    
C56   C57   A    
C15   C19   A    
C46   C49   A    
C37   H19   S    
C43   H13   S    
C57   N2    A    
C55   H29   S    
C2    H63   S    
N11   Ni1   S    
C14   C21   A    
C54   H28   S    
C35   C37   A    
C24   C26   D    
C38   C42   A    
C11   C76   A    
C68   H41   S    
C39   H21   S    
C69   H42   S    
C33   C36   A    
C41   H26   S    
C40   N12   A    
C48   C56   S    
C58   H31   S    
N8    Ni4   S    
C2    C13   A    
C14   C18   A    
C62   C64   A    
C60   H33   S    
C40   H25   S    
C44   H22   S    
C70   H47   S    
N12   N16   A    
C27   H34   S    
C22   C25   D    
C74   H60   S    
C35   C49   S    
C25   H8    S    
C31   C33   A    
C71   H50   S    
C19   C67   S    
N10   Ni2   S    
N9    Ni2   S    
N5    N10   A    
C44   C47   A    
C48   C50   A    
C57   H30   S    
N12   Ni3   S    
C53   N14   A    
C71   H51   S    
C17   N11   A    
C58   N3    A    
C27   C51   D    
N3    Ni1   S    
C41   N13   A    
C45   C47   S    
C23   C60   A    
C74   H61   S    
C46   C48   A    
C12   H12   S    
N15   Ni3   S    
C51   C52   S    
C32   C35   A    
N8    N9    A    
C73   O5    S    
C54   N15   A    
C5    C7    A    
N5    Ni4   S    
N3    N14   A    
C39   C43   A    
N6    Ni3   S    
C25   C26   S    
C10   H6    S    
C34   C61   A    
C24   C34   S    
N6    N11   A    
C66   O1    S    
C15   C20   A    
C73   H58   S    
C2    C4    A    
C61   N6    A    
C41   C56   A    
N14   Ni4   S    
C70   H48   S    
C52   O5    S    
C70   H46   S    
C74   H59   S    
C63   C72   S    
C18   C75   S    
C3    C76   A    
C9    C11   A    
C14   O1    S    
C68   H40   S    
C28   H23   S    
N1    Ni1   S    
C72   H52   S    
C59   N4    A    
C16   C23   A    
C68   O2    S    
C62   N7    A    
C30   C43   A    
C4    C6    A    
C17   C34   A    
N2    Ni1   S    
N4    Ni2   S    
C61   H35   S    
C1    C64   A    
C59   C75   A    
C63   N8    A    
C74   O6    S    
C7    H3    S    
C24   H9    S    
C44   C50   A    
C7    C9    A    
C46   H24   S    
C55   N16   A    
C66   H38   S    
C19   C21   A    
C12   N9    A    
C8    C10   A    
C69   O3    S    
C73   H57   S    
C3    C5    A    
C10   C13   A    
C70   O4    S    
C6    C8    A    
C72   H54   S    
C42   H11   S    
C76   H62   S    
C4    H2    S    
C6    C20   S    
C12   C65   A    
C69   H44   S    
C59   H32   S    
N4    N15   A    
N16   Ni2   S    
C28   C65   S    
C33   C50   S    
C29   C31   A    
C30   C32   A    
C28   C52   D    
C53   H27   S    
C36   C38   A    
C13   H56   S    
C69   H43   S    
C62   C71   S    
C32   H17   S    
C18   C20   A    
C22   H10   S    
N2    N13   A    
C53   C67   A    
C1    N1    A    
C27   C64   S    
N1    N7    A    
C68   H39   S    
C54   C75   A    
C36   H18   S    
C58   C67   A    
C5    C21   S    
C40   C45   A    
C45   C55   A    
C37   C39   A    
C31   H16   S    
C60   N5    A    
C38   H20   S    
C8    H4    S    
N13   Ni4   S    
C22   C23   S    
C71   H49   S    
C51   O6    S    
C16   N10   A    
C3    H64   S    
C66   H36   S    
C9    H5    S    
