data_mof_unit_50971.cif
_audit_creation_date              2012-12-11T16:08:48-0500
_audit_creation_method            fapswitch 2.2
_symmetry_space_group_name_H-M    P1
_symmetry_Int_Tables_number       1
_space_group_crystal_system       triclinic
_cell_length_a                    12.913192
_cell_length_b                    13.266465
_cell_length_c                    27.748359
_cell_angle_alpha                 94.979581
_cell_angle_beta                  90.079092
_cell_angle_gamma                 119.155321
_cell_volume                      4130.48162196

loop_
_atom_site_label
_atom_site_type_symbol
_atom_type_description
_atom_site_fract_x
_atom_site_fract_y
_atom_site_fract_z
_atom_type_partial_charge
C1    C     C_R   0.628248 0.895529 0.427311 0.546181
C2    C     C_R   0.700374 0.481784 0.250530 -0.104084
C3    C     C_R   0.686144 0.453075 0.298384 -0.088844
C4    C     C_R   0.688329 0.353451 0.310163 0.038959
C5    C     C_R   0.715932 0.410604 0.214196 0.037201
C6    C     C_1   0.724488 0.436920 0.164537 -0.047698
C7    C     C_1   0.664184 0.317332 0.358327 -0.040484
C8    C     C_1   0.730559 0.460055 0.123147 -0.004459
C9    C     C_R   0.217384 0.767084 0.345962 -0.131072
C10   C     C_R   0.206072 0.763703 0.296542 -0.006966
C11   C     C_R   0.196714 0.759974 0.195399 -0.010040
C12   C     C_R   0.601582 0.222856 0.440778 0.547765
C13   C     C_R   0.220912 0.680471 0.217531 -0.014716
C14   C     C_R   0.225317 0.683687 0.267561 -0.126148
C15   C     C_R   0.188907 0.760607 0.144582 -0.025583
C16   C     C_R   0.133410 0.817770 0.125359 -0.019068
C17   C     C_R   0.176118 0.927750 0.357917 -0.039149
C18   C     C_R   0.160180 0.923903 0.306659 -0.008809
C19   C     C_R   0.179740 0.842436 0.276258 0.038935
C20   C     C_R   0.129358 0.998870 0.283891 -0.015873
C21   C     C_R   0.117296 0.990096 0.233572 -0.126022
C22   C     C_R   0.138372 0.911376 0.204589 -0.005711
C23   C     C_R   0.268894 0.875983 0.425460 0.550391
C24   C     C_R   0.172290 0.838332 0.225437 0.037422
C25   C     C_R   0.117361 0.899396 0.154881 -0.139682
C26   C     C_R   0.212961 0.853991 0.376623 -0.020490
C27   C     C_R   0.733836 0.952451 0.353616 -0.128857
C28   C     C_R   0.734433 0.940904 0.303966 -0.009651
C29   C     C_R   0.734744 0.924886 0.203185 -0.000347
C30   C     C_R   0.808864 0.031700 0.230393 -0.024636
C31   C     C_R   0.808524 0.038430 0.280495 -0.134531
C32   C     C_R   0.740906 0.912200 0.153036 -0.128280
C33   C     C_R   0.677921 0.802932 0.127204 -0.002713
C34   C     C_R   0.627256 0.898933 0.565012 0.543263
C35   C     C_R   0.579646 0.750640 0.353700 -0.042748
C36   C     C_R   0.580269 0.735195 0.302159 -0.016554
C37   C     C_R   0.656995 0.833819 0.277748 0.036432
C38   C     C_R   0.506532 0.628100 0.273402 -0.037754
C39   C     C_R   0.511020 0.621879 0.223077 -0.139399
C40   C     C_R   0.585550 0.719084 0.199890 -0.006889
C41   C     C_R   0.658113 0.826153 0.226972 0.047647
C42   C     C_R   0.594468 0.708376 0.149971 -0.119948
C43   C     C_R   0.651293 0.862001 0.378378 -0.015904
C44   C     C_R   0.750489 0.308871 0.649763 -0.045025
C45   C     C_R   0.605414 0.230657 0.577814 0.530866
C46   C     C_R   0.758145 0.319243 0.701224 -0.024160
C47   C     C_R   0.766911 0.342185 0.804010 -0.005936
C48   C     C_R   0.853812 0.326494 0.779262 -0.032836
C49   C     C_R   0.847069 0.310011 0.728336 -0.032180
C50   C     C_R   0.775139 0.363850 0.854876 -0.125546
C51   C     C_R   0.687270 0.376513 0.879216 -0.011916
C52   C     C_R   0.582147 0.342246 0.649839 -0.034478
C53   C     C_R   0.580932 0.347082 0.700991 -0.024538
C54   C     C_R   0.669361 0.333959 0.726529 0.011936
C55   C     C_R   0.490697 0.356941 0.727296 -0.031047
C56   C     C_R   0.321871 0.900574 0.569867 0.549835
C57   C     C_R   0.486141 0.348463 0.777361 -0.034844
C58   C     C_R   0.579126 0.345918 0.802739 -0.011475
C59   C     C_R   0.671521 0.340026 0.777610 0.038518
C60   C     C_R   0.585253 0.356819 0.853358 -0.120672
C61   C     C_R   0.650922 0.301082 0.625404 -0.036836
C62   C     C_1   0.282985 0.887773 0.618282 0.015927
C63   C     C_R   0.221508 0.768670 0.731522 -0.011330
C64   C     C_R   0.200329 0.759357 0.780768 -0.108066
C65   C     C_R   0.186645 0.935804 0.787071 -0.108076
C66   C     C_R   0.207515 0.946180 0.737791 -0.011688
C67   C     C_1   0.638930 0.279333 0.397173 0.003681
C68   C     C_R   0.226814 0.863338 0.709845 0.006954
C69   C     C_R   0.183710 0.842984 0.808523 0.005777
C70   C     C_1   0.149942 0.825447 0.857601 -0.034426
C71   C     C_1   0.255157 0.876694 0.659649 -0.032478
C72   C     C_1   0.113423 0.803384 0.897311 0.009563
C73   C     C_1   0.643312 0.866068 0.611125 0.013538
C74   C     C_R   0.761985 0.902123 0.730813 -0.109289
C75   C     C_R   0.765378 0.894287 0.780736 -0.009631
C76   C     C_R   0.558041 0.741927 0.773930 -0.012328
C77   C     C_R   0.556574 0.750024 0.723933 -0.111736
C78   C     C_R   0.706033 0.283561 0.273954 -0.098959
C79   C     C_R   0.658064 0.829934 0.702402 0.004769
C80   C     C_R   0.662922 0.814118 0.802757 0.006531
C81   C     C_1   0.669180 0.801479 0.853879 -0.031139
C82   C     C_1   0.651864 0.846245 0.652081 -0.032118
C83   C     C_1   0.683874 0.790583 0.895631 0.014010
C84   C     C_R   0.067386 0.774307 0.078424 0.537311
C85   C     C_R   0.737754 0.491916 0.074569 0.554924
C86   C     C_R   0.719339 0.782580 0.080571 0.540878
C87   C     C_R   0.058033 0.766837 0.941813 0.550107
C88   C     C_R   0.710002 0.433672 0.928854 0.553477
C89   C     C_R   0.719742 0.311995 0.226142 -0.085831
C90   C     C_R   0.716117 0.776266 0.943009 0.553217
Cr1   Cr    Cr6+3 0.416430 0.829200 0.492370 1.075037
Cr2   Cr    Cr6+3 0.674630 0.087020 0.504170 1.068521
Cr3   Cr    Cr6+3 0.408920 0.083740 0.503490 1.093742
Cr4   Cr    Cr6+3 0.914010 0.832750 0.013970 1.044198
Cr5   Cr    Cr6+3 0.922310 0.578600 0.003000 1.066028
Cr6   Cr    Cr6+3 0.656280 0.574630 0.003870 1.051769
H1    H     H_    0.515942 0.363182 0.872934 0.158510
O1    O     O_R   0.296680 0.802170 0.437540 -0.510763
O2    O     O_R   0.662610 0.183990 0.557860 -0.494066
O3    O     O_R   0.500730 0.201280 0.562180 -0.497839
O4    O     O_R   0.312500 0.978850 0.548170 -0.478873
O5    O     O_3   0.499990 0.999990 0.500010 -0.288616
O6    O     O_R   0.820790 0.857990 0.068830 -0.516782
O7    O     O_R   0.016700 0.827330 0.062850 -0.509058
O8    O     O_R   0.041970 0.673520 0.060040 -0.499450
O9    O     O_R   0.817980 0.483660 0.048840 -0.480574
O10   O     O_R   0.637200 0.461990 0.052510 -0.500106
O11   O     O_R   0.664790 0.681920 0.057970 -0.514880
O12   O     O_R   0.525380 0.838530 0.443500 -0.486096
O13   O     O_R   0.815840 0.852920 0.961840 -0.493586
O14   O     O_R   0.012100 0.822630 0.963670 -0.489291
O15   O     O_R   0.037010 0.668460 0.953040 -0.498502
O16   O     O_R   0.813390 0.478970 0.949660 -0.493451
O17   O     O_R   0.632250 0.456930 0.945520 -0.508521
O18   O     O_R   0.660200 0.677230 0.958780 -0.488345
O19   O     O_3   0.830870 0.661990 0.006950 -0.277939
O20   O     O_R   0.702130 0.995190 0.446810 -0.511194
O21   O     O_R   0.661770 0.181390 0.458760 -0.495482
O22   O     O_R   0.499820 0.198480 0.455280 -0.485745
O23   O     O_R   0.311660 0.976250 0.449080 -0.479891
O24   O     O_R   0.297580 0.804960 0.544440 -0.485209
O25   O     O_R   0.526220 0.841130 0.542590 -0.502564
O26   O     O_R   0.703030 0.997990 0.553710 -0.489506
H2    H     H_    0.706791 0.205763 0.282508 0.115738
H3    H     H_    0.091107 0.045690 0.216679 0.131125
C91   C     C_1   0.110745 0.087877 0.309506 0.217655
N1    N     N_1   0.095932 0.159797 0.329468 -0.253678
C92   C     C_1   0.153229 0.002710 0.392112 0.234411
N2    N     N_1   0.135033 0.061856 0.419904 -0.237507
H4    H     H_    0.802942 0.984903 0.134428 0.151497
H5    H     H_    0.791770 0.037135 0.372632 0.158559
C93   C     C_1   0.888196 0.135298 0.208231 0.165876
N3    N     N_1   0.951757 0.218268 0.190584 -0.272795
H6    H     H_    0.865769 0.120818 0.301383 0.140713
H7    H     H_    0.544366 0.623786 0.129688 0.147596
H8    H     H_    0.456859 0.539446 0.201663 0.146159
C94   C     C_1   0.424479 0.521244 0.292688 0.192837
N4    N     N_1   0.358299 0.434856 0.307468 -0.238601
H9    H     H_    0.731399 0.256161 0.198403 0.134946
C95   C     C_1   0.509347 0.655848 0.382344 0.216967
N5    N     N_1   0.453895 0.581030 0.405753 -0.243152
H10   H     H_    0.852387 0.376774 0.875676 0.147986
C96   C     C_1   0.848114 0.319387 0.620795 0.244408
N6    N     N_1   0.925604 0.328359 0.597271 -0.226533
C97   C     C_1   0.949162 0.323693 0.806127 0.202449
N7    N     N_1   0.025037 0.321477 0.827425 -0.217755
C98   C     C_1   0.927898 0.275558 0.705572 0.222417
N8    N     N_1   0.992564 0.247688 0.688067 -0.209052
C99   C     C_1   0.385173 0.343293 0.802694 0.206600
N9    N     N_1   0.304643 0.338531 0.822773 -0.213784
C100  C     C_1   0.398137 0.371320 0.704269 0.240065
N10   N     N_1   0.323909 0.383109 0.686629 -0.188029
C101  C     C_1   0.522313 0.386785 0.621086 0.241974
N11   N     N_1   0.475751 0.422665 0.597697 -0.235162
C102  C     C_1   0.232291 0.677505 0.703498 0.197680
N12   N     N_1   0.240055 0.604055 0.680993 -0.244877
H11   H     H_    0.697566 0.558408 0.241732 0.119340
H12   H     H_    0.193942 0.685444 0.797271 0.149143
H13   H     H_    0.169939 0.998372 0.808442 0.152636
C103  C     C_1   0.202906 0.038985 0.716088 0.202813
N13   N     N_1   0.198052 0.112590 0.698516 -0.241541
H14   H     H_    0.839968 0.965371 0.714142 0.145446
C104  C     C_1   0.875014 0.969703 0.808682 0.207544
N14   N     N_1   0.962801 0.030113 0.831055 -0.261649
C105  C     C_1   0.450576 0.660387 0.794929 0.200548
N15   N     N_1   0.364257 0.595379 0.811747 -0.253280
H15   H     H_    0.475926 0.695280 0.701810 0.156196
H16   H     H_    0.671436 0.507260 0.325907 0.128009
C106  C     C_1   0.241767 0.709616 0.111573 0.238841
N16   N     N_1   0.284268 0.669783 0.084993 -0.262302
H17   H     H_    0.240650 0.706700 0.360205 0.156000
C107  C     C_1   0.229277 0.586050 0.191092 0.217059
N17   N     N_1   0.235282 0.509744 0.170258 -0.263197
H18   H     H_    0.243672 0.622475 0.284193 0.130557
H19   H     H_    0.079756 0.947809 0.139658 0.145318

loop_
_geom_bond_atom_site_label_1
_geom_bond_atom_site_label_2
_ccdc_geom_bond_type
C66   C68   A    
C105  N15   T    
C56   O24   A    
C27   H5    S    
C106  N16   T    
C11   C24   A    
C50   H10   S    
C35   C36   A    
C65   H13   S    
C92   N2    T    
C32   H4    S    
C97   N7    T    
C53   C54   A    
C107  N17   T    
C20   C91   S    
C46   C49   A    
C15   C106  S    
C91   N1    T    
C5    C6    S    
C17   C26   A    
C36   C37   A    
C56   O4    A    
C8    C85   S    
C29   C32   A    
Cr5   O15   S    
C31   H6    S    
C38   C39   A    
C65   C69   A    
C87   O14   A    
C58   C60   A    
C96   N6    T    
Cr4   O14   S    
C16   C84   S    
C49   C98   S    
C75   C104  S    
C18   C19   A    
C23   C26   S    
C88   O16   A    
Cr2   O21   S    
Cr5   O8    S    
C98   N8    T    
C1    O12   A    
C11   C15   A    
C1    C43   S    
C13   C107  S    
C44   C96   S    
C104  N14   T    
C93   N3    T    
C89   H9    S    
C22   C25   A    
C57   C99   S    
C3    H16   S    
C100  N10   T    
Cr6   O18   S    
Cr3   O23   S    
C78   H2    S    
C75   C80   A    
Cr5   O19   S    
C18   C20   A    
Cr2   O5    S    
C39   H8    S    
C40   C42   A    
Cr6   O11   S    
Cr4   O7    S    
C34   O25   A    
C21   C22   A    
C37   C41   A    
Cr6   O17   S    
C4    C7    S    
C86   O6    A    
C66   C103  S    
C81   C83   T    
C44   C46   A    
C9    C26   A    
C84   O8    A    
C47   C50   A    
C54   C59   A    
C53   C55   A    
C78   C89   A    
C12   C67   S    
C74   C75   A    
C76   C77   A    
C60   H1    S    
C45   O2    A    
Cr2   O26   S    
Cr3   O4    S    
C23   O23   A    
C74   H14   S    
Cr4   O19   S    
C6    C8    T    
C87   O15   A    
C50   C51   A    
C52   C101  S    
C90   O18   A    
C7    C67   T    
Cr1   O25   S    
C42   H7    S    
C51   C88   S    
C33   C86   S    
C4    C78   A    
C29   C30   A    
Cr5   O9    S    
C35   C95   S    
C12   O22   A    
C25   H19   S    
C47   C48   A    
C10   C19   A    
C48   C97   S    
C46   C54   A    
C17   C18   A    
C77   C79   A    
C76   C105  S    
C1    O20   A    
C64   C69   A    
C95   N5    T    
Cr3   O3    S    
Cr2   O20   S    
C12   O21   A    
C48   C49   A    
Cr6   O10   S    
Cr4   O6    S    
C74   C79   A    
C55   C57   A    
C10   C14   A    
C84   O7    A    
C22   C24   A    
C9    H17   S    
C2    C5    A    
C33   C42   A    
Cr1   O5    S    
C21   H3    S    
C3    C4    A    
C73   C82   T    
C39   C40   A    
C72   C87   S    
C35   C43   A    
C52   C53   A    
C9    C10   A    
C16   C25   A    
C83   C90   S    
C63   C68   A    
C40   C41   A    
C29   C41   A    
C20   C21   A    
C28   C31   A    
C86   O11   A    
C76   C80   A    
C80   C81   S    
C45   O3    A    
Cr3   O5    S    
C79   C82   S    
C17   C92   S    
C55   C100  S    
C44   C61   A    
C77   H15   S    
C94   N4    T    
C52   C61   A    
C32   C33   A    
Cr1   O12   S    
C36   C38   A    
C19   C24   A    
C58   C59   A    
C63   C102  S    
C14   H18   S    
C85   O10   A    
C99   N9    T    
C103  N13   T    
C11   C13   A    
C57   C58   A    
C30   C31   A    
C28   C37   A    
Cr5   O16   S    
C68   C71   S    
C30   C93   S    
C15   C16   A    
C45   C61   S    
C38   C94   S    
Cr4   O13   S    
C62   C71   T    
C2    C3    A    
C56   C62   S    
Cr1   O1    S    
C88   O17   A    
C69   C70   S    
C34   C73   S    
C47   C59   A    
C63   C64   A    
C27   C43   A    
C23   O1    A    
C2    H11   S    
C65   C66   A    
Cr1   O24   S    
C64   H12   S    
C102  N12   T    
C34   O26   A    
C90   O13   A    
Cr6   O19   S    
C70   C72   T    
C51   C60   A    
Cr3   O22   S    
C101  N11   T    
C13   C14   A    
C5    C89   A    
C85   O9    A    
Cr2   O2    S    
C27   C28   A    
