data_mof_unit_51948.cif
_audit_creation_date              2012-12-11T15:13:42-0500
_audit_creation_method            fapswitch 2.2
_symmetry_space_group_name_H-M    P1
_symmetry_Int_Tables_number       1
_space_group_crystal_system       triclinic
_cell_length_a                    6.947203
_cell_length_b                    13.485707
_cell_length_c                    20.125461
_cell_angle_alpha                 104.087328
_cell_angle_beta                  90.119522
_cell_angle_gamma                 90.561054
_cell_volume                      1828.7008063

loop_
_atom_site_label
_atom_site_type_symbol
_atom_type_description
_atom_site_fract_x
_atom_site_fract_y
_atom_site_fract_z
_atom_type_partial_charge
O1    O     O_R   0.506780 0.600060 0.449950 -0.538690
O2    O     O_R   0.179840 0.597110 0.589410 -0.543549
O3    O     O_R   0.004570 0.399940 0.550050 -0.538458
C1    C     C_R   0.348689 0.618967 0.616923 0.676484
O4    O     O_R   0.177380 0.612160 0.452890 -0.540862
O5    O     O_R   0.002100 0.415100 0.412560 -0.542208
C2    C     C_R   0.346540 0.638971 0.436329 0.696594
O6    O     O_R   0.509250 0.584900 0.587440 -0.540544
O7    O     O_3   0.337570 0.435330 0.486930 -0.370294
V1    V     V_3+5 0.064650 0.512000 0.502430 1.412844
O8    O     O_R   0.672090 0.402890 0.410590 -0.544210
C3    C     C_R   0.840274 0.381272 0.383111 0.688516
O9    O     O_R   0.674540 0.387840 0.547110 -0.540927
C4    C     C_R   0.842942 0.360892 0.563559 0.696306
V2    V     V_3+5 0.564040 0.488000 0.497570 1.412181
O10   O     O_3   0.840990 0.564670 0.513070 -0.369883
C5    C     C_R   0.860202 0.106352 0.607671 -0.162184
H1    H     H_    0.853032 0.155951 0.514164 0.102207
H2    H     H_    0.870962 0.980230 0.690084 0.117411
H3    H     H_    0.863581 0.026277 0.580830 0.112369
C6    C     C_R   0.850332 0.283323 0.602985 -0.030714
C7    C     C_R   0.857309 0.319317 0.932742 -0.159127
C8    C     C_R   0.851712 0.396125 0.897707 -0.123795
C9    C     C_R   0.851263 0.371872 0.826334 -0.163605
C10   C     C_R   0.856468 0.268810 0.787795 0.079439
C11   C     C_R   0.861869 0.190343 0.824159 0.068766
C12   C     C_R   0.856443 0.241007 0.714558 0.072999
C13   C     C_R   0.861260 0.135770 0.679582 0.145956
C14   C     C_R   0.866922 0.060529 0.716437 -0.217027
C15   C     C_R   0.867325 0.087165 0.787511 -0.204610
C16   C     C_R   0.851596 0.313869 0.674538 -0.217137
C17   C     C_R   0.854337 0.179782 0.569614 -0.177598
C18   C     C_R   0.862178 0.216814 0.896748 -0.075824
H4    H     H_    0.848150 0.394948 0.697049 0.090234
H5    H     H_    0.857942 0.339840 0.988269 0.107952
H6    H     H_    0.846775 0.435810 0.803145 0.102341
H7    H     H_    0.847843 0.475360 0.926112 0.118257
H8    H     H_    0.871816 0.025753 0.813526 0.114907
C19   C     C_3   0.678458 0.227793 0.226916 0.048305
C20   C     C_3   0.761506 0.202797 0.292009 -0.224793
H9    H     H_    0.682973 0.163726 0.326547 0.105224
C21   C     C_3   0.848309 0.311601 0.312538 -0.032552
C22   C     C_3   0.762683 0.337195 0.248098 -0.161712
C23   C     C_3   0.949659 0.298685 0.208329 -0.115395
C24   C     C_3   0.035287 0.274354 0.273758 -0.083765
C25   C     C_3   0.948676 0.164676 0.252227 -0.156778
C26   C     C_3   0.863144 0.189648 0.187433 -0.034081
H10   H     H_    0.684813 0.408203 0.246745 0.115666
H11   H     H_    0.027623 0.337869 0.173737 0.132509
H12   H     H_    0.182300 0.295127 0.294474 0.108494
H13   H     H_    0.026157 0.093588 0.253631 0.115393
C27   C     C_3   0.538126 0.724733 0.730832 -0.123527
C28   C     C_3   0.459178 0.835072 0.749966 -0.138719
H14   H     H_    0.543687 0.905530 0.750474 0.109810
H15   H     H_    0.688069 0.703497 0.714897 0.107273
C29   C     C_3   0.356725 0.811521 0.812263 -0.002068
C30   C     C_3   0.435744 0.702017 0.793929 -0.142240
C31   C     C_3   0.253544 0.665682 0.749861 -0.136566
C32   C     C_3   0.174630 0.776030 0.768984 -0.119427
C33   C     C_3   0.277001 0.798710 0.705871 -0.138330
C34   C     C_3   0.356052 0.689166 0.687553 -0.005987
H16   H     H_    0.500721 0.662457 0.830718 0.099019
H17   H     H_    0.168885 0.595260 0.749385 0.099309
H18   H     H_    0.024747 0.797454 0.784912 0.104800
H19   H     H_    0.211943 0.838338 0.669131 0.100069
C35   C     C_R   0.381733 0.892917 0.391800 -0.161633
H20   H     H_    0.377287 0.843530 0.485399 0.101441
H21   H     H_    0.397315 0.018694 0.309191 0.111410
H22   H     H_    0.393998 0.972870 0.418522 0.112135
C36   C     C_R   0.356631 0.716316 0.396750 -0.030841
C37   C     C_R   0.340325 0.680258 0.066941 -0.176000
C38   C     C_R   0.330247 0.603511 0.102027 -0.114825
C39   C     C_R   0.336259 0.627646 0.173390 -0.160805
C40   C     C_R   0.352700 0.730524 0.211856 0.074330
C41   C     C_R   0.362910 0.808832 0.175423 0.073193
C42   C     C_R   0.359208 0.758357 0.285080 0.072365
C43   C     C_R   0.375358 0.863450 0.319924 0.148863
C44   C     C_R   0.385067 0.938503 0.282966 -0.218798
C45   C     C_R   0.379151 0.911760 0.211939 -0.206690
C46   C     C_R   0.350218 0.685704 0.325215 -0.218309
C47   C     C_R   0.372319 0.819682 0.429972 -0.177882
C48   C     C_R   0.356567 0.782573 0.102873 -0.074607
H23   H     H_    0.338211 0.604753 0.302797 0.093276
H24   H     H_    0.335413 0.659834 0.011439 0.099598
H25   H     H_    0.327575 0.563803 0.196641 0.113147
H26   H     H_    0.317599 0.524418 0.073670 0.128355
H27   H     H_    0.387384 0.972739 0.185704 0.114019
O11   O     O_R   0.203580 0.914920 0.912610 -0.545435
O12   O     O_R   0.535710 0.887810 0.047120 -0.543633
O13   O     O_R   0.710730 0.084950 0.087430 -0.530145
C49   C     C_R   0.366586 0.860698 0.063505 0.680870
O14   O     O_R   0.533010 0.902850 0.910600 -0.547477
O15   O     O_R   0.708010 0.100090 0.949930 -0.536995
C50   C     C_R   0.364178 0.881292 0.883002 0.666361
O16   O     O_R   0.206300 0.899780 0.050100 -0.541512
O17   O     O_3   0.375170 0.064580 0.013100 -0.345584
V3    V     V_3+5 0.648200 0.988020 0.997570 1.446719
O18   O     O_R   0.038030 0.112330 0.952840 -0.540170
C51   C     C_R   0.869622 0.138847 0.936159 0.687351
O19   O     O_R   0.040730 0.097300 0.089360 -0.527157
C52   C     C_R   0.872321 0.119276 0.116831 0.698545
V4    V     V_3+5 0.148780 0.012220 0.002360 1.470059
O20   O     O_3   0.871930 0.935430 0.986900 -0.379701
C53   C     C_2   0.476752 0.203688 0.201825 0.357381
H28   H     H_    0.386776 0.154630 0.224329 0.013055
O21   O     O_2   0.413942 0.237882 0.155390 -0.528721

loop_
_geom_bond_atom_site_label_1
_geom_bond_atom_site_label_2
_ccdc_geom_bond_type
C23   H11   S    
C26   C52   S    
O17   V4    S    
C39   C40   A    
C1    O6    A    
C2    C36   S    
C53   O21   D    
C19   C53   S    
C43   C44   A    
C23   C24   S    
C29   C50   S    
C7    H5    S    
C6    C16   A    
C32   H18   S    
C9    H6    S    
C40   C42   A    
C4    C6    S    
C13   C14   A    
C27   H15   S    
C37   H24   S    
C27   C34   S    
O5    C3    A    
C35   H22   S    
V2    O10   S    
C5    H3    S    
C29   C30   S    
C15   H8    S    
C35   C43   A    
C36   C47   A    
C3    C21   S    
O8    V2    S    
C8    C9    A    
O1    V2    S    
O12   C49   A    
C22   H10   S    
O15   C51   A    
O13   V3    S    
C23   C26   S    
C37   C48   A    
C31   C34   S    
C20   C21   S    
C32   C33   S    
O9    C4    A    
C46   H23   S    
C45   H27   S    
C53   H28   S    
C28   C33   S    
O14   V3    S    
H21   C44   S    
C6    C17   A    
O11   C50   A    
C40   C41   A    
C36   C46   A    
C30   H16   S    
C9    C10   A    
C19   C20   S    
O4    C2    A    
C44   C45   A    
C19   C22   S    
C10   C11   A    
C8    H7    S    
C12   C16   A    
C1    C34   S    
C48   C49   S    
O12   V3    S    
C33   C34   S    
C18   C51   S    
C21   C24   S    
O2    C1    A    
C22   C23   S    
O13   C52   A    
C14   C15   A    
H20   C47   S    
C11   C18   A    
O11   V4    S    
O17   V3    S    
O14   C50   A    
C16   H4    S    
C42   C43   A    
C39   H25   S    
V3    O20   S    
O3    C4    A    
C20   H9    S    
C33   H19   S    
C11   C15   A    
O6    V2    S    
O9    V2    S    
H1    C17   S    
C21   C22   S    
C20   C25   S    
O2    V1    S    
O15   V3    S    
C27   C28   S    
C19   C26   S    
O19   V4    S    
O7    V1    S    
C28   C29   S    
C31   H17   S    
C7    C18   A    
C25   C26   S    
O1    C2    A    
C5    C13   A    
C42   C46   A    
C38   C39   A    
O5    V1    S    
C38   H26   S    
O8    C3    A    
O16   V4    S    
C41   C48   A    
C28   H14   S    
C10   C12   A    
C29   C32   S    
C31   C32   S    
O4    V1    S    
O3    V1    S    
O18   V4    S    
C35   C47   A    
C30   C31   S    
C24   H12   S    
C25   H13   S    
O19   C52   A    
O7    V2    S    
V4    O20   S    
C27   C30   S    
C49   O16   A    
C24   C25   S    
C37   C38   A    
O18   C51   A    
C12   C13   A    
C5    C17   A    
C7    C8    A    
V1    O10   S    
C41   C45   A    
H2    C14   S    
