data_mof_unit_10258.cif
_audit_creation_date              2012-10-26T19:04:41-0400
_audit_creation_method            fapswitch 2.2
_symmetry_space_group_name_H-M    P1
_symmetry_Int_Tables_number       1
_space_group_crystal_system       triclinic
_cell_length_a                    9.597201
_cell_length_b                    10.795394
_cell_length_c                    13.418369
_cell_angle_alpha                 92.529271
_cell_angle_beta                  71.978811
_cell_angle_gamma                 89.920877
_cell_volume                      1320.56338348

loop_
_atom_site_label
_atom_site_type_symbol
_atom_type_description
_atom_site_fract_x
_atom_site_fract_y
_atom_site_fract_z
_atom_type_partial_charge
C1    C     C_R   0.497915 0.737517 0.504569 0.545442
C2    C     C_R   0.370769 0.489488 0.817475 -0.001056
C3    C     C_R   0.262960 0.880316 0.660503 -0.101720
C4    C     C_R   0.420331 0.495789 0.700878 0.538466
C5    C     C_R   0.147283 0.948875 0.729659 -0.119879
C6    C     C_R   0.145473 0.077384 0.727830 -0.128882
C7    C     C_R   0.260316 0.138252 0.658232 -0.100577
C8    C     C_R   0.376452 0.070555 0.584593 0.026860
C9    C     C_R   0.377040 0.939483 0.585235 0.022808
C10   C     C_R   0.494503 0.871844 0.512740 -0.000996
C11   C     C_R   0.612310 0.932992 0.445740 -0.150232
C12   C     C_R   0.435350 0.474566 0.980455 0.030412
C13   C     C_R   0.612427 0.060730 0.445647 -0.154527
C14   C     C_R   0.494482 0.129688 0.512285 0.001922
C15   C     C_R   0.915029 0.333733 0.362161 -0.095355
C16   C     C_R   0.498234 0.262952 0.503999 0.517875
C17   C     C_R   0.015589 0.250939 0.295425 -0.173416
C18   C     C_R   0.158895 0.249468 0.295959 -0.163172
C19   C     C_R   0.202544 0.330762 0.363259 -0.083090
C20   C     C_R   0.103430 0.416224 0.433531 0.154636
C21   C     C_R   0.954023 0.417099 0.433072 0.154122
C22   C     C_R   0.899515 0.581784 0.561021 0.012234
C23   C     C_R   0.469377 0.448936 0.870948 0.008578
C24   C     C_R   0.047908 0.583092 0.559483 0.019311
C25   C     C_R   0.579143 0.496573 0.299729 0.534702
C26   C     C_R   0.785703 0.374455 0.025905 0.159734
C27   C     C_R   0.624674 0.475482 0.185393 -0.041309
C28   C     C_R   0.228254 0.532147 0.878734 0.077717
C29   C     C_R   0.189540 0.538485 0.987482 -0.092680
C30   C     C_R   0.291186 0.512915 0.037818 -0.140051
C31   C     C_3   0.925987 0.183459 0.001806 -0.321317
C32   C     C_R   0.544948 0.457067 0.029795 0.011085
C33   C     C_R   0.679212 0.395169 0.974176 0.067377
C34   C     C_R   0.700394 0.352268 0.870240 -0.120159
C35   C     C_R   0.598375 0.379537 0.819467 -0.116990
C36   C     C_R   0.523955 0.501115 0.133356 -0.144265
C37   C     C_R   0.756549 0.414773 0.131090 -0.104742
Cu1   Cu    Cu3+1 0.359340 0.500010 0.500010 0.928908
Cu2   Cu    Cu3+1 0.640660 0.499990 0.499990 0.920335
H1    H     H_    0.835729 0.395021 0.171048 0.129997
H2    H     H_    0.237535 0.185556 0.243083 0.125002
H3    H     H_    0.315739 0.323191 0.355189 0.184220
H4    H     H_    0.795580 0.297219 0.826541 0.116428
H5    H     H_    0.082459 0.653215 0.606181 0.142170
H6    H     H_    0.428809 0.556303 0.176135 0.131706
H7    H     H_    0.251666 0.519525 0.122394 0.112280
H8    H     H_    0.079793 0.567473 0.034235 0.155657
H9    H     H_    0.619532 0.340155 0.740694 0.152502
H10   H     H_    0.703139 0.881325 0.391123 0.132626
H11   H     H_    0.969161 0.326238 0.897179 0.268924
H12   H     H_    0.262880 0.781274 0.668245 0.156981
H13   H     H_    0.039917 0.146569 0.969527 0.152126
H14   H     H_    0.853367 0.127237 0.967855 0.139584
H15   H     H_    0.890586 0.175096 0.088199 0.144273
H16   H     H_    0.059665 0.902243 0.785862 0.142556
H17   H     H_    0.055765 0.130435 0.781541 0.111085
H18   H     H_    0.257058 0.238298 0.664584 0.155115
H19   H     H_    0.703356 0.105937 0.390966 0.115320
H20   H     H_    0.822648 0.648875 0.611182 0.134726
H21   H     H_    0.808826 0.329510 0.353794 0.174005
H22   H     H_    0.982066 0.188016 0.242371 0.110324
I1    I     I_    0.057341 0.593733 0.822629 -0.497034
N1    N     N_R   0.852480 0.498790 0.499000 -0.248495
N2    N     N_R   0.148360 0.498710 0.498970 -0.241429
N3    N     N_2   0.921540 0.311599 0.975614 -0.516822
O1    O     O_R   0.381190 0.680360 0.500010 -0.501748
O2    O     O_R   0.618760 0.680340 0.500000 -0.496930
O3    O     O_R   0.323240 0.499990 0.650990 -0.473318
O4    O     O_R   0.560820 0.499960 0.650980 -0.504056
O5    O     O_R   0.381240 0.319660 0.500000 -0.528627
O6    O     O_R   0.618810 0.319640 0.499990 -0.522630
O7    O     O_R   0.439180 0.500040 0.349020 -0.517736
O8    O     O_R   0.676760 0.500010 0.349010 -0.516890

loop_
_geom_bond_atom_site_label_1
_geom_bond_atom_site_label_2
_ccdc_geom_bond_type
Cu1   O5    S    
C15   H21   S    
C19   C20   A    
C31   H13   S    
C7    C8    A    
C12   C23   A    
C29   H8    S    
C3    C9    A    
C32   C36   A    
C28   C29   A    
C34   C35   A    
C37   H1    S    
C5    C6    A    
C31   N3    S    
C18   C19   A    
C17   H22   S    
C22   N1    A    
Cu1   O1    S    
C8    C9    A    
C14   C16   S    
C9    C10   A    
C19   H3    S    
C24   N2    A    
C13   C14   A    
C12   C32   A    
C16   O6    A    
C35   H9    S    
C4    O4    A    
C30   H7    S    
C1    O1    A    
Cu1   N2    S    
Cu1   O7    S    
C1    C10   S    
C16   O5    A    
C18   H2    S    
C22   H20   S    
C4    O3    A    
C3    H12   S    
C13   H19   S    
C20   N2    A    
C2    C4    S    
C29   C30   A    
C11   H10   S    
C26   C33   A    
C17   C18   A    
Cu2   O4    S    
C36   H6    S    
C25   O7    A    
C31   H14   S    
Cu1   O3    S    
C23   C35   A    
C24   H5    S    
C22   C24   A    
C15   C17   A    
C8    C14   A    
C12   C30   A    
C26   N3    S    
Cu2   O2    S    
C5    H16   S    
C34   H4    S    
C6    H17   S    
C3    C5    A    
C26   C37   A    
C6    C7    A    
C27   C36   A    
C25   C27   S    
Cu2   N1    S    
C32   C33   A    
C11   C13   A    
Cu1   Cu2   S    
C27   C37   A    
C1    O2    A    
C33   C34   A    
C25   O8    A    
Cu2   O8    S    
C31   H15   S    
H11   N3    S    
C21   N1    A    
C10   C11   A    
C15   C21   A    
C20   C21   A    
C2    C23   A    
Cu2   O6    S    
C2    C28   A    
C7    H18   S    
C28   I1    S    
