data_mof_unit_40684.cif
_audit_creation_date              2012-12-10T17:31:54-0500
_audit_creation_method            fapswitch 2.2
_symmetry_space_group_name_H-M    P1
_symmetry_Int_Tables_number       1
_space_group_crystal_system       triclinic
_cell_length_a                    30.296695
_cell_length_b                    30.296745
_cell_length_c                    30.379821
_cell_angle_alpha                 89.998823
_cell_angle_beta                  90.001631
_cell_angle_gamma                 90.0
_cell_volume                      27885.3716353

loop_
_atom_site_label
_atom_site_type_symbol
_atom_type_description
_atom_site_fract_x
_atom_site_fract_y
_atom_site_fract_z
_atom_type_partial_charge
C1    C     C_R   0.000000 0.413313 0.500000 0.868911
C2    C     C_R   0.586687 1.000000 0.500000 0.868954
C3    C     C_R   0.973202 0.203525 0.469461 -0.142693
C4    C     C_R   0.028847 0.471283 0.203520 -0.133192
C5    C     C_R   0.026799 0.203523 0.530537 -0.142698
C6    C     C_R   0.028852 0.528714 0.796482 -0.133190
C7    C     C_R   0.026798 0.796477 0.469463 -0.142702
C8    C     C_R   0.532180 0.796259 0.024833 -0.144255
C9    C     C_R   0.796261 0.467821 0.024835 -0.144249
C10   C     C_R   0.467822 0.203739 0.024833 -0.144251
C11   C     C_R   0.203741 0.532179 0.024832 -0.144257
C12   C     C_R   0.467821 0.796260 0.975165 -0.144249
C13   C     C_R   0.499999 0.000000 0.413353 0.875598
C14   C     C_R   0.203739 0.467822 0.975165 -0.144250
C15   C     C_R   0.532179 0.203740 0.975167 -0.144256
C16   C     C_R   0.796259 0.532180 0.975168 -0.144256
C17   C     C_R   0.796475 0.973203 0.469461 -0.142693
C18   C     C_R   0.471283 0.971154 0.203518 -0.133192
C19   C     C_R   0.203525 0.973202 0.530539 -0.142678
C20   C     C_R   0.528711 0.971145 0.796483 -0.133191
C21   C     C_R   0.796477 0.026798 0.530536 -0.142702
C22   C     C_R   0.471282 0.028846 0.796480 -0.133192
C23   C     C_R   0.203523 0.026799 0.469463 -0.142700
C24   C     C_R   0.413313 1.000000 0.500000 0.868925
C25   C     C_R   0.528706 0.028861 0.203519 -0.133182
C26   C     C_R   0.471145 0.028710 0.703517 -0.133189
C27   C     C_R   0.473203 0.296475 0.030538 -0.142695
C28   C     C_R   0.471145 0.971290 0.296482 -0.133193
C29   C     C_R   0.473202 0.703524 0.969460 -0.142692
C30   C     C_R   0.528846 0.971281 0.703519 -0.133192
C31   C     C_R   0.526799 0.703523 0.030537 -0.142700
C32   C     C_R   0.528840 0.028725 0.296483 -0.133196
C33   C     C_R   0.526798 0.296477 0.969463 -0.142701
C34   C     C_R   0.032180 0.296259 0.524833 -0.144252
C35   C     C_R   0.500000 0.913313 1.000000 0.868930
C36   C     C_R   0.296261 0.967820 0.524833 -0.144245
C37   C     C_R   0.967822 0.703739 0.524833 -0.144252
C38   C     C_R   0.703741 0.032179 0.524832 -0.144257
C39   C     C_R   0.967821 0.296260 0.475166 -0.144249
C40   C     C_R   0.703739 0.967822 0.475165 -0.144250
C41   C     C_R   0.032178 0.703740 0.475167 -0.144257
C42   C     C_R   0.296259 0.032179 0.475167 -0.144257
C43   C     C_R   0.296475 0.473204 0.969460 -0.142696
C44   C     C_R   0.971292 0.471144 0.703518 -0.133191
C45   C     C_R   0.703525 0.473203 0.030540 -0.142692
C46   C     C_R   0.499999 0.999999 0.913353 0.875588
C47   C     C_R   0.028710 0.471145 0.296483 -0.133192
C48   C     C_R   0.296477 0.526798 0.030536 -0.142702
C49   C     C_R   0.971279 0.528844 0.296481 -0.133192
C50   C     C_R   0.703523 0.526799 0.969464 -0.142700
C51   C     C_R   0.028717 0.528849 0.703518 -0.133190
C52   C     C_R   0.999995 0.499995 0.226743 -0.163958
C53   C     C_R   0.000000 0.773359 0.500000 -0.153338
C54   C     C_R   0.000003 0.499999 0.773258 -0.163952
C55   C     C_R   0.000001 0.226641 0.499999 -0.153340
C56   C     C_R   0.500001 0.773150 0.999999 -0.152680
C57   C     C_R   0.500000 0.086687 0.999999 0.868909
C58   C     C_R   0.773150 0.500001 0.000002 -0.152682
C59   C     C_R   0.500000 0.226850 0.000000 -0.152677
C60   C     C_R   0.226850 0.500001 0.999999 -0.152680
C61   C     C_R   0.773359 0.000001 0.499999 -0.153341
C62   C     C_R   0.499994 0.000008 0.226743 -0.163957
C63   C     C_R   0.226641 0.000000 0.500001 -0.153344
C64   C     C_R   0.499995 0.999995 0.773257 -0.163958
C65   C     C_R   0.499995 0.999995 0.726742 -0.163959
C66   C     C_R   0.500000 0.273359 0.000001 -0.153339
C67   C     C_R   0.499993 0.000008 0.273258 -0.163956
C68   C     C_R   0.500000 0.000001 0.086648 0.875573
C69   C     C_R   0.500001 0.726641 0.999999 -0.153340
C70   C     C_R   0.000000 0.273150 0.499999 -0.152677
C71   C     C_R   0.273150 0.000000 0.500000 -0.152680
C72   C     C_R   0.000000 0.726850 0.500000 -0.152680
C73   C     C_R   0.726850 0.000001 0.499999 -0.152682
C74   C     C_R   0.273359 0.500001 0.999998 -0.153338
C75   C     C_R   0.000004 0.499997 0.726743 -0.163955
C76   C     C_R   0.726641 0.500001 0.000002 -0.153339
C77   C     C_R   0.999995 0.499995 0.273257 -0.163957
C78   C     C_R   0.941304 0.555722 0.227046 0.441549
C79   C     C_R   0.913395 0.000000 0.499999 0.881800
C80   C     C_R   0.944651 0.772609 0.558555 0.415008
C81   C     C_R   0.941318 0.444265 0.772951 0.441505
C82   C     C_R   0.944649 0.227391 0.441444 0.415007
C83   C     C_R   0.058685 0.444267 0.227051 0.441527
C84   C     C_R   0.055351 0.227389 0.558555 0.415010
C85   C     C_R   0.058689 0.555731 0.772952 0.441524
C86   C     C_R   0.055349 0.772611 0.441446 0.415010
C87   C     C_R   0.562084 0.772359 0.051397 0.412980
C88   C     C_R   0.772362 0.437917 0.051398 0.412972
C89   C     C_R   0.437918 0.227638 0.051396 0.412968
C90   C     C_R   0.000000 0.086605 0.500000 0.881801
C91   C     C_R   0.227641 0.562083 0.051396 0.412980
C92   C     C_R   0.437917 0.772362 0.948601 0.412973
C93   C     C_R   0.227638 0.437919 0.948601 0.412974
C94   C     C_R   0.562082 0.227640 0.948604 0.412980
C95   C     C_R   0.772359 0.562085 0.948605 0.412985
C96   C     C_R   0.772608 0.944652 0.441444 0.415010
C97   C     C_R   0.444268 0.941315 0.227048 0.441526
C98   C     C_R   0.227392 0.944648 0.558555 0.415014
C99   C     C_R   0.555726 0.941307 0.772954 0.441550
C100  C     C_R   0.772612 0.055350 0.558553 0.415010
C101  C     C_R   0.086605 0.000000 0.500000 0.881799
C102  C     C_R   0.444265 0.058683 0.772949 0.441526
C103  C     C_R   0.227388 0.055352 0.441446 0.415011
C104  C     C_R   0.555713 0.058706 0.227050 0.441581
C105  C     C_R   0.441307 0.055725 0.727046 0.441530
C106  C     C_R   0.444651 0.272609 0.058554 0.415008
C107  C     C_R   0.441309 0.944273 0.272951 0.441528
C108  C     C_R   0.444650 0.727391 0.941443 0.415006
C109  C     C_R   0.558682 0.944263 0.727050 0.441518
C110  C     C_R   0.555351 0.727389 0.058555 0.415009
C111  C     C_R   0.558671 0.055749 0.272954 0.441472
C112  C     C_R   0.999999 0.499999 0.413353 0.875595
C113  C     C_R   0.000000 0.913395 0.500000 0.881799
C114  C     C_R   0.555350 0.272611 0.941446 0.415009
C115  C     C_R   0.062084 0.272359 0.551397 0.412967
C116  C     C_R   0.272362 0.937915 0.551396 0.412960
C117  C     C_R   0.937918 0.727638 0.551397 0.412975
C118  C     C_R   0.727641 0.062082 0.551396 0.412983
C119  C     C_R   0.937917 0.272361 0.448602 0.412972
C120  C     C_R   0.727638 0.937919 0.448601 0.412978
C121  C     C_R   0.062082 0.727640 0.448603 0.412983
C122  C     C_R   0.272359 0.062084 0.448603 0.412978
C123  C     C_R   0.272608 0.444652 0.941444 0.415008
C124  C     C_R   0.999999 0.500000 0.086647 0.875583
C125  C     C_R   0.944280 0.441304 0.727049 0.441522
C126  C     C_R   0.727391 0.444650 0.058557 0.415007
C127  C     C_R   0.055727 0.441309 0.272954 0.441528
C128  C     C_R   0.272612 0.555350 0.058553 0.415010
C129  C     C_R   0.944259 0.558679 0.272950 0.441509
C130  C     C_R   0.727388 0.555352 0.941447 0.415007
C131  C     C_R   0.055732 0.558688 0.727049 0.441525
C132  C     C_3   0.867301 0.563753 0.214134 -0.295762
C133  C     C_3   0.940911 0.787717 0.631470 -0.202960
C134  C     C_3   0.867318 0.436228 0.785860 -0.295532
C135  C     C_R   0.086687 0.500000 0.000000 0.868926
C136  C     C_3   0.940906 0.212285 0.368528 -0.202962
C137  C     C_3   0.132688 0.436228 0.214148 -0.295674
C138  C     C_3   0.059092 0.212277 0.631470 -0.202957
C139  C     C_3   0.132691 0.563772 0.785861 -0.295692
C140  C     C_3   0.059087 0.787725 0.368532 -0.202951
C141  C     C_3   0.635254 0.787572 0.049938 -0.199310
C142  C     C_3   0.787571 0.364746 0.049940 -0.199309
C143  C     C_3   0.364748 0.212427 0.049937 -0.199294
C144  C     C_3   0.212426 0.635252 0.049937 -0.199305
C145  C     C_3   0.364746 0.787571 0.950058 -0.199308
C146  C     C_R   0.000000 0.500000 0.913353 0.875590
C147  C     C_3   0.212427 0.364749 0.950058 -0.199307
C148  C     C_3   0.635252 0.212426 0.950063 -0.199306
C149  C     C_3   0.787571 0.635255 0.950064 -0.199319
C150  C     C_3   0.787714 0.940909 0.368528 -0.202966
C151  C     C_3   0.436232 0.867312 0.214145 -0.295684
C152  C     C_3   0.212294 0.940893 0.631472 -0.203010
C153  C     C_3   0.563764 0.867305 0.785864 -0.295749
C154  C     C_3   0.787726 0.059088 0.631468 -0.202948
C155  C     C_3   0.436222 0.132685 0.785852 -0.295669
C156  C     C_3   0.212275 0.059093 0.368531 -0.202954
C157  C     C_R   0.913313 0.500000 1.000000 0.868928
C158  C     C_3   0.563715 0.132707 0.214129 -0.295939
C159  C     C_3   0.367304 0.063762 0.714137 -0.295698
C160  C     C_3   0.440910 0.287716 0.131469 -0.202962
C161  C     C_3   0.367307 0.936229 0.285852 -0.295687
C162  C     C_3   0.440907 0.712285 0.868528 -0.202961
C163  C     C_3   0.632686 0.936206 0.714155 -0.295640
C164  C     C_3   0.559092 0.712277 0.131470 -0.202956
C165  C     C_3   0.632674 0.063834 0.285849 -0.295464
C166  C     C_3   0.559088 0.287725 0.868532 -0.202952
C167  C     C_3   0.135254 0.287572 0.549939 -0.199291
C168  C     C_R   0.027231 0.470065 0.157227 0.457931
C169  C     C_3   0.287572 0.864745 0.549932 -0.199314
C170  C     C_3   0.864748 0.712427 0.549938 -0.199305
C171  C     C_3   0.712426 0.135251 0.549937 -0.199306
C172  C     C_3   0.864746 0.287571 0.450059 -0.199308
C173  C     C_3   0.712426 0.864749 0.450060 -0.199322
C174  C     C_3   0.135251 0.712426 0.450062 -0.199309
C175  C     C_3   0.287573 0.135253 0.450063 -0.199303
C176  C     C_3   0.287716 0.440913 0.868529 -0.202960
C177  C     C_3   0.936270 0.367301 0.714142 -0.295655
C178  C     C_3   0.712286 0.440906 0.131472 -0.202961
C179  C     C_R   0.024989 0.842795 0.468217 0.446006
C180  C     C_3   0.063767 0.367306 0.285861 -0.295688
C181  C     C_3   0.287726 0.559088 0.131468 -0.202950
C182  C     C_3   0.936195 0.632681 0.285847 -0.295603
C183  C     C_3   0.712276 0.559093 0.868532 -0.202956
C184  C     C_3   0.063769 0.632690 0.714141 -0.295686
C185  C     C_3   0.088829 0.452315 0.116775 -0.177847
C186  C     C_3   0.088204 0.879255 0.447875 -0.183359
C187  C     C_3   0.088829 0.547690 0.883231 -0.177834
C188  C     C_3   0.088205 0.120745 0.552129 -0.183356
C189  C     C_3   0.911169 0.547685 0.116766 -0.177821
C190  C     C_R   0.027233 0.529934 0.842775 0.457918
C191  C     C_3   0.911798 0.120745 0.447869 -0.183360
C192  C     C_3   0.911168 0.452323 0.883226 -0.177860
C193  C     C_3   0.911798 0.879254 0.552127 -0.183361
C194  C     C_3   0.442937 0.878524 0.914806 -0.176554
C195  C     C_3   0.878517 0.557063 0.914806 -0.176583
C196  C     C_3   0.557058 0.121481 0.914806 -0.176564
C197  C     C_3   0.121475 0.442941 0.914806 -0.176554
C198  C     C_3   0.557063 0.878518 0.085194 -0.176566
C199  C     C_3   0.121482 0.557058 0.085194 -0.176567
C200  C     C_3   0.442942 0.121475 0.085191 -0.176548
C201  C     C_R   0.024989 0.157205 0.531783 0.446004
C202  C     C_3   0.878524 0.442936 0.085194 -0.176557
C203  C     C_3   0.879256 0.088204 0.552124 -0.183358
C204  C     C_3   0.547696 0.088826 0.116762 -0.177790
C205  C     C_3   0.120744 0.088205 0.447873 -0.183357
C206  C     C_3   0.452314 0.088828 0.883225 -0.177850
C207  C     C_3   0.879254 0.911799 0.447871 -0.183358
C208  C     C_3   0.547686 0.911169 0.883233 -0.177829
C209  C     C_3   0.120744 0.911799 0.552131 -0.183348
C210  C     C_3   0.452321 0.911170 0.116773 -0.177839
C211  C     C_3   0.588830 0.952318 0.616777 -0.177860
C212  C     C_R   0.972764 0.529930 0.157224 0.457921
C213  C     C_3   0.588204 0.379255 0.947876 -0.183362
C214  C     C_3   0.588830 0.047684 0.383224 -0.177876
C215  C     C_3   0.588204 0.620745 0.052129 -0.183358
C216  C     C_3   0.411168 0.047686 0.616767 -0.177831
C217  C     C_3   0.411798 0.620745 0.947868 -0.183362
C218  C     C_3   0.411168 0.952314 0.383227 -0.177841
C219  C     C_3   0.411798 0.379254 0.052127 -0.183361
C220  C     C_3   0.942937 0.378523 0.414806 -0.176550
C221  C     C_3   0.378518 0.057060 0.414804 -0.176566
C222  C     C_3   0.057058 0.621482 0.414805 -0.176569
C223  C     C_R   1.000000 0.586687 0.500000 0.868938
C224  C     C_R   0.975012 0.157206 0.468214 0.446007
C225  C     C_3   0.621478 0.942941 0.414803 -0.176571
C226  C     C_3   0.057064 0.378522 0.585191 -0.176545
C227  C     C_3   0.621483 0.057058 0.585195 -0.176578
C228  C     C_3   0.942941 0.621477 0.585193 -0.176560
C229  C     C_3   0.378523 0.942937 0.585194 -0.176557
C230  C     C_3   0.379256 0.588205 0.052124 -0.183364
C231  C     C_3   0.047688 0.588828 0.616770 -0.177836
C232  C     C_3   0.620744 0.588205 0.947873 -0.183359
C233  C     C_3   0.952316 0.588829 0.383222 -0.177868
C234  C     C_3   0.379253 0.411798 0.947872 -0.183363
C235  C     C_R   0.972768 0.470068 0.842775 0.457933
C236  C     C_3   0.047686 0.411169 0.383232 -0.177833
C237  C     C_3   0.620745 0.411798 0.052132 -0.183360
C238  C     C_3   0.952315 0.411168 0.616770 -0.177844
C239  C     C_R   0.975013 0.842794 0.531784 0.446006
C240  C     C_R   0.466779 0.842592 0.976885 0.445118
C241  C     C_R   0.842591 0.533222 0.976887 0.445128
C242  C     C_R   0.533220 0.157409 0.976886 0.445120
C243  C     C_R   0.157408 0.466780 0.976885 0.445120
C244  C     C_R   0.533222 0.842591 0.023114 0.445120
C245  C     C_R   0.157409 0.533220 0.023113 0.445121
C246  C     C_R   0.466780 0.157408 0.023114 0.445113
C247  C     C_R   0.000000 0.499999 0.586647 0.875590
C248  C     C_R   0.842592 0.466779 0.023115 0.445119
C249  C     C_R   0.842796 0.024989 0.531782 0.446005
C250  C     C_R   0.529931 0.027238 0.157227 0.457910
C251  C     C_R   0.157204 0.024989 0.468217 0.446008
C252  C     C_R   0.470064 0.027230 0.842773 0.457930
C253  C     C_R   0.842794 0.975013 0.468215 0.446012
C254  C     C_R   0.529931 0.972765 0.842776 0.457925
C255  C     C_R   0.157206 0.975012 0.531786 0.446017
C256  C     C_R   0.470067 0.972770 0.157225 0.457936
C257  C     C_R   0.527229 0.970064 0.657226 0.457936
C258  C     C_R   0.413395 0.500000 0.999999 0.881802
C259  C     C_R   0.524989 0.342795 0.968218 0.446005
C260  C     C_R   0.527226 0.029939 0.342776 0.457937
C261  C     C_R   0.524989 0.657205 0.031783 0.446005
C262  C     C_R   0.472764 0.029930 0.657224 0.457919
C263  C     C_R   0.475012 0.657206 0.968214 0.446007
C264  C     C_R   0.472764 0.970070 0.342774 0.457923
C265  C     C_R   0.475013 0.342794 0.031784 0.446006
C266  C     C_R   0.966779 0.342592 0.476885 0.445120
C267  C     C_R   0.342591 0.033221 0.476886 0.445120
C268  C     C_R   0.033220 0.657409 0.476886 0.445122
C269  C     C_R   0.500000 0.586605 1.000000 0.881801
C270  C     C_R   0.657408 0.966780 0.476885 0.445125
C271  C     C_R   0.033222 0.342591 0.523114 0.445109
C272  C     C_R   0.657409 0.033220 0.523113 0.445122
C273  C     C_R   0.966780 0.657408 0.523114 0.445119
C274  C     C_R   0.342592 0.966779 0.523114 0.445118
C275  C     C_R   0.342796 0.524989 0.031782 0.446006
C276  C     C_R   0.029935 0.527231 0.657226 0.457922
C277  C     C_R   0.657204 0.524989 0.968218 0.446006
C278  C     C_R   0.970063 0.527228 0.342774 0.457937
C279  C     C_R   0.342794 0.475013 0.968214 0.446005
C280  C     C_R   0.586605 0.500000 0.000001 0.881802
C281  C     C_R   0.029930 0.472764 0.342776 0.457920
C282  C     C_R   0.657206 0.475013 0.031786 0.446006
C283  C     C_R   0.970071 0.472764 0.657226 0.457930
C284  C     C_R   0.999998 0.499999 0.134508 -0.343493
C285  C     C_R   0.000001 0.865524 0.500001 -0.336744
C286  C     C_R   0.000000 0.500001 0.865492 -0.343492
C287  C     C_R   0.000001 0.134476 0.499999 -0.336746
C288  C     C_R   0.500000 0.865366 0.999999 -0.340704
C289  C     C_R   0.865366 0.500000 0.000001 -0.340705
C290  C     C_R   0.500000 0.134634 1.000000 -0.340702
C291  C     C_R   0.500000 0.413395 0.000000 0.881801
C292  C     C_R   0.134634 0.500000 0.999999 -0.340701
C293  C     C_R   0.865524 0.000001 0.499999 -0.336748
C294  C     C_R   0.500001 0.000002 0.134509 -0.343486
C295  C     C_R   0.134476 0.000001 0.500001 -0.336755
C296  C     C_R   0.499998 0.999998 0.865491 -0.343497
C297  C     C_R   0.499997 0.999998 0.634508 -0.343495
C298  C     C_R   0.500001 0.365524 0.000001 -0.336744
C299  C     C_R   0.499997 0.000002 0.365492 -0.343502
C300  C     C_R   0.500000 0.634476 0.999999 -0.336746
C301  C     C_R   0.000000 0.365366 0.500000 -0.340705
C302  C     C_R   0.499999 0.999999 0.586647 0.875589
C303  C     C_R   0.365366 1.000000 0.500000 -0.340703
C304  C     C_R   1.000000 0.634634 0.500000 -0.340701
C305  C     C_R   0.634634 0.000000 0.499999 -0.340699
C306  C     C_R   0.365524 0.500001 0.999998 -0.336745
C307  C     C_R   0.000002 0.499998 0.634508 -0.343484
C308  C     C_R   0.634476 0.500001 0.000002 -0.336747
C309  C     C_R   0.999998 0.499997 0.365492 -0.343500
C310  C     C_R   0.971144 0.528709 0.203517 -0.133187
C311  C     C_R   0.973203 0.796475 0.530538 -0.142697
C312  C     C_R   0.971152 0.471284 0.796482 -0.133208
H1    H     H_    0.866081 0.527028 0.212164 0.126156
H2    H     H_    0.921888 0.194175 0.343091 0.179169
H3    H     H_    0.305584 0.837940 0.567129 0.179483
H4    H     H_    0.301761 0.867670 0.516236 0.158678
H5    H     H_    0.252222 0.854946 0.548065 0.153906
H6    H     H_    0.854948 0.747776 0.548071 0.153904
H7    H     H_    0.867670 0.698237 0.516241 0.158678
H8    H     H_    0.837946 0.694414 0.567137 0.179480
H9    H     H_    0.694415 0.162054 0.567136 0.179482
H10   H     H_    0.698233 0.132328 0.516241 0.158682
H11   H     H_    0.747775 0.145052 0.548067 0.153899
H12   H     H_    0.837943 0.305583 0.432860 0.179481
H13   H     H_    0.974906 0.198306 0.368998 0.158345
H14   H     H_    0.867669 0.301760 0.483756 0.158677
H15   H     H_    0.854947 0.252222 0.451925 0.153906
H16   H     H_    0.694414 0.837946 0.432861 0.179482
H17   H     H_    0.698237 0.867671 0.483757 0.158682
H18   H     H_    0.747775 0.854949 0.451927 0.153907
H19   H     H_    0.162053 0.694415 0.432863 0.179481
H20   H     H_    0.132328 0.698233 0.483758 0.158683
H21   H     H_    0.145052 0.747775 0.451932 0.153900
H22   H     H_    0.305584 0.162057 0.432864 0.179482
H23   H     H_    0.301766 0.132328 0.483759 0.158680
H24   H     H_    0.941851 0.247647 0.358671 0.154998
H25   H     H_    0.252224 0.145054 0.451932 0.153898
H26   H     H_    0.305826 0.421896 0.843092 0.179169
H27   H     H_    0.301697 0.474912 0.868999 0.158346
H28   H     H_    0.252355 0.441860 0.858671 0.154994
H29   H     H_    0.972998 0.366090 0.712140 0.126130
H30   H     H_    0.923211 0.344061 0.689115 0.169686
H31   H     H_    0.925056 0.355185 0.746739 0.217569
H32   H     H_    0.694176 0.421888 0.156909 0.179169
H33   H     H_    0.698307 0.474906 0.131003 0.158343
H34   H     H_    0.747648 0.441851 0.141329 0.154998
H35   H     H_    0.133912 0.472954 0.212179 0.126140
H36   H     H_    0.027042 0.366081 0.287829 0.126140
H37   H     H_    0.076810 0.344076 0.310902 0.169671
H38   H     H_    0.075013 0.355189 0.253280 0.217587
H39   H     H_    0.305837 0.578106 0.156904 0.179168
H40   H     H_    0.301708 0.525089 0.130996 0.158348
H41   H     H_    0.252365 0.558139 0.141327 0.154990
H42   H     H_    0.972922 0.633915 0.287769 0.126142
H43   H     H_    0.923180 0.655902 0.310909 0.169618
H44   H     H_    0.924902 0.644805 0.253283 0.217605
H45   H     H_    0.694165 0.578110 0.843094 0.179168
H46   H     H_    0.155918 0.423187 0.189109 0.169668
H47   H     H_    0.698295 0.525093 0.869003 0.158348
H48   H     H_    0.747637 0.558145 0.858674 0.154989
H49   H     H_    0.027044 0.633914 0.712168 0.126138
H50   H     H_    0.076813 0.655921 0.689102 0.169672
H51   H     H_    0.075012 0.644808 0.746724 0.217587
H52   H     H_    0.104672 0.478407 0.137143 0.098383
H53   H     H_    0.083683 0.464466 0.082984 0.142943
H54   H     H_    0.112318 0.424333 0.114492 0.193061
H55   H     H_    0.104537 0.855638 0.470840 0.115341
H56   H     H_    0.086679 0.912613 0.462512 0.135569
H57   H     H_    0.144805 0.424983 0.246731 0.217586
H58   H     H_    0.109434 0.881736 0.418234 0.196878
H59   H     H_    0.104675 0.521600 0.862865 0.098383
H60   H     H_    0.083682 0.535539 0.917022 0.142945
H61   H     H_    0.112315 0.575674 0.885517 0.193062
H62   H     H_    0.104538 0.144361 0.529165 0.115341
H63   H     H_    0.086679 0.087386 0.537492 0.135575
H64   H     H_    0.109434 0.118263 0.581771 0.196881
H65   H     H_    0.895322 0.521594 0.137132 0.098388
H66   H     H_    0.916317 0.535535 0.082976 0.142941
H67   H     H_    0.887682 0.575669 0.114478 0.193062
H68   H     H_    0.078110 0.194166 0.656907 0.179170
H69   H     H_    0.895464 0.144361 0.470832 0.115342
H70   H     H_    0.913324 0.087386 0.462505 0.135577
H71   H     H_    0.890568 0.118264 0.418226 0.196878
H72   H     H_    0.895327 0.478414 0.862856 0.098345
H73   H     H_    0.916314 0.464474 0.917015 0.142941
H74   H     H_    0.887678 0.424343 0.885510 0.193056
H75   H     H_    0.895465 0.855638 0.529162 0.115341
H76   H     H_    0.913324 0.912613 0.537490 0.135574
H77   H     H_    0.890568 0.881734 0.581768 0.196877
H78   H     H_    0.463584 0.853811 0.897042 0.116090
H79   H     H_    0.025093 0.198295 0.630998 0.158349
H80   H     H_    0.459270 0.911156 0.915207 0.133703
H81   H     H_    0.411948 0.882409 0.895758 0.197826
H82   H     H_    0.853808 0.536408 0.897047 0.116065
H83   H     H_    0.911153 0.540740 0.915205 0.133735
H84   H     H_    0.882390 0.588052 0.895757 0.197838
H85   H     H_    0.536406 0.146193 0.897044 0.116082
H86   H     H_    0.540729 0.088847 0.915206 0.133716
H87   H     H_    0.588046 0.117601 0.895757 0.197830
H88   H     H_    0.146188 0.463589 0.897042 0.116092
H89   H     H_    0.088844 0.459275 0.915207 0.133700
H90   H     H_    0.058144 0.247638 0.641328 0.154988
H91   H     H_    0.117589 0.411953 0.895758 0.197825
H92   H     H_    0.536412 0.853807 0.102955 0.116080
H93   H     H_    0.540735 0.911153 0.084794 0.133722
H94   H     H_    0.588053 0.882397 0.104243 0.197831
H95   H     H_    0.146194 0.536406 0.102955 0.116082
H96   H     H_    0.088848 0.540730 0.084794 0.133715
H97   H     H_    0.117602 0.588046 0.104243 0.197831
H98   H     H_    0.463579 0.146192 0.102959 0.116120
H99   H     H_    0.459286 0.088849 0.084788 0.133672
H100  H     H_    0.411953 0.117576 0.104236 0.197815
H101  H     H_    0.133917 0.527047 0.787835 0.126138
H102  H     H_    0.853812 0.463583 0.102957 0.116088
H103  H     H_    0.911156 0.459269 0.084793 0.133705
H104  H     H_    0.882410 0.411947 0.104241 0.197827
H105  H     H_    0.855638 0.104537 0.529160 0.115341
H106  H     H_    0.912614 0.086679 0.537487 0.135571
H107  H     H_    0.881737 0.109434 0.581766 0.196878
H108  H     H_    0.521593 0.104671 0.137112 0.098343
H109  H     H_    0.535562 0.083674 0.082966 0.142995
H110  H     H_    0.575678 0.112316 0.114489 0.193076
H111  H     H_    0.144361 0.104538 0.470837 0.115343
H112  H     H_    0.844071 0.576794 0.189093 0.169679
H113  H     H_    0.155921 0.576817 0.810900 0.169673
H114  H     H_    0.087386 0.086679 0.462510 0.135573
H115  H     H_    0.118262 0.109435 0.418231 0.196878
H116  H     H_    0.478405 0.104672 0.862856 0.098383
H117  H     H_    0.464465 0.083682 0.917015 0.142943
H118  H     H_    0.424332 0.112316 0.885508 0.193060
H119  H     H_    0.855638 0.895465 0.470836 0.115340
H120  H     H_    0.881735 0.890570 0.418230 0.196875
H121  H     H_    0.912613 0.913325 0.462508 0.135573
H122  H     H_    0.521595 0.895323 0.862866 0.098384
H123  H     H_    0.535535 0.916317 0.917022 0.142941
H124  H     H_    0.144808 0.575013 0.753278 0.217586
H125  H     H_    0.575669 0.887682 0.885520 0.193061
H126  H     H_    0.144359 0.895464 0.529168 0.115343
H127  H     H_    0.087385 0.913327 0.537494 0.135573
H128  H     H_    0.118263 0.890569 0.581774 0.196877
H129  H     H_    0.478413 0.895328 0.137143 0.098381
H130  H     H_    0.464471 0.916316 0.082983 0.142939
H131  H     H_    0.424340 0.887680 0.114489 0.193061
H132  H     H_    0.604676 0.978402 0.637153 0.098421
H133  H     H_    0.583685 0.964477 0.582990 0.142913
H134  H     H_    0.612316 0.924334 0.614487 0.193055
H135  H     H_    0.078105 0.805836 0.343095 0.179168
H136  H     H_    0.604537 0.355638 0.970841 0.115342
H137  H     H_    0.586679 0.412614 0.962513 0.135572
H138  H     H_    0.609434 0.381737 0.918235 0.196878
H139  H     H_    0.604677 0.021607 0.362841 0.098430
H140  H     H_    0.583687 0.035515 0.417009 0.142893
H141  H     H_    0.612313 0.075670 0.385523 0.193046
H142  H     H_    0.604537 0.644361 0.029165 0.115342
H143  H     H_    0.586679 0.587386 0.037492 0.135574
H144  H     H_    0.609434 0.618263 0.081771 0.196879
H145  H     H_    0.395322 0.021595 0.637134 0.098389
H146  H     H_    0.025088 0.801708 0.369003 0.158348
H147  H     H_    0.416316 0.035535 0.582977 0.142940
H148  H     H_    0.387682 0.075669 0.614480 0.193063
H149  H     H_    0.395464 0.644361 0.970832 0.115343
H150  H     H_    0.413324 0.587386 0.962505 0.135577
H151  H     H_    0.390568 0.618265 0.918226 0.196877
H152  H     H_    0.395321 0.978404 0.362858 0.098392
H153  H     H_    0.416315 0.964466 0.417017 0.142935
H154  H     H_    0.387682 0.924331 0.385513 0.193062
H155  H     H_    0.395465 0.355638 0.029162 0.115341
H156  H     H_    0.413324 0.412613 0.037490 0.135574
H157  H     H_    0.058138 0.752365 0.358673 0.154991
H158  H     H_    0.390568 0.381734 0.081768 0.196877
H159  H     H_    0.963585 0.353811 0.397043 0.116087
H160  H     H_    0.959270 0.411155 0.415207 0.133703
H161  H     H_    0.911948 0.382409 0.395757 0.197826
H162  H     H_    0.353805 0.036409 0.397044 0.116082
H163  H     H_    0.411151 0.040730 0.415204 0.133708
H164  H     H_    0.382398 0.088049 0.395755 0.197831
H165  H     H_    0.036401 0.646191 0.397045 0.116067
H166  H     H_    0.040734 0.588845 0.415204 0.133727
H167  H     H_    0.088046 0.617608 0.395754 0.197836
H168  H     H_    0.645054 0.752223 0.048070 0.153899
H169  H     H_    0.646184 0.963601 0.397045 0.116057
H170  H     H_    0.588839 0.959261 0.415202 0.133737
H171  H     H_    0.617606 0.911953 0.395752 0.197840
H172  H     H_    0.036431 0.353802 0.602960 0.116137
H173  H     H_    0.040715 0.411146 0.584787 0.133667
H174  H     H_    0.088053 0.382425 0.604233 0.197811
H175  H     H_    0.646192 0.036401 0.602954 0.116067
H176  H     H_    0.588846 0.040736 0.584796 0.133729
H177  H     H_    0.617610 0.088046 0.604246 0.197839
H178  H     H_    0.963589 0.646189 0.602956 0.116089
H179  H     H_    0.632329 0.801764 0.016242 0.158681
H180  H     H_    0.959273 0.588844 0.584792 0.133706
H181  H     H_    0.911952 0.617591 0.604240 0.197826
H182  H     H_    0.353810 0.963583 0.602957 0.116084
H183  H     H_    0.411155 0.959270 0.584794 0.133702
H184  H     H_    0.382409 0.911947 0.604241 0.197826
H185  H     H_    0.355638 0.604537 0.029159 0.115342
H186  H     H_    0.412614 0.586679 0.037487 0.135572
H187  H     H_    0.381738 0.609434 0.081765 0.196879
H188  H     H_    0.021597 0.604673 0.637137 0.098383
H189  H     H_    0.035537 0.583681 0.582979 0.142945
H190  H     H_    0.662057 0.805583 0.067137 0.179481
H191  H     H_    0.075671 0.612316 0.614485 0.193061
H192  H     H_    0.644361 0.604538 0.970837 0.115342
H193  H     H_    0.587386 0.586679 0.962510 0.135573
H194  H     H_    0.618262 0.609435 0.918231 0.196878
H195  H     H_    0.978399 0.604675 0.362845 0.098416
H196  H     H_    0.964476 0.583685 0.417009 0.142914
H197  H     H_    0.924332 0.612315 0.385513 0.193054
H198  H     H_    0.355637 0.395465 0.970836 0.115341
H199  H     H_    0.412613 0.413324 0.962508 0.135575
H200  H     H_    0.381733 0.390569 0.918230 0.196878
H201  H     H_    0.805584 0.337943 0.067138 0.179482
H202  H     H_    0.021596 0.395322 0.362864 0.098387
H203  H     H_    0.035534 0.416316 0.417022 0.142940
H204  H     H_    0.075670 0.387682 0.385520 0.193063
H205  H     H_    0.644361 0.395464 0.029168 0.115343
H206  H     H_    0.587386 0.413325 0.037495 0.135576
H207  H     H_    0.618265 0.390569 0.081774 0.196878
H208  H     H_    0.978423 0.395331 0.637124 0.098330
H209  H     H_    0.964443 0.416312 0.582972 0.142998
H210  H     H_    0.924337 0.387674 0.614506 0.193080
H211  H     H_    0.801760 0.367670 0.016243 0.158677
H212  H     H_    0.855180 0.574995 0.246716 0.217586
H213  H     H_    0.752222 0.354947 0.048075 0.153907
H214  H     H_    0.354948 0.247776 0.048071 0.153902
H215  H     H_    0.367670 0.198238 0.016240 0.158675
H216  H     H_    0.337945 0.194414 0.067135 0.179481
H217  H     H_    0.194415 0.662054 0.067137 0.179482
H218  H     H_    0.198233 0.632329 0.016241 0.158680
H219  H     H_    0.247775 0.645053 0.048068 0.153900
H220  H     H_    0.337943 0.805584 0.932859 0.179481
H221  H     H_    0.367669 0.801760 0.983755 0.158677
H222  H     H_    0.354947 0.752222 0.951923 0.153907
H223  H     H_    0.921894 0.805827 0.656906 0.179169
H224  H     H_    0.194412 0.337948 0.932860 0.179482
H225  H     H_    0.198241 0.367671 0.983756 0.158670
H226  H     H_    0.247776 0.354948 0.951921 0.153912
H227  H     H_    0.662054 0.194415 0.932864 0.179482
H228  H     H_    0.632328 0.198233 0.983759 0.158679
H229  H     H_    0.645053 0.247775 0.951932 0.153900
H230  H     H_    0.805585 0.662057 0.932868 0.179484
H231  H     H_    0.801759 0.632329 0.983762 0.158671
H232  H     H_    0.752223 0.645056 0.951928 0.153909
H233  H     H_    0.805835 0.921900 0.343095 0.179171
H234  H     H_    0.974910 0.801697 0.631000 0.158346
H235  H     H_    0.801678 0.974914 0.368999 0.158310
H236  H     H_    0.752354 0.941840 0.358666 0.155028
H237  H     H_    0.472958 0.866088 0.212179 0.126142
H238  H     H_    0.423192 0.844080 0.189106 0.169670
H239  H     H_    0.424987 0.855195 0.246727 0.217588
H240  H     H_    0.194178 0.921881 0.656905 0.179168
H241  H     H_    0.198331 0.974895 0.631010 0.158316
H242  H     H_    0.247652 0.941820 0.641328 0.155042
H243  H     H_    0.527039 0.866081 0.787833 0.126155
H244  H     H_    0.576807 0.844075 0.810905 0.169678
H245  H     H_    0.941858 0.752355 0.641327 0.154995
H246  H     H_    0.575008 0.855186 0.753282 0.217584
H247  H     H_    0.805837 0.078106 0.656905 0.179168
H248  H     H_    0.801708 0.025089 0.630996 0.158348
H249  H     H_    0.752365 0.058139 0.641327 0.154990
H250  H     H_    0.472947 0.133911 0.787820 0.126139
H251  H     H_    0.423180 0.155915 0.810892 0.169668
H252  H     H_    0.424974 0.144802 0.753270 0.217587
H253  H     H_    0.194164 0.078112 0.343094 0.179167
H254  H     H_    0.198293 0.025094 0.369002 0.158348
H255  H     H_    0.247636 0.058145 0.358673 0.154991
H256  H     H_    0.866095 0.472960 0.787878 0.126094
H257  H     H_    0.526996 0.133917 0.212093 0.126176
H258  H     H_    0.576794 0.155951 0.189123 0.169749
H259  H     H_    0.574892 0.144818 0.246735 0.217569
H260  H     H_    0.366081 0.027037 0.712169 0.126140
H261  H     H_    0.344074 0.076803 0.689096 0.169672
H262  H     H_    0.355186 0.075007 0.746719 0.217588
H263  H     H_    0.421892 0.305826 0.156906 0.179169
H264  H     H_    0.474909 0.301697 0.131000 0.158348
H265  H     H_    0.441857 0.252355 0.141327 0.154994
H266  H     H_    0.366080 0.972954 0.287816 0.126143
H267  H     H_    0.844082 0.423145 0.810884 0.169707
H268  H     H_    0.344077 0.923188 0.310893 0.169669
H269  H     H_    0.355190 0.924979 0.253272 0.217590
H270  H     H_    0.421889 0.694175 0.843090 0.179168
H271  H     H_    0.474907 0.698306 0.868997 0.158343
H272  H     H_    0.441852 0.747646 0.858671 0.154998
H273  H     H_    0.633916 0.972930 0.712238 0.126151
H274  H     H_    0.655907 0.923199 0.689094 0.169617
H275  H     H_    0.644811 0.924912 0.746715 0.217611
H276  H     H_    0.578110 0.694166 0.156907 0.179169
H277  H     H_    0.525092 0.698295 0.130998 0.158348
H278  H     H_    0.855208 0.425020 0.753252 0.217537
H279  H     H_    0.558144 0.747638 0.141327 0.154990
H280  H     H_    0.633916 0.027106 0.287742 0.126118
H281  H     H_    0.655888 0.076833 0.310926 0.169579
H282  H     H_    0.644800 0.075156 0.253298 0.217613
H283  H     H_    0.578106 0.305836 0.843095 0.179168
H284  H     H_    0.525089 0.301707 0.869003 0.158349
H285  H     H_    0.558139 0.252365 0.858673 0.154991
H286  H     H_    0.145055 0.252223 0.548072 0.153898
H287  H     H_    0.132330 0.301763 0.516242 0.158677
H288  H     H_    0.162057 0.305584 0.567138 0.179481
O1    O     O_R   0.962670 0.433890 0.500010 -0.588623
O2    O     O_R   0.499990 0.566110 0.037330 -0.589752
O3    O     O_3   0.045630 0.134184 0.565504 -0.553092
O4    O     O_3   0.951285 0.563427 0.134509 -0.535267
O5    O     O_3   0.954372 0.134187 0.434494 -0.553090
O6    O     O_3   0.951285 0.436575 0.865491 -0.535258
O7    O     O_3   0.954373 0.865813 0.565504 -0.553091
O8    O     O_3   0.431920 0.865582 0.958087 -0.551365
O9    O     O_3   0.865580 0.568080 0.958089 -0.551367
O10   O     O_3   0.568078 0.134419 0.958087 -0.551372
O11   O     O_3   0.134417 0.431922 0.958087 -0.551364
O12   O     O_3   0.568081 0.865581 0.041912 -0.551370
O13   O     O_R   0.566110 0.500010 0.037330 -0.589758
O14   O     O_3   0.134420 0.568078 0.041912 -0.551370
O15   O     O_3   0.431921 0.134418 0.041911 -0.551362
O16   O     O_3   0.865582 0.431919 0.041912 -0.551364
O17   O     O_3   0.865816 0.045629 0.565501 -0.553091
O18   O     O_3   0.563433 0.048712 0.134516 -0.535292
O19   O     O_3   0.134184 0.045630 0.434497 -0.553092
O20   O     O_3   0.436570 0.048711 0.865487 -0.535260
O21   O     O_3   0.865812 0.954374 0.434495 -0.553082
O22   O     O_3   0.563428 0.951286 0.865492 -0.535262
O23   O     O_3   0.134188 0.954373 0.565506 -0.553075
O24   O     O_R   0.500010 0.433890 0.037330 -0.589759
O25   O     O_3   0.436574 0.951287 0.134509 -0.535261
O26   O     O_3   0.548712 0.936571 0.634511 -0.535252
O27   O     O_3   0.545629 0.365816 0.934499 -0.553092
O28   O     O_3   0.548709 0.063431 0.365494 -0.535235
O29   O     O_3   0.545629 0.634184 0.065503 -0.553092
O30   O     O_3   0.451285 0.063427 0.634508 -0.535266
O31   O     O_3   0.454372 0.634187 0.934494 -0.553090
O32   O     O_3   0.451286 0.936573 0.365489 -0.535263
O33   O     O_3   0.454373 0.365813 0.065504 -0.553091
O34   O     O_3   0.931920 0.365582 0.458087 -0.551366
O35   O     O_R   0.566110 0.499990 0.962670 -0.589751
O36   O     O_3   0.365581 0.068079 0.458086 -0.551368
O37   O     O_3   0.068078 0.634419 0.458087 -0.551372
O38   O     O_3   0.634417 0.931922 0.458085 -0.551368
O39   O     O_3   0.068082 0.365580 0.541911 -0.551368
O40   O     O_3   0.634419 0.068078 0.541913 -0.551370
O41   O     O_3   0.931921 0.634418 0.541912 -0.551366
O42   O     O_3   0.365583 0.931919 0.541912 -0.551360
O43   O     O_3   0.365816 0.545629 0.065501 -0.553091
O44   O     O_3   0.063431 0.548711 0.634511 -0.535266
O45   O     O_3   0.634184 0.545630 0.934498 -0.553092
O46   O     O_R   0.500010 0.566110 0.962670 -0.589757
O47   O     O_3   0.936570 0.548710 0.365489 -0.535246
O48   O     O_3   0.365812 0.454373 0.934495 -0.553090
O49   O     O_3   0.063427 0.451286 0.365492 -0.535264
O50   O     O_3   0.634188 0.454373 0.065506 -0.553090
O51   O     O_3   0.936574 0.451285 0.634511 -0.535289
O52   O     O_R   0.433890 0.500010 0.962670 -0.589759
O53   O     O_R   0.499990 0.433890 0.962670 -0.589753
O54   O     O_R   0.499990 0.962670 0.566110 -0.592496
O55   O     O_R   0.566110 0.962670 0.500010 -0.588609
O56   O     O_R   0.500010 0.962670 0.433890 -0.592507
O57   O     O_R   0.962670 0.499990 0.433890 -0.592493
O58   O     O_R   0.433890 0.962670 0.499990 -0.588612
O59   O     O_R   0.499990 0.037330 0.433890 -0.592486
O60   O     O_R   0.566110 0.037330 0.499990 -0.588599
O61   O     O_R   0.500010 0.037330 0.566110 -0.592506
O62   O     O_R   0.433890 0.037330 0.500010 -0.588615
O63   O     O_R   0.462670 0.933890 0.000010 -0.588607
O64   O     O_R   0.462670 0.999990 0.933890 -0.592503
O65   O     O_R   0.462670 0.066110 0.999990 -0.588604
O66   O     O_R   0.462670 0.000010 0.066110 -0.592488
O67   O     O_R   0.537330 0.066110 0.000010 -0.588633
O68   O     O_R   0.962670 0.566110 0.499990 -0.588601
O69   O     O_R   0.537330 0.000010 0.933890 -0.592499
O70   O     O_R   0.537330 0.933890 0.999990 -0.588611
O71   O     O_R   0.537330 0.999990 0.066110 -0.592525
O72   O     O_R   0.933890 0.999990 0.537330 -0.589752
O73   O     O_R   0.999990 0.066110 0.537330 -0.589751
O74   O     O_R   0.066110 0.000010 0.537330 -0.589759
O75   O     O_R   0.000010 0.933890 0.537330 -0.589760
O76   O     O_R   0.066110 0.999990 0.462670 -0.589750
O77   O     O_R   0.000010 0.066110 0.462670 -0.589757
O78   O     O_R   0.933890 0.000010 0.462670 -0.589759
O79   O     O_R   0.962670 0.500010 0.566110 -0.592511
O80   O     O_R   0.999990 0.933890 0.462670 -0.589753
O81   O     O_R   0.999990 0.462670 0.066110 -0.592503
O82   O     O_R   0.066110 0.462670 0.000010 -0.588611
O83   O     O_R   0.000010 0.462670 0.933890 -0.592495
O84   O     O_R   0.933890 0.462670 0.999990 -0.588604
O85   O     O_R   0.999990 0.537330 0.933890 -0.592508
O86   O     O_R   0.066110 0.537330 0.999990 -0.588615
O87   O     O_R   0.000010 0.537330 0.066110 -0.592503
O88   O     O_R   0.933890 0.537330 0.000010 -0.588614
O89   O     O_3   0.909873 0.580725 0.205165 -0.566690
O90   O     O_R   0.037330 0.566110 0.500010 -0.588616
O91   O     O_3   0.919654 0.793318 0.590541 -0.576740
O92   O     O_3   0.909891 0.419256 0.794828 -0.566656
O93   O     O_3   0.919652 0.206682 0.409457 -0.576742
O94   O     O_3   0.090115 0.419263 0.205174 -0.566680
O95   O     O_3   0.080349 0.206679 0.590542 -0.576739
O96   O     O_3   0.090118 0.580737 0.794832 -0.566678
O97   O     O_3   0.080346 0.793322 0.409460 -0.576737
O98   O     O_3   0.595849 0.793005 0.074060 -0.576405
O99   O     O_3   0.793008 0.404152 0.074060 -0.576408
O100  O     O_3   0.404154 0.206992 0.074058 -0.576404
O101  O     O_R   0.037330 0.500010 0.433890 -0.592502
O102  O     O_3   0.206995 0.595846 0.074059 -0.576404
O103  O     O_3   0.404152 0.793008 0.925938 -0.576408
O104  O     O_3   0.206991 0.404156 0.925938 -0.576407
O105  O     O_3   0.595845 0.206995 0.925941 -0.576404
O106  O     O_3   0.793004 0.595849 0.925943 -0.576406
O107  O     O_3   0.793318 0.919655 0.409458 -0.576741
O108  O     O_3   0.419266 0.909884 0.205169 -0.566681
O109  O     O_3   0.206682 0.919648 0.590539 -0.576743
O110  O     O_3   0.580731 0.909878 0.794834 -0.566684
O111  O     O_3   0.793322 0.080346 0.590540 -0.576737
O112  O     O_R   0.037330 0.433890 0.499990 -0.588607
O113  O     O_3   0.419259 0.090111 0.794827 -0.566678
O114  O     O_3   0.206677 0.080349 0.409459 -0.576739
O115  O     O_3   0.580709 0.090143 0.205173 -0.566679
O116  O     O_3   0.409877 0.080729 0.705165 -0.566684
O117  O     O_3   0.419654 0.293318 0.090540 -0.576740
O118  O     O_3   0.409881 0.919266 0.294829 -0.566684
O119  O     O_3   0.419652 0.706682 0.909456 -0.576741
O120  O     O_3   0.590109 0.919256 0.705171 -0.566691
O121  O     O_3   0.580349 0.706678 0.090542 -0.576738
O122  O     O_3   0.590090 0.080766 0.294836 -0.566679
O123  O     O_R   0.037330 0.499990 0.566110 -0.592501
O124  O     O_3   0.580347 0.293322 0.909460 -0.576738
O125  O     O_3   0.095849 0.293005 0.574060 -0.576402
O126  O     O_3   0.293008 0.904149 0.574056 -0.576414
O127  O     O_3   0.904155 0.706992 0.574059 -0.576407
O128  O     O_3   0.706996 0.095845 0.574059 -0.576406
O129  O     O_3   0.904152 0.293008 0.425939 -0.576407
O130  O     O_3   0.706991 0.904155 0.425939 -0.576414
O131  O     O_3   0.095845 0.706995 0.425940 -0.576405
O132  O     O_3   0.293004 0.095848 0.425941 -0.576403
O133  O     O_3   0.293317 0.419656 0.909457 -0.576742
O134  O     O_R   0.433890 0.499990 0.037330 -0.589752
O135  O     O_3   0.919284 0.409866 0.705171 -0.566691
O136  O     O_3   0.706683 0.419652 0.090543 -0.576742
O137  O     O_3   0.080732 0.409880 0.294834 -0.566682
O138  O     O_3   0.293322 0.580347 0.090539 -0.576738
O139  O     O_3   0.919248 0.590102 0.294829 -0.566686
O140  O     O_3   0.706678 0.580349 0.909460 -0.576739
O141  O     O_3   0.080736 0.590117 0.705169 -0.566680
O142  O     O_3   0.048712 0.436571 0.134513 -0.535263
O143  O     O_3   0.045629 0.865816 0.434499 -0.553092
O144  O     O_3   0.048711 0.563431 0.865489 -0.535265
Zn1   Zn    Zn3+2 0.950160 0.500000 0.500000 1.030857
Zn2   Zn    Zn3+2 0.000000 1.000000 0.450160 1.027208
Zn3   Zn    Zn3+2 0.000000 0.450160 0.000000 1.030863
Zn4   Zn    Zn3+2 0.000000 0.549840 0.000000 1.030852
Zn5   Zn    Zn3+2 0.049840 0.500000 0.500000 1.030856
Zn6   Zn    Zn3+2 0.500000 0.500000 0.049840 1.027208
Zn7   Zn    Zn3+2 0.500000 0.500000 0.950160 1.027207
Zn8   Zn    Zn3+2 0.500000 0.950160 0.500000 1.030863
Zn9   Zn    Zn3+2 0.500000 0.049840 0.500000 1.030870
Zn10  Zn    Zn3+2 0.450160 0.000000 0.000000 1.030863
Zn11  Zn    Zn3+2 0.549840 0.000000 0.000000 1.030839
Zn12  Zn    Zn3+2 0.000000 1.000000 0.549840 1.027209

loop_
_geom_bond_atom_site_label_1
_geom_bond_atom_site_label_2
_ccdc_geom_bond_type
C280  C308  S    
C174  H21   S    
C281  O49   S    
C259  C298  A    
C255  O23   S    
C3    C224  A    
O57   Zn1   S    
C216  H145  S    
C206  H117  S    
C30   C257  A    
O46   Zn7   S    
C267  C303  A    
C180  H36   S    
C264  C299  A    
O101  Zn5   S    
C8    C56   A    
C106  O117  S    
C239  C311  A    
C200  H99   S    
C169  O126  S    
C123  O133  S    
C50   C277  A    
C33   C114  A    
C6    C85   A    
C122  O132  S    
C51   C276  A    
C291  O53   A    
C97   O108  S    
C250  O18   S    
C78   C129  A    
C155  H251  S    
C184  O141  S    
C249  O17   S    
C157  O84   A    
C149  H232  S    
C126  O136  S    
C165  O122  S    
C270  C305  A    
C242  O10   S    
C8    C244  A    
C94   O105  S    
C146  O85   A    
C207  H119  S    
C163  O120  S    
C243  C292  A    
C112  O57   A    
C233  H195  S    
C219  H155  S    
C136  H24   S    
O112  Zn5   S    
C236  H203  S    
C113  C285  S    
C160  O117  S    
C241  O9    S    
C19   C98   A    
C96   O107  S    
C23   C103  A    
C19   C63   A    
C262  C297  A    
C89   C106  A    
C297  C302  S    
C176  H27   S    
C29   C108  A    
C10   C246  A    
C240  C288  A    
C177  H31   S    
C138  H68   S    
C36   C71   A    
C169  H5    S    
C132  O89   S    
C235  O6    S    
C133  H234  S    
C124  C284  S    
C15   C242  A    
C137  H57   S    
O77   Zn2   S    
O53   Zn7   S    
C208  H125  S    
C158  O115  S    
C178  O136  S    
C136  H13   S    
C6    C54   A    
C108  O119  S    
C186  H56   S    
C183  H48   S    
C26   C105  A    
O71   Zn11  S    
C238  O51   S    
C192  H74   S    
C278  C309  A    
C29   C69   A    
C236  O49   S    
C211  H132  S    
C176  O133  S    
C209  H127  S    
C90   O73   A    
C216  O30   S    
C11   C245  A    
C80   O91   S    
C162  H272  S    
C193  H76   S    
C188  H63   S    
C189  H65   S    
C188  O3    S    
C150  H233  S    
C51   C131  A    
C163  H273  S    
C137  O94   S    
C166  H284  S    
C140  H135  S    
C44   C283  A    
C234  H199  S    
C178  H34   S    
O52   Zn7   S    
C185  H53   S    
C4    C168  A    
C83   O94   S    
C134  H256  S    
C218  H153  S    
C135  O86   A    
C22   C252  A    
C185  O142  S    
C50   C76   A    
C269  O2    A    
C237  H207  S    
C143  H214  S    
C272  O40   S    
C225  H169  S    
C202  H104  S    
C86   C121  A    
C167  H287  S    
C17   C96   A    
C239  O7    S    
C263  C300  A    
C198  H93   S    
C251  O19   S    
C158  H258  S    
C19   C255  A    
C174  H19   S    
C152  H240  S    
C63   C71   A    
C220  H160  S    
C95   O106  S    
C216  H147  S    
C147  H225  S    
C271  C301  A    
C214  H141  S    
C52   C77   A    
C258  O134  A    
O80   Zn2   S    
C219  O33   S    
O84   Zn3   S    
C208  O22   S    
O79   Zn1   S    
C234  H198  S    
C80   C117  A    
C1    O1    A    
C230  H187  S    
C212  O4    S    
C98   O109  S    
C193  H75   S    
O55   Zn8   S    
C102  O113  S    
C93   C123  A    
C198  O12   S    
C173  H18   S    
C105  O116  S    
C232  H193  S    
C40   C270  A    
C68   O71   A    
C140  H157  S    
C226  H172  S    
C103  O114  S    
C233  H197  S    
C31   C261  A    
C34   C115  A    
C111  O122  S    
C180  H37   S    
C9    C88   A    
C27   C66   A    
C85   C131  A    
C213  H136  S    
C275  C306  A    
C184  H50   S    
C159  O116  S    
C20   C99   A    
C210  H130  S    
C277  O45   S    
C31   C110  A    
C179  C285  A    
C152  O109  S    
C164  H277  S    
C53   C311  A    
C79   O78   A    
C150  O107  S    
C241  C289  A    
C97   C107  A    
C263  O31   S    
C145  H222  S    
C12   C240  A    
C37   C117  A    
C206  O20   S    
O87   Zn4   S    
C119  O129  S    
C118  O128  S    
C134  O92   S    
O90   Zn5   S    
C217  H149  S    
C57   C290  S    
C144  H217  S    
C142  H201  S    
C254  O22   S    
C223  C304  S    
O66   Zn10  S    
C20   C64   A    
C112  C309  S    
C2    C305  S    
C162  O119  S    
C44   C75   A    
C143  O100  S    
C162  H270  S    
C247  O123  A    
C189  O4    S    
C161  H269  S    
C246  O15   S    
C189  H67   S    
C156  H255  S    
C235  C286  A    
C15   C94   A    
C225  H170  S    
C58   C76   A    
C87   C110  A    
O83   Zn3   S    
C188  H62   S    
C152  H241  S    
C211  O26   S    
C165  H281  S    
C265  C298  A    
C144  O102  S    
C215  H144  S    
C36   C274  A    
C171  H10   S    
C195  H83   S    
C187  H59   S    
C175  H25   S    
C5    C201  A    
C182  O139  S    
C13   O56   A    
C7    C86   A    
C200  H98   S    
C202  H102  S    
C180  O137  S    
C13   C299  S    
O56   Zn8   S    
C117  O127  S    
C231  O44   S    
C9    C248  A    
C156  H254  S    
O73   Zn12  S    
C7    C53   A    
C81   C312  A    
C166  O124  S    
C24   C303  S    
C3    C55   A    
C92   C108  A    
C145  H221  S    
C132  H112  S    
C10   C89   A    
C52   C310  A    
C221  H162  S    
C266  O34   S    
C186  H58   S    
C95   C130  A    
C214  H139  S    
C201  C287  A    
C14   C93   A    
C236  H202  S    
C199  H96   S    
C270  O38   S    
O85   Zn4   S    
C203  H105  S    
C235  C312  A    
C25   C62   A    
C17   C61   A    
C131  O141  S    
C239  C285  A    
C142  H213  S    
C130  O140  S    
C196  H85   S    
C230  H185  S    
C195  H84   S    
C121  O131  S    
C129  O139  S    
C46   C296  S    
C154  H247  S    
C266  C301  A    
C199  O14   S    
C33   C66   A    
C125  O135  S    
C222  H167  S    
C182  H43   S    
C44   C125  A    
C204  H108  S    
C141  H168  S    
O76   Zn2   S    
C32   C260  A    
C194  O8    S    
C79   O72   A    
C101  C295  S    
C5    C84   A    
C18   C62   A    
C192  O6    S    
C186  O143  S    
C27   C106  A    
C229  H182  S    
C57   O65   A    
O134  Zn6   S    
O72   Zn12  S    
C164  H279  S    
C252  O20   S    
C151  O108  S    
C158  H257  S    
O64   Zn10  S    
C227  O40   S    
C148  H227  S    
C282  C308  A    
C151  H238  S    
C150  H236  S    
C269  O46   A    
C191  O5    S    
O68   Zn1   S    
C33   C259  A    
C234  O48   S    
C43   C279  A    
O75   Zn12  S    
C177  O135  S    
C181  H40   S    
C138  O95   S    
C213  H137  S    
C217  H151  S    
C279  O48   S    
C144  H219  S    
C143  H215  S    
C171  O128  S    
C120  O130  S    
C244  C288  A    
C85   O96   S    
C32   C67   A    
C90   O77   A    
C161  O118  S    
C110  O121  S    
C211  H133  S    
C36   C116  A    
C43   C123  A    
C245  O14   S    
C280  O13   A    
C206  H118  S    
C246  C290  A    
C45   C282  A    
O81   Zn3   S    
C167  H286  S    
C81   C125  A    
C12   C92   A    
C233  H196  S    
C81   O92   S    
C83   C127  A    
C237  O50   S    
C141  O98   S    
O86   Zn4   S    
C183  O140  S    
C25   C104  A    
C47   C127  A    
C200  H100  S    
C260  C299  A    
C181  O138  S    
C249  C293  A    
C228  H178  S    
C198  H94   S    
C221  O36   S    
C212  C310  A    
C227  H176  S    
C256  C294  A    
C154  O111  S    
C240  O8    S    
C221  H164  S    
C39   C119  A    
C174  H20   S    
C49   C77   A    
C219  H158  S    
C277  C308  A    
C54   C312  A    
C236  H204  S    
C30   C65   A    
C54   C75   A    
C1    O112  A    
C148  O105  S    
C204  H109  S    
C224  C287  A    
C142  H211  S    
C196  H87   S    
C128  O138  S    
C56   C69   A    
C79   C293  S    
C127  O137  S    
C195  H82   S    
C47   C77   A    
C174  O131  S    
C164  H276  S    
C22   C64   A    
C42   C267  A    
O74   Zn12  S    
C177  H30   S    
C280  O35   A    
C216  H148  S    
C172  O129  S    
C209  O23   S    
C169  H4    S    
C194  H78   S    
O67   Zn11  S    
O78   Zn2   S    
C222  H165  S    
C46   O64   A    
C207  H121  S    
C204  H110  S    
C256  O25   S    
C140  H146  S    
C78   O89   S    
C273  C304  A    
C156  O114  S    
C274  C303  A    
C113  O80   A    
C229  H184  S    
O54   Zn8   S    
C142  O99   S    
C57   O67   A    
C169  H3    S    
C231  H189  S    
C248  C289  A    
C244  O12   S    
C45   C76   A    
C250  C294  A    
C139  H124  S    
C153  H244  S    
C32   C111  A    
C281  C309  A    
C161  H266  S    
C188  H64   S    
C68   O66   A    
C148  H229  S    
C165  H280  S    
C218  H152  S    
C23   C63   A    
C242  C290  A    
C191  H70   S    
C166  H285  S    
C2    O60   A    
C99   C109  A    
C208  H123  S    
C234  H200  S    
C205  O19   S    
C185  H52   S    
C253  O21   S    
C40   C73   A    
C201  O3    S    
C102  C105  A    
C171  H11   S    
C9    C58   A    
C175  O132  S    
C135  O82   A    
C114  O124  S    
C218  H154  S    
C291  C298  S    
C107  O118  S    
C23   C251  A    
C47   C281  A    
C45   C126  A    
C237  H206  S    
C231  H191  S    
C78   C310  A    
C218  O32   S    
O123  Zn5   S    
C139  H113  S    
C18   C97   A    
C220  O34   S    
C226  H173  S    
C135  C292  S    
C34   C70   A    
C21   C61   A    
C133  H223  S    
C92   O103  S    
C141  H179  S    
C205  H115  S    
C258  O52   A    
C158  H259  S    
C206  H116  S    
C146  O83   A    
C149  H231  S    
C2    O55   A    
C82   C119  A    
C184  H51   S    
C134  H267  S    
C96   C120  A    
C141  H190  S    
C197  H91   S    
C91   O102  S    
C228  H180  S    
C198  H92   S    
C91   C128  A    
C183  H47   S    
C302  O61   A    
C155  H252  S    
C139  H101  S    
C172  H15   S    
C173  H17   S    
C224  O5    S    
C222  O37   S    
C124  O87   A    
O2    Zn6   S    
C133  O91   S    
C204  O18   S    
C153  O110  S    
C30   C109  A    
C136  H2    S    
C46   O69   A    
C207  H120  S    
C262  O30   S    
C291  O24   A    
C160  H263  S    
C187  H60   S    
C132  H1    S    
C253  C293  A    
C180  H38   S    
C48   C74   A    
C149  O106  S    
C113  O75   A    
C25   C250  A    
C31   C69   A    
C238  H208  S    
C159  H262  S    
C210  H131  S    
C229  O42   S    
C160  H264  S    
C302  O54   A    
C272  C305  A    
C173  H16   S    
C20   C254  A    
C173  O130  S    
C283  C307  A    
C182  H44   S    
C194  H81   S    
C24   O62   A    
C151  H239  S    
C167  H288  S    
C255  C295  A    
C40   C120  A    
O24   Zn6   S    
C220  H161  S    
C34   C271  A    
C116  O126  S    
C100  C118  A    
C13   O59   A    
C186  H55   S    
C193  O7    S    
C190  C286  A    
C197  H89   S    
C192  H73   S    
C144  H218  S    
C41   C121  A    
C14   C60   A    
C228  O41   S    
C211  H134  S    
C209  H128  S    
C181  H41   S    
C15   C59   A    
C153  H246  S    
C137  H46   S    
C84   O95   S    
C193  H77   S    
C161  H268  S    
C176  H26   S    
C189  H66   S    
C209  H126  S    
C265  O33   S    
C163  H274  S    
C162  H271  S    
C166  H283  S    
C175  H22   S    
C152  H242  S    
O82   Zn3   S    
C159  H261  S    
C178  H33   S    
C254  C296  A    
C185  H54   S    
C215  H143  S    
C171  H9    S    
C251  C295  A    
C64   C65   A    
C10   C59   A    
C271  O39   S    
C197  H88   S    
C27   C265  A    
C4    C83   A    
C247  C307  S    
C202  H103  S    
C276  O44   S    
C99   O110  S    
C42   C71   A    
C148  H228  S    
C215  O29   S    
C190  O144  S    
C227  H177  S    
C172  H12   S    
C157  O88   A    
C168  O142  S    
C14   C243  A    
C38   C118  A    
C100  O111  S    
C145  H220  S    
C232  H194  S    
C210  O25   S    
C220  H159  S    
C203  H107  S    
C37   C72   A    
C90   C287  S    
C147  H226  S    
C207  O21   S    
C35   C288  S    
C219  H156  S    
C41   C268  A    
C268  O37   S    
C210  H129  S    
C214  H140  S    
C155  O113  S    
C103  C122  A    
C199  H95   S    
C139  O96   S    
C217  O31   S    
C59   C66   A    
C232  H192  S    
C11   C91   A    
C196  H86   S    
C230  H186  S    
C132  H212  S    
C202  O16   S    
C212  C284  A    
C183  H45   S    
C155  H250  S    
C154  H248  S    
C268  C304  A    
C248  O16   S    
C94   C114  A    
C39   C266  A    
O88   Zn4   S    
C243  O11   S    
C82   O93   S    
C17   C253  A    
C62   C67   A    
C4    C52   A    
C140  O97   S    
C101  O74   A    
C51   C75   A    
C276  C307  A    
C238  H210  S    
C203  H106  S    
C21   C249  A    
C184  H49   S    
C274  O42   S    
C115  O125  S    
C48   C128  A    
C257  O26   S    
O59   Zn9   S    
C28   C107  A    
O1    Zn1   S    
C213  O27   S    
C138  H79   S    
C154  H249  S    
O70   Zn11  S    
C182  H42   S    
C88   C126  A    
C258  C306  S    
C37   C273  A    
C112  O101  A    
C151  H237  S    
C133  H245  S    
C170  H7    S    
O62   Zn9   S    
C191  H71   S    
C124  O81   A    
C282  O50   S    
C68   C294  S    
C159  H260  S    
C181  H39   S    
C50   C130  A    
C53   C72   A    
C217  H150  S    
C175  H23   S    
C278  O47   S    
C16   C241  A    
C137  H35   S    
C43   C74   A    
C231  H188  S    
C259  O27   S    
O65   Zn10  S    
C164  O121  S    
C1    C301  S    
C35   O63   A    
C138  H90   S    
C194  H80   S    
C197  O11   S    
C226  O39   S    
C225  H171  S    
C147  O104  S    
C260  O28   S    
C203  O17   S    
C87   O98   S    
O35   Zn7   S    
C88   O99   S    
C245  C292  A    
C165  H282  S    
C134  H278  S    
C104  O115  S    
C157  C289  S    
C28   C67   A    
C223  O68   A    
C80   C311  A    
C21   C100  A    
C168  C284  A    
C279  C306  A    
C16   C58   A    
C170  O127  S    
C28   C264  A    
C49   C129  A    
C208  H122  S    
C225  O38   S    
C192  H72   S    
C136  O93   S    
C109  O120  S    
C227  H175  S    
C156  H253  S    
C172  H14   S    
C146  C286  S    
C200  O15   S    
C205  H111  S    
C149  H230  S    
C98   C116  A    
C267  O36   S    
C178  H32   S    
C18   C256  A    
C221  H163  S    
C176  H28   S    
C6    C190  A    
C3    C82   A    
C147  H224  S    
C7    C179  A    
C187  H61   S    
C233  O47   S    
C12   C56   A    
C41   C72   A    
C187  O144  S    
O61   Zn9   S    
C261  C300  A    
C84   C115  A    
C215  H142  S    
O60   Zn9   S    
C89   O100  S    
C196  O10   S    
C232  O45   S    
C195  O9    S    
C179  O143  S    
C177  H29   S    
C230  O43   S    
C42   C122  A    
C93   O104  S    
C257  C297  A    
C222  H166  S    
C16   C95   A    
C61   C73   A    
O13   Zn6   S    
C252  C296  A    
C26   C65   A    
C5    C55   A    
C101  O76   A    
C145  O103  S    
O58   Zn8   S    
C160  H265  S    
C237  H205  S    
C104  C111  A    
C214  O28   S    
C26   C262  A    
C229  H183  S    
C223  O90   A    
C170  H6    S    
C22   C102  A    
C8    C87   A    
C153  H243  S    
O69   Zn11  S    
C35   O70   A    
C24   O58   A    
O63   Zn10  S    
C150  H235  S    
C163  H275  S    
C191  H69   S    
C38   C272  A    
C49   C278  A    
C60   C74   A    
C29   C263  A    
C39   C70   A    
C269  C300  S    
C170  H8    S    
C275  O43   S    
C213  H138  S    
C55   C70   A    
C273  O41   S    
C143  H216  S    
C199  H97   S    
C48   C275  A    
C247  O79   A    
C228  H181  S    
C238  H209  S    
C86   O97   S    
C167  O125  S    
C264  O32   S    
C226  H174  S    
C283  O51   S    
C11   C60   A    
C261  O29   S    
C205  H114  S    
C38   C73   A    
