data_mof_unit_45062.cif
_audit_creation_date              2012-12-10T17:43:33-0500
_audit_creation_method            fapswitch 2.2
_symmetry_space_group_name_H-M    P1
_symmetry_Int_Tables_number       1
_space_group_crystal_system       triclinic
_cell_length_a                    14.933089
_cell_length_b                    10.670615
_cell_length_c                    10.014961
_cell_angle_alpha                 92.357584
_cell_angle_beta                  90.034748
_cell_angle_gamma                 94.294999
_cell_volume                      1589.99689107

loop_
_atom_site_label
_atom_site_type_symbol
_atom_type_description
_atom_site_fract_x
_atom_site_fract_y
_atom_site_fract_z
_atom_type_partial_charge
C1    C     C_R   0.504320 0.261563 0.497194 0.883021
C2    C     C_R   0.180943 0.409880 0.420874 -0.273924
C3    C     C_R   0.231315 0.495989 0.503795 -0.067355
C4    C     C_R   0.327165 0.499353 0.500429 0.891106
C5    C     C_R   0.190385 0.572024 0.598357 -0.241484
C6    C     C_R   0.636186 0.157191 0.661217 -0.200336
C7    C     C_R   0.678077 0.112864 0.772511 0.190378
C8    C     C_R   0.655496 0.987716 0.807448 0.192043
C9    C     C_R   0.603395 0.906173 0.718598 -0.276574
C10   C     C_R   0.562020 0.951196 0.604463 0.056692
C11   C     C_R   0.572259 0.080479 0.585260 0.047692
C12   C     C_R   0.911224 0.576394 0.598233 0.023037
C13   C     C_R   0.516994 0.131178 0.491015 -0.060789
C14   C     C_R   0.464664 0.056078 0.400429 -0.219777
C15   C     C_R   0.462223 0.928568 0.407652 -0.223211
C16   C     C_R   0.504000 0.740371 0.503318 0.843014
C17   C     C_R   0.508814 0.875034 0.509285 -0.071862
C18   C     C_R   0.353237 0.379704 0.130730 0.511816
C19   C     C_R   0.270018 0.372647 0.064350 -0.360135
C20   C     C_R   0.268460 0.386808 0.927315 -0.213432
C21   C     C_R   0.350258 0.381296 0.859738 0.219102
C22   C     C_R   0.427559 0.441776 0.925836 0.010665
C23   C     C_R   0.944400 0.310091 0.351042 -0.180163
C24   C     C_R   0.428149 0.441579 0.069379 0.063461
C25   C     C_R   0.568671 0.558154 0.071758 0.189638
C26   C     C_R   0.568336 0.556318 0.929575 -0.144746
C27   C     C_R   0.672749 0.501217 0.500181 0.956166
C28   C     C_R   0.820528 0.594999 0.574834 0.064194
C29   C     C_R   0.768710 0.500294 0.501186 -0.150414
C30   C     C_R   0.807163 0.402767 0.429304 0.302794
C31   C     C_R   0.900849 0.399708 0.429581 0.038321
C32   C     C_R   0.952413 0.486813 0.514971 -0.106515
C33   C     C_3   0.781905 0.721258 0.608977 -0.346270
C34   C     C_R   0.037363 0.314133 0.347385 -0.229615
C35   C     C_3   0.756518 0.787878 0.483556 -0.916600
C36   C     C_3   0.742428 0.203959 0.852838 -0.441223
C37   C     C_3   0.827019 0.239883 0.773124 -0.831658
C38   C     C_3   0.677997 0.941590 0.942830 -0.459369
C39   C     C_3   0.770669 0.890564 0.945355 -0.843065
C40   C     C_3   0.647258 0.629878 0.140199 -0.381902
C41   C     C_3   0.731030 0.556177 0.132694 -0.817914
C42   C     C_3   0.359451 0.260214 0.776219 -0.316330
C43   C     C_3   0.298046 0.145678 0.815403 -0.956588
C44   C     C_R   0.088150 0.402862 0.427299 0.142925
C45   C     C_R   0.045858 0.485409 0.516048 0.100031
C46   C     C_R   0.097521 0.567770 0.604455 0.068733
C47   C     C_R   0.055889 0.641925 0.699763 -0.331238
C48   C     C_R   0.962337 0.643498 0.701065 0.441398
H1    H     H_    0.652433 0.253795 0.636097 0.187603
H2    H     H_    0.230958 0.635379 0.665603 0.156206
H3    H     H_    0.096080 0.697284 0.774272 0.145631
H4    H     H_    0.423225 0.095921 0.326853 0.184075
H5    H     H_    0.811350 0.786456 0.408701 0.264971
H6    H     H_    0.693832 0.743284 0.438854 0.247051
H7    H     H_    0.744969 0.887480 0.509983 0.269924
H8    H     H_    0.722852 0.707279 0.674962 0.209412
H9    H     H_    0.830576 0.789391 0.660898 0.266017
H10   H     H_    0.861349 0.154427 0.742780 0.260476
H11   H     H_    0.810259 0.289987 0.682713 0.265663
H12   H     H_    0.593197 0.809865 0.745708 0.182351
H13   H     H_    0.873795 0.303382 0.835694 0.250897
H14   H     H_    0.708193 0.290318 0.880475 0.214002
H15   H     H_    0.764435 0.165459 0.947260 0.217976
H16   H     H_    0.768475 0.798056 0.890629 0.282216
H17   H     H_    0.821891 0.956287 0.899678 0.271447
H18   H     H_    0.790735 0.877180 0.050274 0.252837
H19   H     H_    0.672767 0.016661 0.021846 0.209667
H20   H     H_    0.626077 0.867355 0.969464 0.194292
H21   H     H_    0.715089 0.457970 0.161721 0.285312
H22   H     H_    0.757663 0.554187 0.029117 0.252349
H23   H     H_    0.420806 0.871438 0.335960 0.167465
H24   H     H_    0.783713 0.601836 0.200570 0.249670
H25   H     H_    0.630874 0.659599 0.242657 0.248561
H26   H     H_    0.662868 0.719224 0.091585 0.182950
H27   H     H_    0.314031 0.242483 0.242761 0.289373
H28   H     H_    0.226777 0.158683 0.791794 0.263242
H29   H     H_    0.305365 0.128828 0.923473 0.274166
H30   H     H_    0.317249 0.060839 0.757442 0.261120
H31   H     H_    0.345405 0.275711 0.669817 0.227920
H32   H     H_    0.428026 0.229850 0.791584 0.233457
H33   H     H_    0.776795 0.290820 0.275280 0.323595
H34   H     H_    0.209048 0.338376 0.113587 0.154656
H35   H     H_    0.965542 0.740322 0.870992 0.333674
H36   H     H_    0.205739 0.362256 0.874875 0.177722
H37   H     H_    0.623730 0.603005 0.876768 0.146924
H38   H     H_    0.908465 0.237310 0.289807 0.146136
H39   H     H_    0.069578 0.247519 0.282263 0.135835
H40   H     H_    0.213748 0.346401 0.354291 0.147036
N1    N     N_R   0.499150 0.498800 0.142780 -0.119762
N2    N     N_R   0.499120 0.498720 0.857170 -0.125196
O1    O     O_R   0.500000 0.316780 0.614690 -0.668224
O2    O     O_3   0.750774 0.311676 0.363343 -0.780000
O3    O     O_3   0.919944 0.699824 0.807813 -0.819363
O4    O     O_R   0.499990 0.316750 0.385360 -0.528714
O5    O     O_R   0.367850 0.499980 0.614680 -0.633849
O6    O     O_R   0.367840 0.499960 0.385350 -0.568005
O7    O     O_R   0.500010 0.683250 0.614640 -0.628262
O8    O     O_R   0.500000 0.683220 0.385310 -0.646130
O9    O     O_R   0.632160 0.500040 0.614650 -0.651823
O10   O     O_R   0.632150 0.500020 0.385320 -0.596305
O11   O     O_3   0.365414 0.306576 0.237716 -0.748789
Zn1   Zn    Zn3+2 0.500010 0.500020 0.653130 0.918526
Zn2   Zn    Zn3+2 0.499990 0.499980 0.346870 0.988280

loop_
_geom_bond_atom_site_label_1
_geom_bond_atom_site_label_2
_ccdc_geom_bond_type
C42   H32   S    
C35   H5    S    
C32   C45   A    
C19   C20   A    
C12   C48   A    
C24   N1    A    
C7    C8    A    
C45   C46   A    
C43   H30   S    
C39   H16   S    
C27   O9    A    
C12   C28   A    
C18   C24   A    
C36   C37   S    
C25   C40   S    
C38   C39   S    
C16   O7    A    
C27   C29   S    
C10   C17   A    
O8    Zn2   S    
H35   O3    S    
C40   H25   S    
C18   C19   A    
C7    C36   S    
N2    Zn1   S    
C4    O6    A    
H33   O2    S    
C14   H4    S    
C31   C32   A    
C2    C44   A    
C8    C9    A    
C23   H38   S    
C2    H40   S    
C36   H15   S    
C9    C10   A    
C37   H10   S    
O5    Zn1   S    
C33   H8    S    
C42   H31   S    
C1    O1    A    
C21   C22   A    
C12   C32   A    
C35   H6    S    
C39   H17   S    
C8    C38   S    
C36   H14   S    
C27   O10   A    
C48   O3    S    
C35   H7    S    
C34   C44   A    
C30   O2    S    
C6    C11   A    
C1    O4    A    
C47   H3    S    
C25   C26   A    
O10   Zn2   S    
C18   O11   S    
C23   C31   A    
C29   C30   A    
C4    O5    A    
C47   C48   A    
C23   C34   A    
C22   N2    A    
C38   H19   S    
C37   H11   S    
C41   H24   S    
C40   C41   S    
C38   H20   S    
O4    Zn2   S    
C20   H36   S    
C39   H18   S    
C22   C24   A    
C5    H2    S    
C43   H29   S    
C42   C43   S    
O1    Zn1   S    
C3    C4    S    
C19   H34   S    
C44   C45   A    
C41   H21   S    
C43   H28   S    
C15   C17   A    
C46   C47   A    
C28   C29   A    
C33   H9    S    
O7    Zn1   S    
C3    C5    A    
C28   C33   S    
C37   H13   S    
C6    C7    A    
C26   N2    A    
C15   H23   S    
C5    C46   A    
C25   N1    A    
C9    H12   S    
C2    C3    A    
C11   C13   A    
C16   O8    A    
C30   C31   A    
C26   H37   S    
C33   C35   S    
C40   H26   S    
C34   H39   S    
C6    H1    S    
C10   C11   A    
C21   C42   S    
O9    Zn1   S    
C1    C13   S    
C20   C21   A    
O6    Zn2   S    
H27   O11   S    
C14   C15   A    
C13   C14   A    
N1    Zn2   S    
C16   C17   S    
C41   H22   S    
