data_mof_unit_12828.cif
_audit_creation_date              2012-12-11T14:17:41-0500
_audit_creation_method            fapswitch 2.2
_symmetry_space_group_name_H-M    P1
_symmetry_Int_Tables_number       1
_space_group_crystal_system       triclinic
_cell_length_a                    6.947864
_cell_length_b                    13.634222
_cell_length_c                    20.48913
_cell_angle_alpha                 102.218823
_cell_angle_beta                  90.334789
_cell_angle_gamma                 91.126379
_cell_volume                      1896.47457843

loop_
_atom_site_label
_atom_site_type_symbol
_atom_type_description
_atom_site_fract_x
_atom_site_fract_y
_atom_site_fract_z
_atom_type_partial_charge
O1    O     O_R   0.506860 0.599390 0.449240 -0.545931
O2    O     O_R   0.180220 0.594600 0.586780 -0.513201
O3    O     O_R   0.004500 0.400610 0.550760 -0.544492
C1    C     C_R   0.350065 0.617091 0.613061 0.739871
O4    O     O_R   0.177490 0.611290 0.451970 -0.542584
O5    O     O_R   0.001750 0.417420 0.414990 -0.552367
C2    C     C_R   0.347578 0.637074 0.434472 0.768316
O6    O     O_R   0.509610 0.582580 0.585010 -0.546377
O7    O     O_3   0.337420 0.436370 0.488020 -0.374117
V1    V     V_3+5 0.064680 0.511800 0.502220 1.466527
O8    O     O_R   0.671710 0.405400 0.413220 -0.523672
C3    C     C_R   0.837616 0.386214 0.385950 0.741968
O9    O     O_R   0.674440 0.388710 0.548030 -0.542786
C4    C     C_R   0.842477 0.362032 0.564398 0.686039
V2    V     V_3+5 0.564010 0.488200 0.497780 1.462611
O10   O     O_3   0.841140 0.563630 0.511980 -0.370697
C5    C     C_R   0.857826 0.107274 0.607246 -0.151052
H1    H     H_    0.852502 0.980718 0.686799 0.153383
H2    H     H_    0.858646 0.028823 0.582066 0.127662
C6    C     C_R   0.849540 0.281921 0.601439 -0.068243
C7    C     C_R   0.869736 0.311675 0.924053 0.181631
C8    C     C_R   0.871174 0.386088 0.887378 -0.082825
C9    C     C_R   0.868370 0.361822 0.818198 -0.214041
C10   C     C_R   0.861442 0.260773 0.782423 0.066020
C11   C     C_R   0.858350 0.182125 0.819319 -0.015096
C12   C     C_R   0.858088 0.236091 0.710899 0.087881
C13   C     C_R   0.858783 0.134183 0.677240 0.020403
C14   C     C_R   0.856192 0.058734 0.713120 -0.156785
C15   C     C_R   0.851104 0.080072 0.782328 0.149891
C16   C     C_R   0.852242 0.309152 0.671214 -0.240999
C17   C     C_R   0.853524 0.180090 0.568772 0.203170
C18   C     C_R   0.863875 0.209672 0.891030 -0.127935
H3    H     H_    0.846730 0.388280 0.692540 0.095277
H4    H     H_    0.873749 0.425021 0.794464 0.113928
H5    H     H_    0.876522 0.464320 0.912906 0.148471
C19   C     C_2   0.991815 0.295971 0.282483 -0.210812
C20   C     C_2   0.829432 0.326288 0.316684 0.011955
H6    H     H_    0.129894 0.317219 0.307111 0.151815
C21   C     C_2   0.999568 0.244405 0.210387 0.219733
C22   C     C_2   0.870074 0.171352 0.183170 -0.309802
H7    H     H_    0.758847 0.147753 0.213480 0.102002
C23   C     C_2   0.239785 0.810379 0.775423 -0.284909
C24   C     C_2   0.352124 0.798076 0.826647 0.262427
H8    H     H_    0.159909 0.878757 0.779119 0.119244
C25   C     C_2   0.211941 0.731163 0.713675 0.528406
C26   C     C_2   0.365261 0.690021 0.678022 -0.362532
H9    H     H_    0.509303 0.713302 0.696709 0.137270
C27   C     C_R   0.482725 0.875510 0.381585 -0.169345
H10   H     H_    0.481553 0.826280 0.474061 0.137083
H11   H     H_    0.532019 0.997138 0.298341 0.116604
H12   H     H_    0.539435 0.949303 0.404993 0.148510
C28   C     C_R   0.365220 0.712591 0.393232 -0.157538
C29   C     C_R   0.289221 0.685254 0.070543 0.017527
C30   C     C_R   0.300412 0.605901 0.103824 0.435071
C31   C     C_R   0.353927 0.624410 0.171529 0.385918
C32   C     C_R   0.371998 0.725090 0.209424 -0.106502
C33   C     C_R   0.390314 0.803000 0.172889 -0.024878
C34   C     C_R   0.382378 0.751305 0.281320 0.005649
C35   C     C_R   0.449993 0.849483 0.312434 0.081630
C36   C     C_R   0.483297 0.921905 0.274651 -0.176382
C37   C     C_R   0.447172 0.900306 0.206526 -0.124231
C38   C     C_R   0.322813 0.686333 0.324317 0.423116
C39   C     C_R   0.447084 0.806329 0.421195 -0.255092
C40   C     C_R   0.351021 0.782324 0.103269 -0.205718
H13   H     H_    0.467113 0.960813 0.180334 0.115561
O11   O     O_R   0.203230 0.917310 0.915020 -0.551701
O12   O     O_R   0.535500 0.888690 0.048040 -0.547386
O13   O     O_R   0.711080 0.082610 0.085000 -0.544959
C41   C     C_R   0.365383 0.862088 0.064865 0.739112
O14   O     O_R   0.532630 0.905370 0.913230 -0.553747
O15   O     O_R   0.708190 0.099410 0.949230 -0.543233
C42   C     C_R   0.362718 0.879042 0.888613 0.636899
O16   O     O_R   0.206120 0.900510 0.050790 -0.539991
O17   O     O_3   0.375360 0.063570 0.011990 -0.361362
V3    V     V_3+5 0.648170 0.988200 0.997780 1.390395
O18   O     O_R   0.038240 0.111390 0.951940 -0.544923
C43   C     C_R   0.870353 0.135268 0.933152 0.690616
O19   O     O_R   0.041120 0.094710 0.086750 -0.516541
C44   C     C_R   0.874434 0.114672 0.113518 0.767442
V4    V     V_3+5 0.148810 0.011930 0.002180 1.429994
O20   O     O_3   0.871750 0.936430 0.988010 -0.380657
N1    N     N_3   0.850786 0.147696 0.497199 -0.680693
H14   H     H_    0.834800 0.207537 0.473336 0.207763
H15   H     H_    0.984463 0.116622 0.483014 0.227176
N2    N     N_3   0.640510 0.310013 0.286432 -0.656998
H16   H     H_    0.587476 0.239277 0.290277 0.229439
H17   H     H_    0.642072 0.317404 0.236778 0.243005
N3    N     N_3   0.153248 0.271482 0.170294 -0.626035
H18   H     H_    0.245594 0.324658 0.199746 0.264105
H19   H     H_    0.091663 0.307187 0.135097 0.237439
O21   O     O_3   0.429221 0.703172 0.823242 -0.560998
C45   C     C_3   0.609159 0.707213 0.855801 -0.228328
H20   H     H_    0.593156 0.725219 0.910878 0.136334
H21   H     H_    0.710677 0.760783 0.838969 0.159032
H22   H     H_    0.672692 0.631669 0.842654 0.138824
O22   O     O_3   0.025683 0.707792 0.690546 -0.545040
C46   C     C_3   0.953720 0.631042 0.720883 -0.176549
H23   H     H_    0.959266 0.653876 0.776314 0.119571
H24   H     H_    0.034219 0.560496 0.704265 0.121274
H25   H     H_    0.801178 0.614774 0.705504 0.148393
O23   O     O_3   0.225978 0.596387 0.300667 -0.525987
C47   C     C_3   0.028152 0.615013 0.297387 -0.193924
H26   H     H_    0.971911 0.655404 0.346321 0.122429
H27   H     H_    0.950828 0.541544 0.284225 0.150487
H28   H     H_    0.997153 0.657510 0.257918 0.118689
N4    N     N_3   0.221113 0.664832 0.002660 -0.624147
H29   H     H_    0.328644 0.685804 0.972644 0.217867
H30   H     H_    0.100686 0.708572 0.999859 0.238593
O24   O     O_3   0.407137 0.542156 0.196431 -0.508893
C48   C     C_3   0.608003 0.547103 0.207610 -0.186585
H31   H     H_    0.643934 0.600364 0.255112 0.124658
H32   H     H_    0.689772 0.568039 0.165721 0.101323
H33   H     H_    0.656814 0.472179 0.212115 0.159186
O25   O     O_3   0.251339 0.509041 0.070962 -0.523917
C49   C     C_3   0.410768 0.466080 0.034023 -0.132685
H34   H     H_    0.534885 0.460021 0.067299 0.135744
H35   H     H_    0.454641 0.508664 0.995634 0.141583
H36   H     H_    0.369460 0.388862 0.007422 0.149627
N5    N     N_3   0.875970 0.341709 0.995524 -0.657270
H37   H     H_    0.999928 0.312967 0.012998 0.241151
H38   H     H_    0.755838 0.310581 0.014771 0.206321
N6    N     N_3   0.828960 0.994205 0.811519 -0.682172
H39   H     H_    0.698112 0.998051 0.836325 0.250298
H40   H     H_    0.946124 0.988593 0.842328 0.238327

loop_
_geom_bond_atom_site_label_1
_geom_bond_atom_site_label_2
_ccdc_geom_bond_type
C34   C38   A    
C31   C32   A    
C24   C42   S    
H10   C39   S    
O15   C43   A    
C1    O6    A    
C46   H23   S    
C6    C16   A    
N2    H16   S    
O13   V3    S    
C8    H5    S    
C12   C13   A    
O23   C47   S    
C17   N1    S    
C27   C35   A    
C20   N2    S    
C14   C15   A    
C10   C12   A    
C2    C28   S    
O5    C3    A    
C29   C40   A    
O19   V4    S    
N4    H29   S    
V2    O10   S    
C32   C33   A    
C47   H28   S    
C3    C20   S    
C48   H31   S    
C18   C43   S    
C26   H9    S    
O8    V2    S    
C29   N4    S    
C27   H12   S    
O11   C42   A    
C49   H35   S    
C9    C10   A    
C41   O16   A    
O1    V2    S    
O7    V1    S    
C38   O23   S    
C49   H36   S    
O13   C44   A    
N2    H17   S    
C35   C36   A    
O17   V4    S    
C7    C8    A    
O22   C46   S    
C23   H8    S    
C21   N3    S    
C46   H24   S    
O25   C49   S    
N5    H38   S    
C11   C15   A    
C7    C18   A    
O17   V3    S    
C5    C13   A    
C4    C6    S    
H1    C14   S    
C10   C11   A    
C21   C22   D    
O4    C2    A    
O19   C44   A    
V3    O20   S    
C27   C39   A    
C1    C26   S    
C34   C35   A    
C29   C30   A    
C45   H22   S    
C24   O21   S    
C36   C37   A    
O12   C41   A    
C23   C25   S    
O2    C1    A    
C37   H13   S    
N5    H37   S    
C9    H4    S    
C15   N6    S    
C45   H21   S    
C22   C44   S    
C40   C41   S    
O18   C43   A    
C47   H27   S    
C48   H33   S    
O3    C4    A    
C22   H7    S    
N3    H19   S    
C12   C16   A    
O6    V2    S    
N1    H15   S    
O9    V2    S    
C5    C17   A    
O12   V3    S    
C23   C24   D    
N6    H40   S    
O2    V1    S    
O21   C45   S    
C46   H25   S    
C33   C40   A    
C30   C31   A    
C19   C20   D    
C16   H3    S    
O1    C2    A    
C19   C21   S    
O18   V4    S    
V4    O20   S    
C28   C39   A    
O5    V1    S    
O14   C42   A    
O8    C3    A    
C33   C37   A    
O11   V4    S    
H11   C36   S    
C19   H6    S    
O7    V2    S    
O4    V1    S    
C7    N5    S    
O3    V1    S    
C28   C38   A    
O24   C48   S    
O15   V3    S    
N4    H30   S    
C11   C18   A    
C30   O25   S    
C45   H20   S    
C5    H2    S    
O16   V4    S    
C32   C34   A    
C47   H26   S    
C48   H32   S    
C25   C26   D    
N3    H18   S    
N1    H14   S    
O14   V3    S    
C8    C9    A    
V1    O10   S    
N6    H39   S    
O9    C4    A    
C25   O22   S    
C31   O24   S    
C49   H34   S    
C13   C14   A    
C6    C17   A    
