data_mof_unit_32513.cif
_audit_creation_date              2012-12-10T17:21:20-0500
_audit_creation_method            fapswitch 2.2
_symmetry_space_group_name_H-M    P1
_symmetry_Int_Tables_number       1
_space_group_crystal_system       triclinic
_cell_length_a                    9.647403
_cell_length_b                    10.781279
_cell_length_c                    13.885602
_cell_angle_alpha                 93.7489
_cell_angle_beta                  84.852348
_cell_angle_gamma                 89.963833
_cell_volume                      1435.32644011

loop_
_atom_site_label
_atom_site_type_symbol
_atom_type_description
_atom_site_fract_x
_atom_site_fract_y
_atom_site_fract_z
_atom_type_partial_charge
C1    C     C_R   0.499701 0.737149 0.501907 0.868924
C2    C     C_1   0.464044 0.500413 0.785869 -0.104903
C3    C     C_R   0.372027 0.885178 0.668670 -0.170216
C4    C     C_R   0.310175 0.957027 0.748132 -0.176883
C5    C     C_R   0.310028 0.086043 0.747799 0.671722
C6    C     C_R   0.371727 0.143810 0.667921 -0.214115
C7    C     C_R   0.434061 0.072773 0.586099 -0.080189
C8    C     C_R   0.434017 0.941859 0.586537 0.004287
C9    C     C_R   0.499109 0.871284 0.505794 -0.225107
C10   C     C_R   0.564724 0.928425 0.426681 0.489862
C11   C     C_R   0.564187 0.057833 0.425229 0.331558
C12   C     C_R   0.477373 0.500743 0.682730 0.751108
C13   C     C_R   0.499071 0.129125 0.504729 -0.162691
C14   C     C_R   0.868093 0.335496 0.370642 -0.075007
C15   C     C_R   0.942486 0.253217 0.305646 -0.290239
C16   C     C_R   0.084269 0.249524 0.303370 -0.207746
C17   C     C_R   0.154207 0.328008 0.365589 0.660743
C18   C     C_R   0.082092 0.416846 0.435056 -0.036885
C19   C     C_R   0.932274 0.418333 0.436025 0.107111
C20   C     C_R   0.918480 0.577724 0.560759 -0.095991
C21   C     C_R   0.065863 0.577848 0.560838 0.695786
C22   C     C_R   0.499859 0.262956 0.501113 0.919801
C23   C     C_R   0.522690 0.499813 0.317289 0.908743
C24   C     C_1   0.536567 0.498791 0.214090 -0.098864
C25   C     C_2   0.562121 0.496880 0.022835 0.433456
C26   C     C_2   0.446549 0.499852 0.976449 -0.158939
C27   C     C_1   0.454566 0.500087 0.872696 0.132928
C28   C     C_1   0.548559 0.497839 0.127192 -0.100692
Cu1   Cu    Cu3+1 0.359340 0.500010 0.500010 1.058062
Cu2   Cu    Cu3+1 0.640660 0.499990 0.499990 0.994160
H1    H     H_    0.344348 0.502627 0.016481 0.126923
H2    H     H_    0.759789 0.329495 0.365872 0.241647
H3    H     H_    0.889422 0.191574 0.256506 0.206413
H4    H     H_    0.141852 0.184200 0.252075 0.198146
H5    H     H_    0.372151 0.785349 0.672842 0.182103
H6    H     H_    0.263163 0.912319 0.810482 0.176748
H7    H     H_    0.371147 0.244196 0.671470 0.149209
H8    H     H_    0.857168 0.641702 0.610729 0.166255
N1    N     N_R   0.852210 0.498790 0.499090 -0.219141
N2    N     N_R   0.148080 0.498710 0.499060 -0.237584
O1    O     O_R   0.381190 0.680360 0.500010 -0.548782
O2    O     O_R   0.618760 0.680340 0.500000 -0.555471
O3    O     O_R   0.364420 0.499990 0.637850 -0.544701
O4    O     O_R   0.601990 0.499960 0.637840 -0.574385
O5    O     O_R   0.381240 0.319660 0.500000 -0.527779
O6    O     O_R   0.618810 0.319640 0.499990 -0.597892
O7    O     O_R   0.398010 0.500040 0.362160 -0.520123
O8    O     O_R   0.635580 0.500010 0.362150 -0.599497
F1    F     F_    0.291358 0.308634 0.351173 -0.650389
F2    F     F_    0.125655 0.658212 0.623623 -0.659008
O9    O     O_3   0.691636 0.493358 0.971236 -0.692015
H9    H     H_    0.763200 0.491567 0.018193 0.338797
F3    F     F_    0.625961 0.857271 0.349982 -0.669643
F4    F     F_    0.250981 0.155699 0.825614 -0.653060
O10   O     O_3   0.622829 0.117375 0.346351 -0.740704
H10   H     H_    0.663958 0.055196 0.296215 0.374146

loop_
_geom_bond_atom_site_label_1
_geom_bond_atom_site_label_2
_ccdc_geom_bond_type
Cu2   N1    S    
C23   C24   S    
C25   O9    S    
C6    C7    A    
Cu1   Cu2   S    
C20   H8    S    
C9    C10   A    
C5    F4    S    
C3    H5    S    
O10   H10   S    
C2    C12   S    
C4    H6    S    
C17   C18   A    
C6    H7    S    
C1    C9    S    
C7    C8    A    
C12   O4    A    
Cu1   O3    S    
C25   C28   S    
C11   C13   A    
Cu2   O4    S    
C26   C27   S    
C2    C27   T    
C21   N2    A    
C19   N1    A    
Cu1   O7    S    
C4    C5    A    
Cu1   N2    S    
C1    O1    A    
C21   F2    S    
C22   O6    A    
C15   H3    S    
C13   C22   S    
C3    C8    A    
C12   O3    A    
C16   H4    S    
C5    C6    A    
Cu1   O5    S    
C23   O7    A    
C10   C11   A    
C17   F1    S    
C15   C16   A    
C24   C28   T    
C1    O2    A    
C7    C13   A    
C22   O5    A    
C11   O10   S    
C20   C21   A    
C18   C19   A    
Cu2   O8    S    
C10   F3    S    
C20   N1    A    
C18   N2    A    
C14   C15   A    
C16   C17   A    
C23   O8    A    
Cu1   O1    S    
C25   C26   D    
C26   H1    S    
C14   C19   A    
Cu2   O6    S    
Cu2   O2    S    
C3    C4    A    
O9    H9    S    
C14   H2    S    
C8    C9    A    
