data_mof_unit_21625.cif
_audit_creation_date              2012-12-10T17:24:10-0500
_audit_creation_method            fapswitch 2.2
_symmetry_space_group_name_H-M    P1
_symmetry_Int_Tables_number       1
_space_group_crystal_system       triclinic
_cell_length_a                    10.196544
_cell_length_b                    10.917531
_cell_length_c                    16.805703
_cell_angle_alpha                 91.865871
_cell_angle_beta                  75.555438
_cell_angle_gamma                 95.299316
_cell_volume                      1803.85967619

loop_
_atom_site_label
_atom_site_type_symbol
_atom_type_description
_atom_site_fract_x
_atom_site_fract_y
_atom_site_fract_z
_atom_type_partial_charge
C1    C     C_R   0.556629 0.731641 0.493174 0.976844
C2    C     C_R   0.520430 0.501735 0.345234 0.883648
C3    C     C_R   0.461885 0.484746 0.742403 -0.084849
C4    C     C_R   0.540188 0.523759 0.258367 -0.093891
C5    C     C_R   0.551221 0.416389 0.769844 -0.152782
C6    C     C_R   0.456695 0.601885 0.233524 -0.146549
C7    C     C_R   0.540055 0.406932 0.852993 -0.226323
C8    C     C_R   0.472531 0.623025 0.150919 -0.206371
C9    C     C_R   0.439934 0.466056 0.909112 -0.005776
C10   C     C_R   0.569713 0.563984 0.092628 -0.032887
C11   C     C_R   0.341962 0.526171 0.883390 0.551093
C12   C     C_R   0.443369 0.268339 0.506823 0.975805
C13   C     C_R   0.657931 0.489479 0.116658 0.555028
C14   C     C_R   0.355449 0.536941 0.798717 -0.317205
C15   C     C_R   0.644956 0.472377 0.200374 -0.300588
C16   C     C_2   0.451690 0.479671 0.994014 0.418827
C17   C     C_2   0.555720 0.556224 0.007967 0.428956
C18   C     C_3   0.729896 0.712472 0.966995 -0.288077
C19   C     C_3   0.291207 0.313935 0.037082 -0.297741
C20   C     C_3   0.115070 0.559667 0.929001 -0.272179
C21   C     C_3   0.720028 0.307914 0.054748 -0.348568
C22   C     C_3   0.712616 0.123614 0.539102 -0.217393
C23   C     C_2   0.585150 0.861559 0.501208 -0.429536
C24   C     C_3   0.288630 0.876132 0.459621 -0.219591
C25   C     C_3   0.144459 0.664482 0.646798 -0.155137
C26   C     C_3   0.855208 0.335687 0.353124 -0.149131
C27   C     C_2   0.414839 0.138350 0.498917 -0.432713
C28   C     C_2   0.500940 0.937077 0.482848 0.422684
C29   C     C_2   0.499571 0.062978 0.516866 0.424653
C30   C     C_2   0.926196 0.511714 0.505280 0.059639
C31   C     C_2   0.073731 0.488154 0.494836 0.059376
C32   C     C_R   0.479851 0.499370 0.654843 0.887392
H1    H     H_    0.631767 0.372787 0.727014 0.168183
H2    H     H_    0.230762 0.266486 0.093556 0.192304
H3    H     H_    0.039719 0.579866 0.986921 0.220035
H4    H     H_    0.094234 0.460843 0.913654 0.153164
H5    H     H_    0.098766 0.619750 0.880892 0.150617
H6    H     H_    0.616592 0.288565 0.044022 0.164891
H7    H     H_    0.726363 0.261760 0.111509 0.163992
H8    H     H_    0.792794 0.267438 0.002354 0.189939
H9    H     H_    0.403189 0.678674 0.131977 0.168774
H10   H     H_    0.614062 0.359463 0.873754 0.159707
H11   H     H_    0.742530 0.110975 0.471009 0.153360
H12   H     H_    0.378064 0.645436 0.277913 0.170258
H13   H     H_    0.770684 0.063970 0.567283 0.147413
H14   H     H_    0.744839 0.219468 0.554269 0.230201
H15   H     H_    0.230731 0.935559 0.431158 0.147726
H16   H     H_    0.257923 0.888698 0.527705 0.155278
H17   H     H_    0.257018 0.780179 0.444291 0.229843
H18   H     H_    0.342410 0.109977 0.463317 0.135316
H19   H     H_    0.656861 0.889732 0.537328 0.136342
H20   H     H_    0.115279 0.413303 0.455337 0.149308
H21   H     H_    0.884583 0.586419 0.544904 0.149138
H22   H     H_    0.250329 0.706804 0.634602 0.187157
H23   H     H_    0.712750 0.415555 0.219696 0.145455
H24   H     H_    0.131332 0.575670 0.679774 0.157146
H25   H     H_    0.080111 0.728495 0.688309 0.131542
H26   H     H_    0.867911 0.424487 0.320190 0.165592
H27   H     H_    0.749413 0.293149 0.365544 0.183084
H28   H     H_    0.919497 0.271785 0.311474 0.131937
H29   H     H_    0.287972 0.590727 0.776779 0.141790
H30   H     H_    0.801062 0.680443 0.000708 0.181894
H31   H     H_    0.664056 0.779680 0.004708 0.152162
H32   H     H_    0.792220 0.761034 0.911452 0.184403
H33   H     H_    0.367195 0.251005 0.004027 0.138832
H34   H     H_    0.219720 0.331923 0.999465 0.181744
N1    N     N_2   0.846390 0.448330 0.467170 0.051127
N2    N     N_2   0.153610 0.551670 0.532830 0.051287
O1    O     O_R   0.430310 0.692580 0.506610 -0.594317
O2    O     O_3   0.354735 0.424974 0.060212 -0.612176
O3    O     O_3   0.246723 0.586405 0.941470 -0.610468
O4    O     O_3   0.756854 0.435374 0.057927 -0.622143
O5    O     O_3   0.571723 0.099445 0.575495 -0.627394
O6    O     O_3   0.429627 0.900864 0.423766 -0.629877
O7    O     O_3   0.100575 0.651169 0.574062 -0.591313
O8    O     O_3   0.899653 0.349110 0.425665 -0.593546
O9    O     O_R   0.569690 0.307420 0.493390 -0.593640
O10   O     O_R   0.652740 0.659410 0.485540 -0.632692
O11   O     O_R   0.347260 0.340590 0.514460 -0.633706
O12   O     O_R   0.375640 0.518570 0.627580 -0.645514
O13   O     O_R   0.624360 0.481430 0.372420 -0.644340
O14   O     O_R   0.598070 0.485390 0.606510 -0.625981
O15   O     O_R   0.401930 0.514610 0.393490 -0.625446
O16   O     O_3   0.651791 0.612143 0.941814 -0.611597
Zn1   Zn    Zn3+2 0.351480 0.522150 0.514070 0.952419
Zn2   Zn    Zn3+2 0.648520 0.477850 0.485930 0.954129

loop_
_geom_bond_atom_site_label_1
_geom_bond_atom_site_label_2
_ccdc_geom_bond_type
N2    Zn1   S    
C27   C29   D    
C25   H24   S    
C31   H20   S    
C28   O6    S    
N2    O7    S    
C28   C29   S    
C9    C16   S    
C30   C31   S    
C11   C14   A    
C11   O3    S    
C18   H31   S    
C29   O5    S    
C10   C17   S    
C12   O11   A    
C19   H34   S    
C7    H10   S    
C20   H3    S    
C21   H6    S    
C16   C17   D    
C5    H1    S    
C18   O16   S    
C20   O3    S    
C26   H27   S    
O13   Zn2   S    
C27   H18   S    
O10   Zn2   S    
C6    H12   S    
C1    O10   A    
C2    O15   A    
C25   H25   S    
C2    O13   A    
C31   N2    D    
C30   H21   S    
C21   O4    S    
C18   H32   S    
C16   O2    S    
C25   H22   S    
C4    C6    A    
C5    C7    A    
C18   H30   S    
C6    C8    A    
C12   C27   S    
O14   Zn2   S    
C14   H29   S    
C19   H2    S    
C1    O1    A    
C25   O7    S    
C24   H16   S    
C2    C4    S    
O12   Zn1   S    
C32   O12   A    
C9    C11   A    
C23   H19   S    
C22   H11   S    
C21   H7    S    
C12   O9    A    
C23   C28   D    
C8    H9    S    
C26   H26   S    
C3    C14   A    
C22   H14   S    
O9    Zn2   S    
C1    C23   S    
C13   C15   A    
C26   O8    S    
O11   Zn1   S    
O1    Zn1   S    
C24   H17   S    
C7    C9    A    
N1    Zn2   S    
O15   Zn1   S    
C24   H15   S    
C30   N1    D    
C3    C5    A    
C10   C13   A    
C13   O4    S    
C32   O14   A    
C17   O16   S    
C4    C15   A    
C20   H5    S    
C24   O6    S    
C21   H8    S    
C19   H33   S    
C3    C32   S    
C20   H4    S    
C22   H13   S    
C8    C10   A    
C19   O2    S    
N1    O8    S    
C22   O5    S    
C26   H28   S    
C15   H23   S    
