data_mof_unit_12619.cif
_audit_creation_date              2012-12-11T13:59:54-0500
_audit_creation_method            fapswitch 2.2
_symmetry_space_group_name_H-M    P1
_symmetry_Int_Tables_number       1
_space_group_crystal_system       triclinic
_cell_length_a                    11.209903
_cell_length_b                    11.269172
_cell_length_c                    18.777101
_cell_angle_alpha                 90.004627
_cell_angle_beta                  90.315737
_cell_angle_gamma                 120.047005
_cell_volume                      2053.23285195

loop_
_atom_site_label
_atom_site_type_symbol
_atom_type_description
_atom_site_fract_x
_atom_site_fract_y
_atom_site_fract_z
_atom_type_partial_charge
Br1   Br    Br    0.084159 0.798126 0.074649 -0.320492
Br2   Br    Br    0.197225 0.296905 0.069674 -0.326561
Br3   Br    Br    0.705760 0.904419 0.071375 -0.324735
Br4   Br    Br    0.803361 0.100722 0.930706 -0.325706
Br5   Br    Br    0.294406 0.199273 0.928533 -0.324870
Br6   Br    Br    0.916459 0.714498 0.925057 -0.318501
C1    C     C_R   0.542945 0.477097 0.853557 0.579897
C2    C     C_R   0.478768 0.546328 0.353322 0.546290
C3    C     C_R   0.068342 0.521954 0.353393 0.548374
C4    C     C_R   0.459131 0.940450 0.350507 0.547685
C5    C     C_2   0.015995 0.510172 0.584199 -0.099316
C6    C     C_2   0.487740 0.504745 0.584030 -0.105773
C7    C     C_2   0.540014 0.092959 0.565632 -0.094709
C8    C     C_2   0.516574 0.028946 0.412771 -0.107907
C9    C     C_2   0.493437 0.520759 0.427462 -0.100690
C10   C     C_2   0.027977 0.507643 0.427425 -0.093211
C11   C     C_2   0.083545 0.454286 0.471938 -0.150276
C12   C     C_R   0.523014 0.065802 0.853574 0.589369
C13   C     C_2   0.543614 0.628979 0.472143 -0.150534
C14   C     C_2   0.445550 0.079618 0.445717 -0.150621
C15   C     C_2   0.474702 0.131287 0.519201 -0.165978
C16   C     C_2   0.565334 0.619207 0.547564 -0.155669
C17   C     C_2   0.051191 0.431809 0.547112 -0.162493
C18   C     C_2   0.000778 0.505583 0.922591 -0.115775
C19   C     C_2   0.495372 0.495019 0.922348 -0.114855
C20   C     C_2   0.505547 0.000711 0.922450 -0.113706
C21   C     C_2   0.504546 0.999643 0.077680 -0.114899
C22   C     C_2   0.494681 0.495318 0.077547 -0.113979
C23   C     C_R   0.934993 0.457503 0.853445 0.578895
C24   C     C_2   0.999323 0.505125 0.077373 -0.116478
C25   C     C_2   0.017134 0.613820 0.037919 0.140286
C26   C     C_2   0.385677 0.406553 0.036970 0.141382
C27   C     C_2   0.594622 0.981224 0.037808 0.142055
C28   C     C_2   0.614626 0.021164 0.963131 0.140452
C29   C     C_2   0.405528 0.386740 0.962225 0.141303
C30   C     C_2   0.983200 0.596820 0.961940 0.140479
C31   C     C_R   0.477060 0.542901 0.146430 0.580162
C32   C     C_R   0.065029 0.522644 0.146545 0.578471
C33   C     C_R   0.457051 0.934199 0.146442 0.577926
C34   C     C_R   0.540959 0.480381 0.649388 0.543655
C35   C     C_R   0.549089 0.130115 0.640170 0.556434
C36   C     C_R   0.938991 0.458266 0.649447 0.544925
Cr1   Cr    Cr6+3 0.464030 0.233680 0.750360 1.086553
Cr2   Cr    Cr6+3 0.766320 0.230350 0.750360 1.089006
Cr3   Cr    Cr6+3 0.769650 0.535970 0.750360 1.088917
Cr4   Cr    Cr6+3 0.233680 0.464030 0.249640 1.088309
Cr5   Cr    Cr6+3 0.230350 0.766320 0.249640 1.093619
Cr6   Cr    Cr6+3 0.535970 0.769650 0.249640 1.089871
H1    H     H_    0.148805 0.415952 0.451907 0.156656
H2    H     H_    0.585126 0.031518 0.549729 0.108795
H3    H     H_    0.394079 0.420930 0.561136 0.096433
H4    H     H_    0.027033 0.604153 0.561966 0.114211
H5    H     H_    0.951220 0.402984 0.054233 0.122854
H6    H     H_    0.598064 0.547119 0.055603 0.119880
H7    H     H_    0.451937 0.050093 0.055250 0.120793
H8    H     H_    0.402085 0.948929 0.944300 0.120117
H9    H     H_    0.547829 0.597864 0.944797 0.121034
H10   H     H_    0.048750 0.451300 0.945803 0.123223
H11   H     H_    0.580027 0.732000 0.452135 0.155545
H12   H     H_    0.354769 0.072911 0.420663 0.158398
H13   H     H_    0.428020 0.190123 0.537601 0.131657
H14   H     H_    0.654570 0.706079 0.571844 0.161133
H15   H     H_    0.047457 0.341963 0.570713 0.157919
H16   H     H_    0.963307 0.547652 0.445792 0.097562
H17   H     H_    0.455388 0.416585 0.445758 0.086190
H18   H     H_    0.612311 0.042414 0.434730 0.100600
O1    O     O_R   0.434100 0.092480 0.829780 -0.461027
O2    O     O_R   0.362730 0.477510 0.175360 -0.460659
O3    O     O_R   0.114780 0.637270 0.175360 -0.461258
O4    O     O_R   0.522490 0.885220 0.175360 -0.461613
O5    O     O_R   0.432250 0.092620 0.670380 -0.497782
O6    O     O_R   0.907380 0.339630 0.670380 -0.522029
O7    O     O_R   0.660370 0.567750 0.670380 -0.509997
O8    O     O_R   0.092620 0.432250 0.329620 -0.515725
O9    O     O_R   0.339630 0.907380 0.329620 -0.511273
O10   O     O_R   0.567750 0.660370 0.329620 -0.512415
O11   O     O_R   0.475790 0.362860 0.676880 -0.524710
O12   O     O_R   0.907520 0.341620 0.829780 -0.464556
O13   O     O_R   0.637140 0.112930 0.676880 -0.498857
O14   O     O_R   0.887070 0.524210 0.676880 -0.502677
O15   O     O_R   0.362860 0.475790 0.323120 -0.506265
O16   O     O_R   0.112930 0.637140 0.323120 -0.497035
O17   O     O_R   0.524210 0.887070 0.323120 -0.508483
O18   O     O_3   0.666667 0.333333 0.749450 -0.303092
O19   O     O_3   0.333333 0.666667 0.250550 -0.283008
O20   O     O_R   0.658380 0.565900 0.829780 -0.464450
O21   O     O_R   0.092480 0.434100 0.170220 -0.463496
O22   O     O_R   0.341620 0.907520 0.170220 -0.467315
O23   O     O_R   0.565900 0.658380 0.170220 -0.464622
O24   O     O_R   0.477510 0.362730 0.824640 -0.461350
O25   O     O_R   0.637270 0.114780 0.824640 -0.456422
O26   O     O_R   0.885220 0.522490 0.824640 -0.459461

loop_
_geom_bond_atom_site_label_1
_geom_bond_atom_site_label_2
_ccdc_geom_bond_type
C36   O14   A    
Cr6   O10   S    
C12   C20   S    
Br1   C25   S    
C7    C35   S    
C21   C27   D    
C9    C13   D    
C18   C30   D    
C12   O25   A    
Cr5   O19   S    
Br2   C26   S    
C3    C10   S    
C24   C25   D    
C21   H7    S    
C1    O20   A    
Br3   C27   S    
C9    H17   S    
C31   O2    A    
C6    C16   D    
C4    O17   A    
C2    O10   A    
C34   O7    A    
C24   C32   S    
C5    C36   S    
Cr3   O7    S    
Cr5   O16   S    
Cr3   O26   S    
C18   C23   S    
Cr5   O3    S    
C5    H4    S    
C20   C28   D    
C23   O12   A    
C21   C33   S    
C10   C11   D    
C14   H12   S    
C15   H13   S    
C3    O16   A    
C35   O5    A    
Cr4   O19   S    
C17   H15   S    
C32   O3    A    
Cr1   O18   S    
C19   H9    S    
C33   O22   A    
C24   H5    S    
Br4   C28   S    
Cr1   O24   S    
C2    O15   A    
C26   C29   S    
C8    C14   D    
C22   C26   D    
C13   C16   S    
C4    C8    S    
C11   H1    S    
C22   H6    S    
C13   H11   S    
C12   O1    A    
C1    O24   A    
C6    C34   S    
Cr4   O2    S    
C16   H14   S    
Cr4   O15   S    
C4    O9    A    
C36   O6    A    
C27   C28   S    
C8    H18   S    
C7    C15   D    
C11   C17   S    
Cr2   O25   S    
C19   C29   D    
C18   H10   S    
C2    C9    S    
Cr6   O23   S    
Cr3   O18   S    
C3    O8    A    
Cr4   O8    S    
C6    H3    S    
Cr4   O21   S    
Cr1   O5    S    
C25   C30   S    
Cr2   O13   S    
Cr6   O4    S    
Cr2   O18   S    
C20   H8    S    
C35   O13   A    
Cr1   O11   S    
C1    C19   S    
Cr6   O17   S    
C31   O23   A    
C32   O21   A    
Cr5   O22   S    
Cr2   O12   S    
Cr3   O20   S    
Cr5   O9    S    
C22   C31   S    
Br5   C29   S    
C5    C17   D    
C33   O4    A    
Br6   C30   S    
Cr2   O6    S    
Cr3   O14   S    
C34   O11   A    
C7    H2    S    
C14   C15   S    
Cr1   O1    S    
Cr6   O19   S    
C10   H16   S    
C23   O26   A    
