data_mof_unit_19519.cif
_audit_creation_date              2012-12-10T17:55:54-0500
_audit_creation_method            fapswitch 2.2
_symmetry_space_group_name_H-M    P1
_symmetry_Int_Tables_number       1
_space_group_crystal_system       triclinic
_cell_length_a                    11.068711
_cell_length_b                    10.831608
_cell_length_c                    9.597274
_cell_angle_alpha                 90.100084
_cell_angle_beta                  103.010624
_cell_angle_gamma                 92.659486
_cell_volume                      1119.80167294

loop_
_atom_site_label
_atom_site_type_symbol
_atom_type_description
_atom_site_fract_x
_atom_site_fract_y
_atom_site_fract_z
_atom_type_partial_charge
C1    C     C_R   0.497621 0.262256 0.499291 0.764387
C2    C     C_R   0.495731 0.737512 0.499034 0.763106
C3    C     C_R   0.262937 0.506845 0.441266 0.712131
C4    C     C_R   0.737185 0.500750 0.558717 0.732759
C5    C     C_R   0.430792 0.411855 0.056471 0.404942
C6    C     C_R   0.584284 0.574272 0.947096 0.396353
C7    C     C_R   0.429844 0.412832 0.906833 0.413443
C8    C     C_R   0.582827 0.575803 0.096496 0.408343
C9    C     C_2   0.128500 0.527765 0.408636 0.296858
C10   C     C_2   0.872856 0.498534 0.593210 0.307692
C11   C     C_2   0.066972 0.507606 0.512175 -0.220413
C12   C     C_2   0.933683 0.522794 0.489436 -0.203633
C13   C     C_R   0.484537 0.063131 0.369817 -0.179228
C14   C     C_R   0.487940 0.936142 0.623481 -0.205274
C15   C     C_R   0.481211 0.935317 0.369352 -0.201513
C16   C     C_R   0.490964 0.063943 0.624269 -0.175046
C17   C     C_R   0.488103 0.871233 0.497261 -0.016198
C18   C     C_R   0.491772 0.128147 0.497897 -0.034862
Cu1   Cu    Cu3+1 0.500000 0.500020 0.640660 1.003952
Cu2   Cu    Cu3+1 0.500000 0.499980 0.359340 0.997940
H1    H     H_    0.883065 0.545875 0.382807 0.227808
H2    H     H_    0.114041 0.472692 0.613811 0.168375
H3    H     H_    0.482010 0.110508 0.270127 0.199917
H4    H     H_    0.485609 0.888705 0.721621 0.142141
H5    H     H_    0.473336 0.887161 0.268964 0.144060
H6    H     H_    0.493493 0.112007 0.723954 0.194895
N1    N     N_R   0.500030 0.500030 0.852080 -0.279211
N2    N     N_R   0.499970 0.499970 0.147920 -0.277598
O1    O     O_R   0.499990 0.319660 0.618740 -0.535806
O2    O     O_R   0.500010 0.680340 0.381260 -0.575052
O3    O     O_R   0.499990 0.319630 0.381170 -0.533624
O4    O     O_R   0.500010 0.680370 0.618830 -0.584744
O5    O     O_R   0.320690 0.500020 0.575130 -0.591815
O6    O     O_R   0.679310 0.499980 0.424870 -0.557637
O7    O     O_R   0.320680 0.499990 0.337560 -0.571723
O8    O     O_R   0.679320 0.500010 0.662440 -0.503889
O9    O     O_3   0.393919 0.303092 0.113687 -0.536894
C19   C     C_3   0.265501 0.296594 0.108357 -0.254840
H7    H     H_    0.225967 0.205835 0.061752 0.153635
H8    H     H_    0.212750 0.369933 0.044859 0.099572
H9    H     H_    0.250567 0.298405 0.218584 0.175004
O10   O     O_3   0.690438 0.618405 0.906241 -0.513243
C20   C     C_3   0.689227 0.746769 0.882068 -0.187612
H10   H     H_    0.774627 0.791807 0.948906 0.151781
H11   H     H_    0.607000 0.792039 0.903486 0.085039
H12   H     H_    0.695519 0.764315 0.770228 0.173272
O11   O     O_3   0.937397 0.478730 0.732423 -0.560468
C21   C     C_3   0.922793 0.352656 0.764489 -0.356522
H13   H     H_    0.954290 0.292193 0.686938 0.140643
H14   H     H_    0.825237 0.326624 0.768193 0.189794
H15   H     H_    0.981569 0.335856 0.872028 0.170681
O12   O     O_3   0.071856 0.592448 0.288472 -0.568890
C22   C     C_3   0.064908 0.522470 0.163155 -0.252980
H16   H     H_    0.053281 0.420984 0.178664 0.113303
H17   H     H_    0.147326 0.546184 0.119164 0.177500
H18   H     H_    0.982312 0.549526 0.082198 0.232055
O13   O     O_3   0.386838 0.307402 0.826026 -0.533578
C23   C     C_3   0.256703 0.303446 0.777755 -0.254269
H19   H     H_    0.233378 0.294952 0.659503 0.166237
H20   H     H_    0.210952 0.384636 0.810139 0.127561
H21   H     H_    0.217004 0.218389 0.817557 0.155461
O14   O     O_3   0.684637 0.627512 0.193408 -0.530978
C24   C     C_3   0.677837 0.756700 0.205576 -0.222872
H22   H     H_    0.685504 0.781510 0.319325 0.175794
H23   H     H_    0.592148 0.795182 0.139893 0.093659
H24   H     H_    0.760178 0.802813 0.177201 0.160323

loop_
_geom_bond_atom_site_label_1
_geom_bond_atom_site_label_2
_ccdc_geom_bond_type
C11   C12   S    
C4    O8    A    
O9    C19   S    
C3    C9    S    
C5    O9    S    
C5    N2    A    
Cu1   N1    S    
C11   H2    S    
Cu1   Cu2   S    
C6    N1    A    
C3    O7    A    
C20   H10   S    
Cu2   O6    S    
C23   H21   S    
C24   H23   S    
C1    C18   S    
C24   H24   S    
C5    C7    A    
C20   H11   S    
C16   C18   A    
Cu2   O2    S    
C22   H16   S    
C2    C17   S    
C19   H8    S    
C9    C11   D    
C14   C17   A    
O13   C23   S    
O14   C24   S    
C9    O12   S    
C10   C12   D    
C13   C18   A    
Cu1   O4    S    
C21   H14   S    
C21   H13   S    
C8    O14   S    
C4    O6    A    
Cu1   O8    S    
C13   C15   A    
C16   H6    S    
C19   H7    S    
C8    N2    A    
C20   H12   S    
C14   C16   A    
C15   H5    S    
O10   C20   S    
C1    O1    A    
C22   H17   S    
C23   H20   S    
C24   H22   S    
Cu1   O1    S    
C1    O3    A    
C7    N1    A    
O12   C22   S    
C13   H3    S    
C19   H9    S    
C2    O4    A    
C6    O10   S    
C22   H18   S    
C14   H4    S    
C10   O11   S    
C15   C17   A    
C3    O5    A    
C2    O2    A    
C6    C8    A    
Cu2   N2    S    
C23   H19   S    
Cu2   O7    S    
C4    C10   S    
C12   H1    S    
C7    O13   S    
C21   H15   S    
O11   C21   S    
Cu1   O5    S    
Cu2   O3    S    
