data_mof_unit_16741.cif
_audit_creation_date              2012-12-10T16:57:08-0500
_audit_creation_method            fapswitch 2.2
_symmetry_space_group_name_H-M    P1
_symmetry_Int_Tables_number       1
_space_group_crystal_system       triclinic
_cell_length_a                    7.78996
_cell_length_b                    8.5331
_cell_length_c                    17.027875
_cell_angle_alpha                 93.139772
_cell_angle_beta                  79.761332
_cell_angle_gamma                 94.028326
_cell_volume                      1110.07807814

loop_
_atom_site_label
_atom_site_type_symbol
_atom_type_description
_atom_site_fract_x
_atom_site_fract_y
_atom_site_fract_z
_atom_type_partial_charge
C1    C     C_R   0.546000 0.794890 0.499453 0.930611
C2    C     C_R   0.598082 0.588479 0.213300 -0.260732
C3    C     C_R   0.591654 0.560252 0.856282 -0.111906
C4    C     C_R   0.610255 0.566575 0.131510 -0.109349
C5    C     C_R   0.434571 0.515937 0.905124 0.048597
C6    C     C_R   0.555504 0.420883 0.099432 0.038909
C7    C     C_R   0.283983 0.476220 0.873395 -0.291473
C8    C     C_R   0.503251 0.293728 0.147670 -0.277831
C9    C     C_R   0.290823 0.469371 0.791190 0.393071
C10   C     C_R   0.493348 0.313212 0.229620 0.452280
C11   C     C_2   0.428899 0.504200 0.990113 -0.069268
C12   C     C_R   0.453329 0.205561 0.504647 1.065531
C13   C     C_2   0.533389 0.404921 0.016361 -0.073042
C14   C     C_R   0.619286 0.272249 0.966579 0.157227
C15   C     C_R   0.787371 0.233795 0.975844 -0.096894
C16   C     C_R   0.863114 0.101840 0.935271 -0.077009
C17   C     C_R   0.772224 0.006640 0.885074 -0.066110
C18   C     C_R   0.604628 0.042107 0.876138 -0.133479
C19   C     C_R   0.527420 0.172782 0.917371 -0.134471
C20   C     C_R   0.307473 0.606234 0.044737 0.136864
C21   C     C_R   0.309951 0.767989 0.032347 -0.168010
C22   C     C_R   0.194160 0.863322 0.082380 -0.096793
C23   C     C_2   0.569777 0.958844 0.501582 -0.374901
C24   C     C_R   0.074606 0.797959 0.144967 -0.049946
C25   C     C_R   0.070227 0.637082 0.157382 -0.128793
C26   C     C_R   0.184972 0.541197 0.107172 -0.140956
C27   C     C_2   0.428443 0.042109 0.508688 -0.277931
C28   C     C_R   0.474446 0.501173 0.653921 0.877539
C29   C     C_R   0.522793 0.491385 0.346981 0.952374
C30   C     C_R   0.453758 0.506530 0.740792 -0.181138
C31   C     C_R   0.535461 0.463848 0.262375 -0.149509
C32   C     C_R   0.600537 0.556110 0.774520 -0.188546
H1    H     H_    0.721683 0.593297 0.737296 0.219589
H2    H     H_    0.977227 0.621699 0.560136 0.217539
H3    H     H_    0.611546 0.993872 0.326808 0.366564
H4    H     H_    0.038520 0.660654 0.751786 0.322834
H5    H     H_    0.860115 0.306075 0.014489 0.118029
H6    H     H_    0.992608 0.073806 0.942592 0.110555
H7    H     H_    0.831020 0.904628 0.853637 0.112119
H8    H     H_    0.533003 0.966409 0.838437 0.133454
H9    H     H_    0.394229 0.192986 0.912613 0.131098
H10   H     H_    0.402290 0.820256 0.984326 0.132543
H11   H     H_    0.197352 0.987915 0.072687 0.122181
H12   H     H_    0.634823 0.702788 0.238446 0.161480
H13   H     H_    0.985161 0.871866 0.183741 0.144858
H14   H     H_    0.977466 0.586414 0.205745 0.154982
H15   H     H_    0.177650 0.416284 0.116648 0.135850
H16   H     H_    0.163100 0.445160 0.913190 0.178296
H17   H     H_    0.464131 0.181486 0.121215 0.180605
H18   H     H_    0.653752 0.664570 0.093508 0.152194
H19   H     H_    0.707222 0.595884 0.881619 0.161331
H20   H     H_    0.703019 0.010358 0.495311 0.197718
H21   H     H_    0.295153 0.990674 0.515161 0.186804
H22   H     H_    0.022755 0.378783 0.439554 0.225083
N1    N     N_2   0.953500 0.457650 0.478520 -0.163421
N2    N     N_2   0.046500 0.542350 0.521480 -0.133656
O1    O     O_R   0.388470 0.738640 0.505270 -0.617113
O2    O     O_2   0.389260 0.005644 0.236916 -0.343009
O3    O     O_3   0.606473 0.109770 0.330204 -0.579072
O4    O     O_2   0.117723 0.280303 0.696095 -0.267029
O5    O     O_2   0.947649 0.372102 0.822692 -0.333031
O6    O     O_3   0.035689 0.572010 0.711839 -0.563259
O7    O     O_R   0.611530 0.261360 0.494730 -0.604382
O8    O     O_R   0.679650 0.711510 0.491500 -0.637189
O9    O     O_R   0.320350 0.288490 0.508500 -0.586453
O10   O     O_R   0.337210 0.515200 0.623500 -0.535255
O11   O     O_R   0.662790 0.484800 0.376500 -0.606733
O12   O     O_R   0.628380 0.488060 0.609730 -0.621405
O13   O     O_R   0.371620 0.511940 0.390270 -0.604932
O14   O     O_2   0.279810 0.177892 0.351735 -0.317506
S1    S     S_3+6 0.434790 0.146514 0.288045 -0.019516
S2    S     S_3+6 0.092651 0.416754 0.755811 0.009389
Zn1   Zn    Zn3+2 0.305580 0.518120 0.509190 1.056585
Zn2   Zn    Zn3+2 0.694420 0.481880 0.490810 1.006367

loop_
_geom_bond_atom_site_label_1
_geom_bond_atom_site_label_2
_ccdc_geom_bond_type
C2    C4    A    
N1    N2    D    
C27   H21   S    
C24   C25   A    
H2    N2    S    
O14   S1    D    
O7    Zn2   S    
C1    O1    A    
C5    C7    A    
C12   O9    A    
C28   O10   A    
C22   H11   S    
C14   C15   A    
C9    S2    S    
O10   Zn1   S    
C10   S1    S    
C28   C30   S    
C17   C18   A    
O6    S2    S    
C29   C31   S    
O11   Zn2   S    
C16   H6    S    
C13   C14   S    
C7    H16   S    
C6    C13   S    
C30   C32   A    
C11   C13   D    
C23   H20   S    
C20   C26   A    
C9    C30   A    
H4    O6    S    
C24   H13   S    
C25   H14   S    
O5    S2    D    
C21   C22   A    
O13   Zn1   S    
C28   O12   A    
C6    C8    A    
C1    C23   S    
C29   O13   A    
C23   C27   D    
C2    C31   A    
C5    C11   S    
C3    C32   A    
O2    S1    D    
H3    O3    S    
C22   C24   A    
C11   C20   S    
C8    H17   S    
C4    C6    A    
O4    S2    D    
C12   C27   S    
O12   Zn2   S    
C21   H10   S    
C1    O8    A    
C19   H9    S    
O9    Zn1   S    
C20   C21   A    
C8    C10   A    
C18   C19   A    
C17   H7    S    
O3    S1    S    
C7    C9    A    
C12   O7    A    
O8    Zn2   S    
H22   N1    S    
C15   H5    S    
C3    H19   S    
N2    Zn1   S    
C26   H15   S    
C18   H8    S    
C25   C26   A    
C29   O11   A    
N1    Zn2   S    
O1    Zn1   S    
C14   C19   A    
C2    H12   S    
C15   C16   A    
C32   H1    S    
C4    H18   S    
C16   C17   A    
C3    C5    A    
C10   C31   A    
