data_mof_unit_28478.cif
_audit_creation_date              2013-03-05T16:41:34-0500
_audit_creation_method            fapswitch 2.2
_symmetry_space_group_name_H-M    P1
_symmetry_Int_Tables_number       1
_space_group_crystal_system       triclinic
_cell_length_a                    12.868784
_cell_length_b                    10.601288
_cell_length_c                    9.863025
_cell_angle_alpha                 90.311454
_cell_angle_beta                  96.757278
_cell_angle_gamma                 90.272745
_cell_volume                      1336.18347208

loop_
_atom_site_label
_atom_site_type_symbol
_atom_site_description
_atom_site_fract_x
_atom_site_fract_y
_atom_site_fract_z
_atom_type_partial_charge
O1    O     O_R   0.500010 0.316790 0.614690 -0.619289
O2    O     O_R   0.500000 0.316760 0.385350 -0.558759
C1    C     C_R   0.512609 0.260760 0.501115 0.909131
O3    O     O_R   0.346360 0.499990 0.595720 -0.634951
O4    O     O_R   0.346350 0.499960 0.366370 -0.621978
C2    C     C_R   0.298546 0.499889 0.473540 0.894624
Zn1   Zn    Zn3+2 0.500010 0.500020 0.653130 0.983979
Zn2   Zn    Zn3+2 0.499990 0.499980 0.346870 1.046482
O5    O     O_R   0.500000 0.683240 0.614650 -0.626172
O6    O     O_R   0.499990 0.683210 0.385310 -0.630399
O7    O     O_R   0.653650 0.500040 0.633630 -0.622905
O8    O     O_R   0.653640 0.500010 0.404280 -0.557404
C3    C     C_R   0.504286 0.740657 0.500769 0.918265
C4    C     C_R   0.701695 0.503569 0.526357 0.936976
C5    C     C_R   0.813902 0.506152 0.542229 -0.166133
C6    C     C_R   0.187357 0.508289 0.457384 -0.012436
C7    C     C_R   0.030511 0.601782 0.347626 -0.112058
C8    C     C_R   0.136646 0.580727 0.352235 -0.185016
C9    C     C_R   0.133189 0.453632 0.555845 -0.223959
C10   C     C_R   0.027173 0.473318 0.552121 0.129068
C11   C     C_R   0.974305 0.547486 0.446546 0.056710
C12   C     C_R   0.866951 0.565825 0.443220 0.268584
C13   C     C_R   0.867490 0.437464 0.648893 -0.198825
C14   C     C_R   0.974113 0.421085 0.653884 -0.171192
H1    H     H_    0.826143 0.391740 0.724873 0.208171
H2    H     H_    0.994205 0.662128 0.267888 0.204083
H3    H     H_    0.014686 0.365509 0.735432 0.173975
H4    H     H_    0.179800 0.625165 0.277280 0.155485
H5    H     H_    0.174063 0.397117 0.636387 0.146899
C15   C     C_R   0.561912 0.065301 0.625236 0.038764
C16   C     C_R   0.545250 0.131115 0.502551 -0.274079
C17   C     C_R   0.554937 0.063901 0.379835 0.315807
C18   C     C_R   0.543319 0.933330 0.380725 -0.198966
H6    H     H_    0.541811 0.881417 0.285575 0.209068
C19   C     C_R   0.528823 0.871899 0.502797 -0.148985
C20   C     C_R   0.551774 0.937268 0.625077 0.098812
C21   C     C_3   0.508829 0.934331 0.759241 -0.500883
C22   C     C_3   0.524202 0.077535 0.762420 0.165434
H7    H     H_    0.425061 0.905489 0.748598 0.186462
H8    H     H_    0.560101 0.882186 0.838240 0.239316
H9    H     H_    0.450631 0.132098 0.763235 0.127863
C23   C     C_R   0.438686 0.416320 0.061756 0.258929
N1    N     N_R   0.499290 0.499140 0.142710 -0.154093
C24   C     C_R   0.564535 0.577596 0.082212 -0.048379
H10   H     H_    0.613640 0.643609 0.144368 0.215028
C25   C     C_R   0.565450 0.576638 0.938485 -0.083197
H11   H     H_    0.616880 0.640313 0.892408 0.165397
N2    N     N_R   0.499290 0.499180 0.857070 -0.114884
C26   C     C_R   0.437880 0.417352 0.918822 0.265899
C27   C     C_3   0.321427 0.409279 0.894699 -0.628648
C28   C     C_3   0.321961 0.409006 0.048941 0.055494
H12   H     H_    0.285683 0.495834 0.846644 0.204005
H13   H     H_    0.294256 0.319638 0.842930 0.234225
H14   H     H_    0.285186 0.493817 0.089726 0.123209
N3    N     N_R   0.811733 0.643646 0.339973 0.195148
O9    O     O_R   0.758587 0.740333 0.374721 -0.405354
O10   O     O_R   0.808621 0.612729 0.211672 -0.397913
N4    N     N_R   0.609447 0.119749 0.864515 0.275998
O11   O     O_R   0.697354 0.058334 0.882923 -0.331396
O12   O     O_R   0.603154 0.228391 0.924423 -0.329054
N5    N     N_R   0.284505 0.290313 0.101203 0.253157
O13   O     O_R   0.320742 0.182383 0.064885 -0.342812
O14   O     O_R   0.213862 0.292324 0.185241 -0.364626
N6    N     N_R   0.572402 0.124874 0.254767 0.247537
O15   O     O_R   0.645848 0.209764 0.255184 -0.313266
O16   O     O_R   0.530421 0.078576 0.138565 -0.329975

loop_
_geom_bond_atom_site_label_1
_geom_bond_atom_site_label_2
_geom_bond_distance
_ccdc_geom_bond_type
O4    Zn2   2.008890 S    
C27   H12   1.111599 S    
C13   C14   1.379028 A    
C14   H3    1.084396 S    
C12   N3    1.437696 S    
C2    C6    1.424218 S    
Zn1   O7    2.008889 S    
C16   C17   1.419573 A    
C28   N5    1.463241 S    
Zn2   N1    2.012567 S    
C15   C20   1.362920 A    
C23   C28   1.494129 S    
Zn2   O8    1.991685 S    
C28   H14   1.113150 S    
Zn1   N2    2.012644 S    
N3    O9    1.301485 A    
C5    C13   1.398196 A    
C7    C8    1.380506 A    
O8    C4    1.287501 A    
C5    C12   1.406890 A    
C21   H7    1.111972 S    
O1    Zn1   1.977105 S    
C11   C12   1.392633 A    
C17   C18   1.391759 A    
C1    C16   1.438731 S    
C15   C16   1.395184 A    
C17   N6    1.436145 S    
C21   C22   1.529721 S    
O3    Zn1   1.991686 S    
O4    C2    1.284046 A    
C7    H2    1.080705 S    
N6    O15   1.301616 A    
Zn2   O6    1.977103 S    
C20   C21   1.493244 S    
C18   C19   1.403118 A    
C18   H6    1.083504 S    
C3    C19   1.424766 S    
C21   H8    1.111408 S    
O2    C1    1.283415 A    
N3    O10   1.301463 A    
N1    C24   1.367274 A    
C6    C9    1.387926 A    
N5    O13   1.301885 A    
O7    C4    1.287346 A    
C25   N2    1.367213 A    
C27   H13   1.111578 S    
C23   N1    1.362339 A    
C23   C26   1.408680 A    
N4    O12   1.298828 A    
C9    H5    1.084677 S    
C10   C14   1.394272 A    
C13   H1    1.083972 S    
C8    H4    1.083875 S    
C10   C11   1.418681 A    
C15   C22   1.495417 S    
C22   H9    1.112645 S    
C6    C8    1.394745 A    
C26   C27   1.491440 S    
C25   H11   1.081713 S    
O2    Zn2   1.981121 S    
Zn1   O5    1.981121 S    
O5    C3    1.287179 A    
C4    C5    1.434108 S    
N2    C26   1.364002 A    
C19   C20   1.388231 A    
C27   C28   1.520526 S    
N4    O11   1.302526 A    
C22   N4    1.465657 S    
O3    C2    1.286962 A    
N5    O14   1.300476 A    
C7    C11   1.405196 A    
C24   H10   1.079292 S    
C9    C10   1.377394 A    
C24   C25   1.418997 A    
O1    C1    1.292423 A    
O6    C3    1.283781 A    
N6    O16   1.300760 A    
