data_mof_unit_43941.cif
_audit_creation_date              2012-10-26T19:45:34-0400
_audit_creation_method            fapswitch 2.2
_symmetry_space_group_name_H-M    P1
_symmetry_Int_Tables_number       1
_space_group_crystal_system       triclinic
_cell_length_a                    10.816491
_cell_length_b                    9.57055
_cell_length_c                    10.723563
_cell_angle_alpha                 90.873872
_cell_angle_beta                  91.287037
_cell_angle_gamma                 89.837788
_cell_volume                      1109.68817293

loop_
_atom_site_label
_atom_site_type_symbol
_atom_type_description
_atom_site_fract_x
_atom_site_fract_y
_atom_site_fract_z
_atom_type_partial_charge
C1    C     C_R   0.262309 0.500126 0.498605 0.535590
C2    C     C_R   0.425670 0.924675 0.418969 -0.040204
C3    C     C_R   0.573371 0.927026 0.583670 0.269715
C4    C     C_R   0.578479 0.076736 0.578276 0.272055
C5    C     C_R   0.495084 0.499100 0.259939 0.538095
C6    C     C_R   0.737757 0.499999 0.498138 0.546948
C7    C     C_R   0.494580 0.500106 0.739894 0.546345
C8    C     C_3   0.416495 0.624073 0.072029 -0.236320
C9    C     C_3   0.431217 0.361454 0.068578 -0.234010
C10   C     C_3   0.414764 0.623134 0.928654 -0.235825
C11   C     C_3   0.428836 0.362508 0.924699 -0.232003
C12   C     C_3   0.625530 0.500459 0.931344 -0.233711
C13   C     C_3   0.625713 0.507477 0.074827 -0.234990
C14   C     C_3   0.491927 0.497581 0.121887 0.054782
C15   C     C_3   0.491135 0.497937 0.877941 0.050473
C16   C     C_3   0.626590 0.897012 0.804938 -0.316754
C17   C     C_3   0.795232 0.130439 0.630518 -0.300668
C18   C     C_R   0.063626 0.381623 0.454196 -0.146735
C19   C     C_R   0.064710 0.620771 0.533553 -0.145487
C20   C     C_R   0.935489 0.382421 0.452252 -0.156036
C21   C     C_R   0.936858 0.620764 0.533029 -0.141596
C22   C     C_R   0.871724 0.500815 0.494547 0.014494
C23   C     C_R   0.128480 0.500607 0.495730 0.019425
C24   C     C_R   0.424200 0.072961 0.420379 -0.041762
Cu1   Cu    Cu3+1 0.500020 0.640660 0.500000 0.943959
Cu2   Cu    Cu3+1 0.500020 0.359340 0.500000 0.939050
H1    H     H_    0.457920 0.724110 0.106703 0.126108
H2    H     H_    0.682970 0.420512 0.112972 0.112003
H3    H     H_    0.678771 0.588736 0.894758 0.112060
H4    H     H_    0.674869 0.403955 0.900895 0.110565
H5    H     H_    0.111781 0.288861 0.422123 0.118019
H6    H     H_    0.113507 0.713860 0.565366 0.123521
H7    H     H_    0.886432 0.291017 0.417354 0.118724
H8    H     H_    0.889529 0.714002 0.564092 0.108270
H9    H     H_    0.363029 0.127609 0.356413 0.109067
H10   H     H_    0.365883 0.868224 0.353684 0.113443
H11   H     H_    0.733773 0.835542 0.653370 0.231139
H12   H     H_    0.484024 0.268242 0.100843 0.126723
H13   H     H_    0.697420 0.973896 0.836006 0.111280
H14   H     H_    0.640581 0.806835 0.865899 0.136935
H15   H     H_    0.532469 0.940546 0.819372 0.128716
H16   H     H_    0.641806 0.173867 0.743783 0.231300
H17   H     H_    0.833381 0.049119 0.692918 0.105939
H18   H     H_    0.846955 0.228186 0.651337 0.156040
H19   H     H_    0.810335 0.098379 0.531983 0.136561
H20   H     H_    0.320091 0.620016 0.106004 0.107615
H21   H     H_    0.335229 0.351931 0.102720 0.106817
H22   H     H_    0.317504 0.615425 0.893048 0.107963
H23   H     H_    0.331594 0.356177 0.888873 0.113994
H24   H     H_    0.450537 0.723772 0.895959 0.131359
H25   H     H_    0.477957 0.267845 0.889853 0.119262
H26   H     H_    0.668777 0.607278 0.107858 0.117573
N1    N     N_R   0.500030 0.852070 0.500030 -0.225090
N2    N     N_R   0.500030 0.147930 0.500030 -0.224608
N3    N     N_2   0.643346 0.854199 0.675986 -0.455099
N4    N     N_2   0.665191 0.154424 0.652628 -0.458234
O1    O     O_R   0.319660 0.618740 0.499990 -0.512492
O2    O     O_R   0.319660 0.381260 0.499990 -0.511867
O3    O     O_R   0.499990 0.618790 0.317690 -0.513448
O4    O     O_R   0.499990 0.381210 0.317690 -0.513757
O5    O     O_R   0.680370 0.618830 0.500010 -0.497526
O6    O     O_R   0.680370 0.381170 0.500010 -0.473063
O7    O     O_R   0.500030 0.618780 0.682310 -0.470089
O8    O     O_R   0.500030 0.381220 0.682310 -0.500551

loop_
_geom_bond_atom_site_label_1
_geom_bond_atom_site_label_2
_ccdc_geom_bond_type
C19   C23   A    
C9    C14   S    
C17   H17   S    
C13   H2    S    
C1    C23   S    
Cu1   O3    S    
C11   H23   S    
C1    O1    A    
C12   H3    S    
C13   H26   S    
C9    C11   S    
C12   C15   S    
H16   N4    S    
C6    O6    A    
C11   C15   S    
C7    C15   S    
Cu2   O6    S    
C17   H18   S    
C10   H24   S    
Cu1   O5    S    
C13   C14   S    
C4    N4    S    
C2    C24   A    
C3    N1    A    
C17   N4    S    
C7    O7    A    
C5    C14   S    
Cu2   O4    S    
C16   H14   S    
C20   H7    S    
Cu2   N2    S    
C6    O5    A    
C9    H12   S    
C19   C21   A    
C17   H19   S    
C9    H21   S    
C18   C20   A    
C10   C15   S    
C20   C22   A    
C10   H22   S    
C8    H20   S    
C7    O8    A    
C16   N3    S    
C24   H9    S    
C11   H25   S    
C19   H6    S    
C16   H13   S    
C24   N2    A    
C18   C23   A    
C6    C22   S    
C1    O2    A    
Cu1   O1    S    
C12   C13   S    
C8    C10   S    
Cu1   O7    S    
C2    H10   S    
C8    H1    S    
C5    O3    A    
Cu2   O8    S    
C21   H8    S    
C8    C14   S    
C5    O4    A    
C12   H4    S    
Cu1   Cu2   S    
C21   C22   A    
C3    N3    S    
C16   H15   S    
Cu2   O2    S    
C4    N2    A    
C3    C4    A    
C18   H5    S    
Cu1   N1    S    
C2    N1    A    
H11   N3    S    
