data_mof_unit_50381.cif
_audit_creation_date              2012-12-10T17:44:29-0500
_audit_creation_method            fapswitch 2.2
_symmetry_space_group_name_H-M    P1
_symmetry_Int_Tables_number       1
_space_group_crystal_system       triclinic
_cell_length_a                    9.947853
_cell_length_b                    10.633961
_cell_length_c                    15.291263
_cell_angle_alpha                 92.819379
_cell_angle_beta                  68.682306
_cell_angle_gamma                 95.336991
_cell_volume                      1500.17176648

loop_
_atom_site_label
_atom_site_type_symbol
_atom_type_description
_atom_site_fract_x
_atom_site_fract_y
_atom_site_fract_z
_atom_type_partial_charge
C1    C     C_R   0.510156 0.740116 0.491892 0.873895
C2    C     C_R   0.631912 0.683448 0.083535 0.085932
C3    C     C_R   0.550155 0.565187 0.106179 -0.057285
C4    C     C_R   0.409721 0.500865 0.676430 0.898672
C5    C     C_R   0.725550 0.725641 0.130381 -0.109949
C6    C     C_R   0.729016 0.655573 0.203931 -0.273660
C7    C     C_R   0.577621 0.485093 0.167532 0.384274
C8    C     C_R   0.448724 0.833990 0.334748 -0.117274
C9    C     C_R   0.406925 0.879973 0.266899 -0.239224
C10   C     C_R   0.371545 0.003047 0.273672 -0.061015
C11   C     C_R   0.371389 0.081197 0.350712 0.422923
C12   C     C_R   0.376598 0.536579 0.929791 0.100041
C13   C     C_R   0.440070 0.043792 0.413116 -0.049825
C14   C     C_R   0.471444 0.914684 0.404573 0.064205
C15   C     C_R   0.537936 0.869896 0.461737 -0.198731
C16   C     C_R   0.497436 0.258240 0.490663 0.945807
C17   C     C_R   0.625372 0.953963 0.492430 0.442755
C18   C     C_R   0.564433 0.064654 0.528077 -0.288357
C19   C     C_R   0.486717 0.120079 0.481110 -0.102202
C20   C     C_R   0.861062 0.623068 0.643534 0.251029
C21   C     C_R   0.909426 0.627826 0.721646 0.353560
C22   C     C_R   0.977025 0.524876 0.735330 -0.380885
C23   C     C_R   0.261239 0.443811 0.971063 0.134026
C24   C     C_R   0.026323 0.435716 0.663516 0.419484
C25   C     C_R   0.020266 0.465866 0.577147 0.077038
C26   C     C_R   0.890776 0.514597 0.581314 -0.028926
C27   C     C_R   0.974337 0.506207 0.418102 0.014513
C28   C     C_R   0.590561 0.502188 0.324027 0.898629
C29   C     C_R   0.118343 0.518159 0.419170 0.036000
C30   C     C_R   0.350761 0.492881 0.779092 -0.072145
C31   C     C_R   0.647153 0.539178 0.226216 -0.149471
C32   C     C_R   0.183758 0.385931 0.918145 -0.117650
C33   C     C_R   0.229736 0.409815 0.822803 -0.177152
C34   C     C_R   0.454013 0.592927 0.984279 0.041535
C35   C     C_R   0.421038 0.559766 0.833133 -0.205363
C36   C     C_R   0.444600 0.531793 0.066188 0.073195
C37   C     C_R   0.323260 0.447570 0.109597 -0.119823
C38   C     C_R   0.229727 0.406260 0.063214 -0.183925
C39   C     C_R   0.536066 0.709519 0.961866 -0.152158
C40   C     C_R   0.617551 0.757791 0.015041 -0.087934
H1    H     H_    0.328177 0.032191 0.223113 0.199781
H2    H     H_    0.887823 0.107881 0.497451 0.386711
H3    H     H_    0.473955 0.736902 0.327935 0.141791
H4    H     H_    0.396105 0.818558 0.210862 0.161419
H5    H     H_    0.134845 0.118207 0.513525 0.392768
H6    H     H_    0.611530 0.121221 0.572319 0.184968
H7    H     H_    0.869725 0.958955 0.643026 0.416489
H8    H     H_    0.806879 0.935044 0.832106 0.391621
H9    H     H_    0.493389 0.165979 0.087812 0.377397
H10   H     H_    0.110804 0.115961 0.692116 0.402863
H11   H     H_    0.674907 0.850503 0.999682 0.180670
H12   H     H_    0.958161 0.509455 0.352080 0.140099
H13   H     H_    0.093602 0.316500 0.948917 0.193677
H14   H     H_    0.176387 0.357287 0.782009 0.230192
H15   H     H_    0.530206 0.766791 0.907120 0.200572
H16   H     H_    0.990831 0.513860 0.801435 0.238056
H17   H     H_    0.208750 0.535922 0.354262 0.133245
H18   H     H_    0.785552 0.696676 0.248216 0.219978
H19   H     H_    0.516176 0.622151 0.798115 0.182687
H20   H     H_    0.299507 0.415066 0.179973 0.213654
H21   H     H_    0.138856 0.338773 0.096919 0.189944
H22   H     H_    0.787359 0.816521 0.114881 0.190212
N1    N     N_R   0.856800 0.501200 0.500850 -0.072914
N2    N     N_R   0.142390 0.501280 0.500880 -0.096866
O1    O     O_R   0.385310 0.683220 0.500000 -0.615615
O2    O     O_2   0.812893 0.088164 0.348776 -0.258166
O3    O     O_3   0.913864 0.022517 0.471913 -0.449024
O4    O     O_2   0.313764 0.314431 0.333793 -0.290895
O5    O     O_2   0.131906 0.150794 0.330547 -0.232749
O6    O     O_3   0.151556 0.205995 0.490824 -0.476101
O7    O     O_2   0.868477 0.754518 0.498362 -0.223123
O8    O     O_2   0.672046 0.789203 0.649679 -0.329127
O9    O     O_3   0.933421 0.888670 0.622178 -0.458553
O10   O     O_2   0.907718 0.720148 0.888224 -0.307671
O11   O     O_2   0.055906 0.838296 0.749074 -0.257325
O12   O     O_R   0.614640 0.683250 0.500010 -0.525431
O13   O     O_3   0.777581 0.852417 0.808757 -0.550011
O14   O     O_2   0.724079 0.316882 0.044042 -0.262508
O15   O     O_2   0.645654 0.261466 0.209210 -0.297050
O16   O     O_3   0.455786 0.239228 0.129247 -0.558358
O17   O     O_2   0.911049 0.269086 0.803483 -0.289515
O18   O     O_2   0.891781 0.209539 0.652025 -0.322116
O19   O     O_3   0.142081 0.203240 0.669048 -0.567679
O20   O     O_R   0.319840 0.499980 0.632240 -0.614482
O21   O     O_R   0.549160 0.500000 0.632250 -0.596419
O22   O     O_R   0.385360 0.316750 0.499990 -0.512242
O23   O     O_R   0.614690 0.316780 0.500000 -0.604658
O24   O     O_R   0.450840 0.500000 0.367750 -0.610400
O25   O     O_R   0.680160 0.500020 0.367760 -0.614507
O26   O     O_2   0.854384 0.866589 0.352115 -0.261084
S1    S     S_3+6 0.804722 0.981605 0.412151 0.112953
S2    S     S_3+6 0.240752 0.191622 0.375557 0.059492
S3    S     S_3+6 0.828992 0.765311 0.602405 0.104574
S4    S     S_3+6 0.914075 0.761944 0.794286 0.057839
S5    S     S_3+6 0.602653 0.322477 0.137707 0.045769
S6    S     S_3+6 0.988178 0.276035 0.698831 0.023074
Zn1   Zn    Zn3+2 0.346880 0.499980 0.499990 1.065266
Zn2   Zn    Zn3+2 0.653120 0.500020 0.500010 1.072273

loop_
_geom_bond_atom_site_label_1
_geom_bond_atom_site_label_2
_ccdc_geom_bond_type
C20   S3    S    
C27   C29   A    
O10   S4    D    
C17   S1    S    
C8    H3    S    
O9    S3    S    
C12   C23   A    
C30   C35   A    
O20   Zn1   S    
C36   C37   A    
N1    Zn2   S    
C3    C7    A    
C24   S6    S    
C5    C6    A    
C21   S4    S    
O12   Zn2   S    
O13   S4    S    
C35   H19   S    
C18   C19   A    
O22   Zn1   S    
C6    H18   S    
O21   Zn2   S    
C11   S2    S    
C39   H15   S    
C8    C9    A    
C28   O24   A    
C16   O23   A    
C1    O1    A    
C28   O25   A    
C1    C15   S    
O5    S2    D    
C9    C10   A    
O24   Zn1   S    
O23   Zn2   S    
C6    C31   A    
C29   N2    A    
C13   C14   A    
C10   H1    S    
C16   O22   A    
C18   H6    S    
H10   O19   S    
C7    C31   A    
C13   C19   A    
C34   C39   A    
O18   S6    D    
C24   C25   A    
H7    O9    S    
C39   C40   A    
O17   S6    D    
C22   H16   S    
C4    O21   A    
C25   C26   A    
C12   C35   A    
C25   N2    A    
H8    O13   S    
C26   N1    A    
O15   S5    D    
C37   C38   A    
C4    O20   A    
O14   S5    D    
O3    S1    S    
C17   C18   A    
O16   S5    S    
C27   N1    A    
O8    S3    D    
N2    Zn1   S    
C29   H17   S    
H2    O3    S    
C22   C24   A    
C2    C5    A    
C12   C34   A    
C40   H11   S    
C32   H13   S    
C27   H12   S    
C33   H14   S    
C15   C17   A    
C9    H4    S    
C8    C14   A    
C30   C33   A    
H5    O6    S    
C1    O12   A    
C28   C31   S    
O6    S2    S    
O2    S1    D    
O7    S3    D    
C23   C38   A    
C7    S5    S    
H9    O16   S    
O25   Zn2   S    
C23   C32   A    
C38   H21   S    
C2    C3    A    
O1    Zn1   S    
C32   C33   A    
C11   C13   A    
O26   S1    D    
C20   C26   A    
C3    C36   A    
C16   C19   S    
O19   S6    S    
O4    S2    D    
C5    H22   S    
C34   C36   A    
C37   H20   S    
C10   C11   A    
C2    C40   A    
C20   C21   A    
C14   C15   A    
C21   C22   A    
C4    C30   S    
O11   S4    D    
