data_mof_unit_23937.cif
_audit_creation_date              2012-12-10T18:56:00-0500
_audit_creation_method            fapswitch 2.2
_symmetry_space_group_name_H-M    P1
_symmetry_Int_Tables_number       1
_space_group_crystal_system       triclinic
_cell_length_a                    10.704985
_cell_length_b                    9.84152
_cell_length_c                    15.018902
_cell_angle_alpha                 90.03339
_cell_angle_beta                  90.087355
_cell_angle_gamma                 90.006623
_cell_volume                      1582.28912975

loop_
_atom_site_label
_atom_site_type_symbol
_atom_type_description
_atom_site_fract_x
_atom_site_fract_y
_atom_site_fract_z
_atom_type_partial_charge
C1    C     C_R   0.259887 0.499989 0.499967 1.021177
C2    C     C_R   0.936128 0.623861 0.503696 -0.144472
C3    C     C_R   0.936082 0.376071 0.497789 -0.155879
C4    C     C_R   0.063889 0.623870 0.503293 -0.117307
C5    C     C_R   0.392517 0.538670 0.094364 -0.203752
C6    C     C_R   0.606379 0.540923 0.905839 -0.202489
C7    C     C_R   0.393481 0.456178 0.905162 -0.200488
C8    C     C_R   0.606645 0.457742 0.094707 -0.199229
C9    C     C_R   0.390040 0.535897 0.186543 0.398102
C10   C     C_R   0.609211 0.538132 0.813669 0.396178
C11   C     C_R   0.391149 0.459813 0.812994 0.316301
C12   C     C_R   0.740104 0.500001 0.500216 1.018578
C13   C     C_R   0.609241 0.461418 0.186885 0.392747
C14   C     C_R   0.499803 0.499428 0.232779 -0.307327
C15   C     C_R   0.500144 0.499674 0.767250 -0.301973
C16   C     C_R   0.499626 0.498212 0.048427 0.003199
C17   C     C_R   0.499801 0.498434 0.951611 0.014749
C18   C     C_R   0.872571 0.499980 0.500590 -0.021093
C19   C     C_R   0.127400 0.499970 0.500460 0.026896
C20   C     C_R   0.499875 0.499903 0.328211 1.057296
C21   C     C_R   0.500283 0.499977 0.671800 1.048752
C22   C     C_R   0.594329 0.072019 0.540069 -0.030390
C23   C     C_R   0.405578 0.928084 0.460058 -0.041889
C24   C     C_R   0.405685 0.071919 0.459908 -0.029153
C25   C     C_R   0.594443 0.928192 0.539905 -0.039291
C26   C     C_R   0.063841 0.376048 0.498098 -0.145778
H1    H     H_    0.669715 0.126483 0.572219 0.149338
H2    H     H_    0.887631 0.720415 0.506134 0.178279
H3    H     H_    0.887553 0.279514 0.495396 0.183385
H4    H     H_    0.112423 0.720442 0.505372 0.169707
H5    H     H_    0.113311 0.435901 0.305547 0.388184
H6    H     H_    0.887748 0.443641 0.694324 0.409816
H7    H     H_    0.194626 0.632507 0.742499 0.373803
H8    H     H_    0.887284 0.557035 0.306837 0.388371
H9    H     H_    0.329930 0.873802 0.428245 0.173392
H10   H     H_    0.330321 0.126307 0.427732 0.148597
H11   H     H_    0.670151 0.874014 0.571641 0.173467
H12   H     H_    0.310506 0.571567 0.058107 0.202679
H13   H     H_    0.687785 0.575299 0.942235 0.204162
H14   H     H_    0.311977 0.421134 0.940978 0.205424
H15   H     H_    0.688503 0.424147 0.058701 0.205981
H16   H     H_    0.112337 0.279480 0.495895 0.176972
N1    N     N_R   0.500000 0.857200 0.500000 -0.098067
N2    N     N_R   0.500000 0.142800 0.500000 -0.089567
O1    O     O_R   0.316770 0.614620 0.499990 -0.630171
O2    O     O_2   0.145842 0.602270 0.174844 -0.251765
O3    O     O_3   0.205043 0.428879 0.298288 -0.585799
O4    O     O_2   0.736716 0.690063 0.695860 -0.317763
O5    O     O_2   0.852402 0.608589 0.825932 -0.249152
O6    O     O_3   0.796311 0.434191 0.702268 -0.576470
O7    O     O_2   0.266603 0.303992 0.695670 -0.260763
O8    O     O_2   0.147318 0.387890 0.822934 -0.240641
O9    O     O_3   0.204526 0.558792 0.698147 -0.577087
O10   O     O_2   0.736125 0.310033 0.305736 -0.290467
O11   O     O_2   0.852478 0.390785 0.175951 -0.254105
O12   O     O_R   0.683230 0.385380 0.500010 -0.623331
O13   O     O_3   0.795786 0.565969 0.298881 -0.573774
O14   O     O_R   0.683230 0.614620 0.500010 -0.622305
O15   O     O_R   0.316770 0.385380 0.499990 -0.624225
O16   O     O_R   0.499990 0.614660 0.369060 -0.585160
O17   O     O_R   0.500010 0.385340 0.630940 -0.582903
O18   O     O_R   0.500010 0.614660 0.630940 -0.597343
O19   O     O_R   0.499990 0.385340 0.369060 -0.587625
O20   O     O_2   0.260964 0.685764 0.304717 -0.319051
S1    S     S_3+6 0.246444 0.568762 0.241319 0.027435
S2    S     S_3+6 0.752581 0.573345 0.759215 0.039353
S3    S     S_3+6 0.248688 0.422365 0.757542 0.040142
S4    S     S_3+6 0.752350 0.426431 0.242119 0.035157
Zn1   Zn    Zn3+2 0.500000 0.653120 0.500000 1.049479
Zn2   Zn    Zn3+2 0.500000 0.346880 0.500000 1.060944

loop_
_geom_bond_atom_site_label_1
_geom_bond_atom_site_label_2
_ccdc_geom_bond_type
O17   Zn2   S    
C6    C10   A    
H8    O13   S    
C2    C4    A    
C7    H14   S    
O14   Zn1   S    
C5    C9    A    
C8    C13   A    
C20   O16   A    
C2    H2    S    
C23   H9    S    
C24   H10   S    
O19   Zn2   S    
C23   C24   A    
C4    H4    S    
C12   O14   A    
O20   S1    D    
C25   N1    A    
C20   O19   A    
C1    O15   A    
O11   S4    D    
C23   N1    A    
C8    C16   A    
O7    S3    D    
C13   C14   A    
C7    C11   A    
O6    S2    S    
H6    O6    S    
C21   O18   A    
C12   O12   A    
O8    S3    D    
C11   C15   A    
O16   Zn1   S    
O2    S1    D    
O9    S3    S    
O18   Zn1   S    
C22   C25   A    
C11   S3    S    
O12   Zn2   S    
C10   C15   A    
C10   S2    S    
H7    O9    S    
C22   H1    S    
C24   N2    A    
C9    S1    S    
C1    C19   S    
C2    C18   A    
O5    S2    D    
O15   Zn2   S    
O1    Zn1   S    
C6    C17   A    
C14   C20   S    
C15   C21   S    
C3    H3    S    
O10   S4    D    
C8    H15   S    
C26   H16   S    
C3    C18   A    
N1    Zn1   S    
C1    O1    A    
C12   C18   S    
C19   C26   A    
C9    C14   A    
C6    H13   S    
C5    C16   A    
H5    O3    S    
O13   S4    S    
O4    S2    D    
C5    H12   S    
C4    C19   A    
C21   O17   A    
O3    S1    S    
C3    C26   A    
C22   N2    A    
N2    Zn2   S    
C25   H11   S    
C16   C17   S    
C7    C17   A    
C13   S4    S    
