data_mof_unit_34414.cif
_audit_creation_date              2012-12-10T18:28:21-0500
_audit_creation_method            fapswitch 2.2
_symmetry_space_group_name_H-M    P1
_symmetry_Int_Tables_number       1
_space_group_crystal_system       triclinic
_cell_length_a                    23.190813
_cell_length_b                    20.526133
_cell_length_c                    14.99035
_cell_angle_alpha                 89.999459
_cell_angle_beta                  99.475951
_cell_angle_gamma                 89.999735
_cell_volume                      7038.30437005

loop_
_atom_site_label
_atom_site_type_symbol
_atom_type_description
_atom_site_fract_x
_atom_site_fract_y
_atom_site_fract_z
_atom_type_partial_charge
C1    C     C_R   0.575741 0.086619 0.553947 0.893111
C2    C     C_R   0.745750 0.770565 0.338009 0.382527
C3    C     C_R   0.735468 0.215574 0.485188 -0.028432
C4    C     C_R   0.215797 0.255483 0.484654 -0.051855
C5    C     C_R   0.764523 0.715560 0.514808 -0.028430
C6    C     C_R   0.784209 0.255474 0.515348 -0.051862
C7    C     C_R   0.235471 0.715568 0.485187 -0.028418
C8    C     C_R   0.277296 0.197942 0.609338 0.020845
C9    C     C_R   0.701133 0.771259 0.390781 0.024664
C10   C     C_R   0.722704 0.197946 0.390661 0.020831
C11   C     C_R   0.298879 0.771235 0.609220 0.024662
C12   C     C_R   0.777293 0.697937 0.609337 0.020829
C13   C     C_R   0.766379 0.207520 0.335967 0.389059
C14   C     C_R   0.201161 0.271297 0.390791 0.024672
C15   C     C_R   0.222689 0.697963 0.390652 0.020814
C16   C     C_R   0.798847 0.271281 0.609213 0.024672
C17   C     C_3   0.338855 0.180058 0.658550 -0.367078
C18   C     C_3   0.384752 0.231944 0.646525 -0.351946
C19   C     C_3   0.445491 0.211597 0.693969 -0.863764
C20   C     C_3   0.637727 0.778384 0.343112 -0.355994
C21   C     C_3   0.601890 0.717250 0.356309 -0.347509
C22   C     C_3   0.538384 0.724752 0.310638 -0.854155
C23   C     C_3   0.661142 0.180070 0.341450 -0.367090
C24   C     C_R   0.254270 0.770535 0.662006 0.382517
C25   C     C_3   0.615249 0.231958 0.353484 -0.351942
C26   C     C_3   0.554508 0.211616 0.306044 -0.863772
C27   C     C_3   0.362289 0.778352 0.656876 -0.355945
C28   C     C_3   0.398134 0.717236 0.643611 -0.347533
C29   C     C_3   0.461645 0.724742 0.689253 -0.854175
C30   C     C_3   0.838856 0.680059 0.658542 -0.367080
C31   C     C_3   0.884750 0.731944 0.646497 -0.351960
C32   C     C_3   0.945492 0.711603 0.693934 -0.863744
C33   C     C_3   0.137758 0.278420 0.343109 -0.356048
C34   C     C_3   0.101936 0.217260 0.356237 -0.347459
C35   C     C_R   0.733622 0.707518 0.664038 0.389061
C36   C     C_3   0.038431 0.224756 0.310561 -0.854187
C37   C     C_3   0.161120 0.680103 0.341455 -0.367077
C38   C     C_3   0.115236 0.731992 0.353534 -0.351952
C39   C     C_3   0.054487 0.711664 0.306113 -0.863782
C40   C     C_3   0.862251 0.278397 0.656895 -0.356030
C41   C     C_3   0.898070 0.217238 0.643751 -0.347471
C42   C     C_3   0.961575 0.224726 0.689432 -0.854184
C43   C     C_3   0.347032 0.980158 0.638124 -0.408204
C44   C     C_3   0.282026 0.994257 0.641001 -0.421683
C45   C     C_3   0.243446 0.976406 0.551693 -0.861726
C46   C     C_R   0.245784 0.270608 0.338031 0.382535
C47   C     C_3   0.652969 0.980160 0.361879 -0.408216
C48   C     C_3   0.717973 0.994274 0.359008 -0.421673
C49   C     C_3   0.756554 0.976433 0.448321 -0.861734
C50   C     C_3   0.847032 0.480156 0.638125 -0.408196
C51   C     C_3   0.782025 0.494250 0.641006 -0.421671
C52   C     C_3   0.743443 0.476395 0.551702 -0.861740
C53   C     C_3   0.152970 0.480163 0.361881 -0.408228
C54   C     C_3   0.217972 0.494301 0.359022 -0.421660
C55   C     C_3   0.256552 0.476469 0.448339 -0.861750
C56   C     C_R   0.266354 0.707547 0.335942 0.389068
C57   C     C_R   0.754225 0.270593 0.661975 0.382541
C58   C     C_R   0.628150 0.016919 0.200998 -0.228207
C59   C     C_R   0.371850 0.016928 0.799000 -0.228221
C60   C     C_R   0.128151 0.516913 0.200997 -0.228174
C61   C     C_R   0.425520 0.911673 0.446466 0.884266
C62   C     C_R   0.871851 0.516931 0.799000 -0.228215
C63   C     C_R   0.608492 0.001591 0.281562 0.197272
C64   C     C_R   0.391508 0.001593 0.718438 0.197268
C65   C     C_R   0.108493 0.501591 0.281563 0.197270
C66   C     C_R   0.891508 0.501593 0.718438 0.197258
C67   C     C_R   0.509691 0.011618 0.208294 -0.066792
C68   C     C_R   0.490310 0.011618 0.791705 -0.066788
C69   C     C_R   0.009691 0.511618 0.208293 -0.066785
C70   C     C_R   0.990310 0.511618 0.791705 -0.066786
C71   C     C_R   0.528312 0.024446 0.124154 -0.049300
C72   C     C_R   0.424259 0.086619 0.446053 0.893112
C73   C     C_R   0.471689 0.024448 0.875844 -0.049300
C74   C     C_R   0.028313 0.524444 0.124153 -0.049305
C75   C     C_R   0.971690 0.524448 0.875844 -0.049303
C76   C     C_R   0.588959 0.027121 0.122104 0.070890
C77   C     C_R   0.411042 0.027128 0.877893 0.070897
C78   C     C_R   0.088960 0.527115 0.122103 0.070883
C79   C     C_R   0.911042 0.527131 0.877893 0.070893
C80   C     C_R   0.489033 0.031919 0.041772 0.038611
C81   C     C_R   0.510968 0.031918 0.958226 0.038608
C82   C     C_R   0.989034 0.531919 0.041771 0.038613
C83   C     C_R   0.574481 0.911673 0.553534 0.884259
C84   C     C_R   0.010969 0.531916 0.958225 0.038609
C85   C     C_R   0.571333 0.038996 0.959731 -0.325698
C86   C     C_R   0.428669 0.039002 0.040266 -0.325698
C87   C     C_R   0.071334 0.538990 0.959730 -0.325704
C88   C     C_R   0.928670 0.539006 0.040266 -0.325703
C89   C     C_R   0.610372 0.037988 0.040950 0.458022
C90   C     C_R   0.389630 0.037998 0.959048 0.458017
C91   C     C_R   0.110374 0.537980 0.040948 0.458033
C92   C     C_R   0.889631 0.538003 0.959047 0.458018
C93   C     C_R   0.612457 0.856423 0.584735 -0.091887
C94   C     C_R   0.075743 0.586617 0.553948 0.893112
C95   C     C_R   0.380090 0.135156 0.413745 -0.102342
C96   C     C_R   0.387541 0.856425 0.415264 -0.091893
C97   C     C_R   0.619911 0.135154 0.586254 -0.102340
C98   C     C_R   0.112456 0.356423 0.584733 -0.091874
C99   C     C_R   0.880081 0.635146 0.413740 -0.102347
C100  C     C_R   0.887546 0.356421 0.415268 -0.091878
C101  C     C_R   0.119921 0.635142 0.586260 -0.102346
C102  C     C_R   0.642756 0.765768 0.687174 0.463205
C103  C     C_R   0.339300 0.221034 0.311074 0.491774
C104  C     C_R   0.357224 0.765788 0.312804 0.463198
C105  C     C_R   0.925521 0.411672 0.446467 0.884262
C106  C     C_R   0.660706 0.221024 0.688931 0.491771
C107  C     C_R   0.142741 0.265751 0.687148 0.463182
C108  C     C_R   0.839272 0.721005 0.311051 0.491780
C109  C     C_R   0.857253 0.265760 0.312842 0.463199
C110  C     C_R   0.160748 0.720980 0.688971 0.491779
C111  C     C_R   0.605595 0.819330 0.660912 -0.320039
C112  C     C_R   0.383170 0.174444 0.338616 -0.335447
C113  C     C_R   0.394393 0.819342 0.339075 -0.320036
C114  C     C_R   0.616835 0.174438 0.661387 -0.335443
C115  C     C_R   0.105580 0.319314 0.660889 -0.319990
C116  C     C_R   0.924258 0.586617 0.446052 0.893113
C117  C     C_R   0.883151 0.674427 0.338601 -0.335460
C118  C     C_R   0.894415 0.319321 0.339103 -0.320004
C119  C     C_R   0.116863 0.674409 0.661416 -0.335449
C120  C     C_R   0.653408 0.837520 0.533146 -0.242848
C121  C     C_R   0.334767 0.143309 0.462150 -0.221209
C122  C     C_R   0.346596 0.837516 0.466861 -0.242826
C123  C     C_R   0.665232 0.143308 0.537846 -0.221215
C124  C     C_R   0.153420 0.337535 0.533157 -0.242886
C125  C     C_R   0.834759 0.643295 0.462148 -0.221204
C126  C     C_R   0.846588 0.337526 0.466851 -0.242888
C127  C     C_R   0.074480 0.411673 0.553534 0.884255
C128  C     C_R   0.165236 0.643299 0.537840 -0.221225
C129  C     C_R   0.683448 0.779347 0.548886 -0.016799
C130  C     C_R   0.299402 0.197730 0.449521 -0.025749
C131  C     C_R   0.316548 0.779351 0.451108 -0.016831
C132  C     C_R   0.700601 0.197726 0.550480 -0.025750
C133  C     C_R   0.183457 0.279360 0.548887 -0.016751
C134  C     C_R   0.799386 0.697710 0.449511 -0.025754
C135  C     C_R   0.816548 0.279354 0.451115 -0.016766
C136  C     C_R   0.200615 0.697708 0.550488 -0.025756
C137  C     C_R   0.685756 0.748981 0.633620 -0.014252
C138  C     C_R   0.233619 0.207515 0.664030 0.389068
C139  C     C_R   0.295964 0.232263 0.366497 -0.019476
C140  C     C_R   0.314228 0.748999 0.366363 -0.014253
C141  C     C_R   0.704043 0.232254 0.633507 -0.019478
C142  C     C_R   0.185753 0.248978 0.633609 -0.014259
C143  C     C_R   0.795937 0.732233 0.366478 -0.019465
C144  C     C_R   0.814246 0.248981 0.366387 -0.014243
C145  C     C_R   0.204077 0.732214 0.633535 -0.019458
C146  C     C_R   0.715780 0.755459 0.484649 -0.051843
C147  C     C_R   0.264535 0.215577 0.514813 -0.028445
C148  C     C_R   0.284221 0.755455 0.515348 -0.051838
H1    H     H_    0.589186 0.046623 0.898577 0.135667
H2    H     H_    0.163449 0.369228 0.481349 0.158566
H3    H     H_    0.864174 0.285209 0.730834 0.252454
H4    H     H_    0.677540 0.052089 0.979704 0.344230
H5    H     H_    0.322463 0.052105 0.020293 0.344228
H6    H     H_    0.177542 0.552075 0.979703 0.344235
H7    H     H_    0.822465 0.552115 0.020292 0.344233
H8    H     H_    0.256896 0.004079 0.494835 0.256342
H9    H     H_    0.246298 0.923358 0.538553 0.258812
H10   H     H_    0.197251 0.988622 0.555335 0.265573
H11   H     H_    0.267016 0.964831 0.695074 0.248920
H12   H     H_    0.275919 0.046869 0.654278 0.254101
H13   H     H_    0.173835 0.606022 0.491379 0.160100
H14   H     H_    0.356460 0.002984 0.576176 0.255072
H15   H     H_    0.352052 0.927053 0.635112 0.205285
H16   H     H_    0.743091 0.004097 0.505177 0.256338
H17   H     H_    0.753718 0.923383 0.461461 0.258813
H18   H     H_    0.802746 0.988668 0.444686 0.265576
H19   H     H_    0.732993 0.964850 0.304941 0.248926
H20   H     H_    0.724071 0.046887 0.345725 0.254097
H21   H     H_    0.643536 0.002982 0.423825 0.255085
H22   H     H_    0.647958 0.927054 0.364891 0.205279
H23   H     H_    0.756892 0.504062 0.494838 0.256349
H24   H     H_    0.836564 0.369213 0.518668 0.158567
H25   H     H_    0.746292 0.423346 0.538569 0.258811
H26   H     H_    0.697248 0.488613 0.555344 0.265567
H27   H     H_    0.767019 0.464824 0.695082 0.248941
H28   H     H_    0.775916 0.546862 0.654281 0.254089
H29   H     H_    0.856458 0.502985 0.576177 0.255056
H30   H     H_    0.852056 0.427052 0.635110 0.205300
H31   H     H_    0.243068 0.504110 0.505198 0.256338
H32   H     H_    0.253741 0.423414 0.461463 0.258817
H33   H     H_    0.302740 0.488737 0.444722 0.265573
H34   H     H_    0.233006 0.464886 0.304959 0.248933
H35   H     H_    0.418151 0.167286 0.299788 0.158274
H36   H     H_    0.224055 0.546917 0.345742 0.254080
H37   H     H_    0.143529 0.502976 0.423828 0.255105
H38   H     H_    0.147973 0.427055 0.364887 0.205269
H39   H     H_    0.572361 0.832536 0.700609 0.159039
H40   H     H_    0.581855 0.167279 0.700217 0.158273
H41   H     H_    0.427624 0.832551 0.299374 0.159041
H42   H     H_    0.918131 0.667271 0.299769 0.158277
H43   H     H_    0.072335 0.332508 0.700572 0.159020
H44   H     H_    0.081889 0.667248 0.700256 0.158276
H45   H     H_    0.410816 0.046631 0.101421 0.135668
H46   H     H_    0.927655 0.332520 0.299414 0.159027
H47   H     H_    0.535710 0.009462 0.784593 0.141279
H48   H     H_    0.464290 0.009464 0.215405 0.141278
H49   H     H_    0.035710 0.509461 0.784592 0.141280
H50   H     H_    0.964290 0.509465 0.215404 0.141278
H51   H     H_    0.674254 0.018419 0.197992 0.217968
H52   H     H_    0.325747 0.018433 0.802006 0.217967
H53   H     H_    0.174254 0.518409 0.197990 0.217968
H54   H     H_    0.825747 0.518439 0.802005 0.217971
H55   H     H_    0.240295 0.218938 0.792441 0.370443
H56   H     H_    0.089188 0.546616 0.898576 0.135664
H57   H     H_    0.768326 0.834198 0.257974 0.369413
H58   H     H_    0.759684 0.218956 0.207558 0.370424
H59   H     H_    0.231711 0.834155 0.742072 0.369416
H60   H     H_    0.740330 0.718962 0.792447 0.370421
H61   H     H_    0.268376 0.334245 0.258016 0.369414
H62   H     H_    0.259635 0.719013 0.207535 0.370416
H63   H     H_    0.731636 0.334228 0.741996 0.369415
H64   H     H_    0.604160 0.747289 0.790397 0.335000
H65   H     H_    0.371287 0.240288 0.201527 0.333433
H66   H     H_    0.395807 0.747321 0.209564 0.335001
H67   H     H_    0.910818 0.546636 0.101420 0.135668
H68   H     H_    0.628723 0.240275 0.798481 0.333433
H69   H     H_    0.104124 0.247247 0.790342 0.334999
H70   H     H_    0.871249 0.740253 0.201493 0.333434
H71   H     H_    0.895859 0.247269 0.209633 0.334997
H72   H     H_    0.128786 0.740210 0.798547 0.333435
H73   H     H_    0.445707 0.204796 0.767543 0.263320
H74   H     H_    0.458924 0.165360 0.664773 0.283340
H75   H     H_    0.477745 0.249956 0.684698 0.250258
H76   H     H_    0.386918 0.240092 0.574088 0.240805
H77   H     H_    0.372676 0.278877 0.675550 0.224749
H78   H     H_    0.326153 0.106019 0.508585 0.160060
H79   H     H_    0.339752 0.175974 0.732565 0.246679
H80   H     H_    0.353185 0.131267 0.641021 0.205255
H81   H     H_    0.517791 0.766287 0.340942 0.260140
H82   H     H_    0.535911 0.733228 0.236923 0.265910
H83   H     H_    0.513698 0.679712 0.320598 0.266988
H84   H     H_    0.621348 0.674298 0.327195 0.233601
H85   H     H_    0.602373 0.708090 0.429462 0.238322
H86   H     H_    0.615578 0.821545 0.365165 0.195190
H87   H     H_    0.635798 0.785165 0.269165 0.252453
H88   H     H_    0.554288 0.204819 0.232469 0.263320
H89   H     H_    0.663430 0.869203 0.481322 0.158560
H90   H     H_    0.541075 0.165378 0.335239 0.283334
H91   H     H_    0.522256 0.249976 0.315322 0.250261
H92   H     H_    0.613086 0.240102 0.425923 0.240807
H93   H     H_    0.627325 0.278891 0.324461 0.224746
H94   H     H_    0.660244 0.175991 0.267434 0.246667
H95   H     H_    0.646811 0.131278 0.358974 0.205259
H96   H     H_    0.482216 0.766304 0.658972 0.260143
H97   H     H_    0.464134 0.733179 0.762979 0.265908
H98   H     H_    0.486339 0.679720 0.679235 0.267002
H99   H     H_    0.378693 0.674264 0.672706 0.233593
H100  H     H_    0.673843 0.106021 0.491407 0.160072
H101  H     H_    0.397636 0.708107 0.570449 0.238338
H102  H     H_    0.384426 0.821534 0.634857 0.195173
H103  H     H_    0.364228 0.785093 0.730832 0.252448
H104  H     H_    0.945715 0.704809 0.767512 0.263313
H105  H     H_    0.958922 0.665362 0.664744 0.283348
H106  H     H_    0.977743 0.749961 0.684648 0.250259
H107  H     H_    0.886909 0.740086 0.574057 0.240807
H108  H     H_    0.872675 0.778879 0.675517 0.224744
H109  H     H_    0.839758 0.675984 0.732559 0.246668
H110  H     H_    0.853185 0.631266 0.641022 0.205256
H111  H     H_    0.336582 0.869191 0.518698 0.158561
H112  H     H_    0.017822 0.266259 0.340906 0.260134
H113  H     H_    0.035963 0.233278 0.236856 0.265904
H114  H     H_    0.013759 0.179695 0.320462 0.266998
H115  H     H_    0.121411 0.174335 0.327084 0.233606
H116  H     H_    0.102417 0.208059 0.429379 0.238311
H117  H     H_    0.115591 0.321555 0.365198 0.195211
H118  H     H_    0.135836 0.285242 0.269171 0.252452
H119  H     H_    0.054251 0.704881 0.232531 0.263317
H120  H     H_    0.041056 0.665421 0.335298 0.283328
H121  H     H_    0.022243 0.750025 0.315422 0.250270
H122  H     H_    0.826152 0.606008 0.508590 0.160064
H123  H     H_    0.113090 0.740122 0.425981 0.240808
H124  H     H_    0.127311 0.778930 0.324523 0.224742
H125  H     H_    0.160209 0.676043 0.267435 0.246659
H126  H     H_    0.146787 0.631307 0.358960 0.205259
H127  H     H_    0.982187 0.266234 0.659099 0.260128
H128  H     H_    0.964043 0.233237 0.763138 0.265905
H129  H     H_    0.986247 0.179667 0.679518 0.267004
H130  H     H_    0.878594 0.174309 0.672891 0.233605
H131  H     H_    0.897590 0.208049 0.570607 0.238314
H132  H     H_    0.884418 0.321535 0.634815 0.195199
N1    N     N_R   0.549130 1.000000 0.284090 -0.118099
N2    N     N_R   0.450870 1.000000 0.715910 -0.118102
N3    N     N_R   0.049130 0.500000 0.284090 -0.118097
N4    N     N_R   0.950870 0.500000 0.715910 -0.118102
O1    O     O_R   0.541320 0.066090 0.608930 -0.616304
O2    O     O_R   0.427120 0.933890 0.529720 -0.641877
O3    O     O_R   0.427120 0.066110 0.529720 -0.640259
O4    O     O_R   0.572880 0.933890 0.470280 -0.641876
O5    O     O_R   0.072880 0.566110 0.470280 -0.640270
O6    O     O_R   0.927120 0.433890 0.529720 -0.641880
O7    O     O_R   0.927120 0.566110 0.529720 -0.640259
O8    O     O_R   0.072880 0.433890 0.470280 -0.641884
O9    O     O_3   0.242356 0.182087 0.750330 -0.721750
O10   O     O_3   0.736481 0.801711 0.255656 -0.725101
O11   O     O_3   0.757639 0.182099 0.249665 -0.721727
O12   O     O_R   0.458680 0.933910 0.391070 -0.608877
O13   O     O_3   0.263551 0.801664 0.744370 -0.725100
O14   O     O_3   0.742367 0.682101 0.750343 -0.721715
O15   O     O_3   0.236525 0.301765 0.255686 -0.725106
O16   O     O_3   0.257598 0.682146 0.249629 -0.721710
O17   O     O_3   0.763487 0.301746 0.744321 -0.725109
O18   O     O_3   0.636403 0.729005 0.762146 -0.736827
O19   O     O_3   0.338222 0.254740 0.231062 -0.746119
O20   O     O_3   0.363564 0.729038 0.237817 -0.736816
O21   O     O_3   0.661788 0.254726 0.768947 -0.746120
O22   O     O_3   0.136374 0.228971 0.762099 -0.736860
O23   O     O_R   0.458680 0.066090 0.391070 -0.616302
O24   O     O_3   0.838183 0.754702 0.231030 -0.746114
O25   O     O_3   0.863611 0.228990 0.237879 -0.736835
O26   O     O_3   0.161849 0.754661 0.769006 -0.746111
O27   O     O_3   0.669877 0.045021 0.042139 -0.755215
O28   O     O_3   0.330125 0.045035 0.957858 -0.755219
O29   O     O_3   0.169879 0.545008 0.042138 -0.755200
O30   O     O_3   0.830127 0.545044 0.957857 -0.755205
O31   O     O_R   0.541320 0.933910 0.608930 -0.608877
O32   O     O_R   0.041320 0.566090 0.608930 -0.616306
O33   O     O_R   0.958680 0.433910 0.391070 -0.608873
O34   O     O_R   0.958680 0.566090 0.391070 -0.616300
O35   O     O_R   0.041320 0.433910 0.608930 -0.608873
O36   O     O_R   0.572880 0.066110 0.470280 -0.640263
Zn1   Zn    Zn3+2 0.478910 0.000000 0.592580 0.914095
Zn2   Zn    Zn3+2 0.521090 1.000000 0.407420 0.914098
Zn3   Zn    Zn3+2 0.978910 0.500000 0.592580 0.914095
Zn4   Zn    Zn3+2 0.021090 0.500000 0.407420 0.914103

loop_
_geom_bond_atom_site_label_1
_geom_bond_atom_site_label_2
_ccdc_geom_bond_type
C87   C91   A    
C30   H109  S    
C55   H32   S    
H60   O14   S    
C14   C33   S    
C91   O29   S    
H68   O21   S    
C56   O16   S    
C19   H74   S    
C31   H108  S    
C50   H30   S    
C86   H45   S    
C56   C140  A    
C17   H80   S    
C39   H119  S    
C83   C93   S    
C101  C128  A    
C8    C138  A    
C27   H103  S    
C28   H101  S    
C49   H16   S    
C80   C86   A    
C41   H130  S    
C134  C143  A    
C26   H91   S    
C32   H105  S    
C93   C120  A    
C110  C145  A    
C38   H123  S    
C120  H89   S    
C115  H43   S    
C7    C15   A    
C104  O20   S    
C21   C22   S    
C102  C111  A    
C89   O27   S    
C73   C81   A    
C90   O28   S    
C109  C118  A    
O35   Zn3   S    
C51   C52   S    
C5    C12   A    
C86   C90   A    
C99   C116  S    
C42   H129  S    
C104  C140  A    
C103  C112  A    
C28   H99   S    
C43   C44   S    
C37   C38   S    
C102  O18   S    
C22   H82   S    
C11   C27   S    
C69   C74   A    
C16   C40   S    
C124  C133  A    
C98   C127  S    
C60   C65   A    
C82   C84   A    
C8    C147  A    
C23   H95   S    
C87   H56   S    
C26   H88   S    
O6    Zn3   S    
C96   C122  A    
C8    C17   S    
C33   H118  S    
C36   H113  S    
H71   O25   S    
C49   H18   S    
C35   C137  A    
C123  H100  S    
C109  C144  A    
H61   O15   S    
C4    C14   A    
C51   H28   S    
H70   O24   S    
C126  H24   S    
C6    C16   A    
C64   N2    A    
C122  H111  S    
C129  C137  A    
C20   C21   S    
C108  O24   S    
C44   H11   S    
C73   C77   A    
C75   C79   A    
C46   C139  A    
C123  C132  A    
C29   H98   S    
C121  C130  A    
C67   N1    A    
C3    C6    A    
C61   C96   S    
C58   C76   A    
C53   C54   S    
C98   C124  A    
C60   C78   A    
C133  C142  A    
C34   H115  S    
C100  C126  A    
C24   C145  A    
C38   C39   S    
H6    O29   S    
C11   C148  A    
C9    C146  A    
C110  O26   S    
C13   C144  A    
C15   C37   S    
C131  C140  A    
C68   H47   S    
C53   C65   S    
C76   C89   A    
C72   O3    A    
C47   H21   S    
C10   C23   S    
C68   N2    A    
C107  O22   S    
C127  O35   A    
C58   H51   S    
C62   C66   A    
C120  C129  A    
N4    Zn3   S    
C45   H9    S    
C119  H44   S    
C116  O34   A    
C25   C26   S    
C61   O2    A    
C21   H84   S    
C23   H94   S    
C102  C137  A    
O36   Zn2   S    
C75   C84   A    
C53   H38   S    
C6    C135  A    
C18   H77   S    
C37   H126  S    
C99   C117  A    
C31   C32   S    
C59   H52   S    
C61   O12   A    
C17   C18   S    
H55   O9    S    
C45   H8    S    
H69   O22   S    
C12   C35   A    
C69   H50   S    
C67   H48   S    
C52   H26   S    
C122  C131  A    
C132  C141  A    
O3    Zn1   S    
C35   O14   S    
C54   C55   S    
C135  C144  A    
C130  C147  A    
C30   H110  S    
N2    Zn1   S    
C55   H31   S    
C108  C117  A    
C110  C119  A    
C127  O8    A    
C25   H93   S    
C31   H107  S    
C125  H122  S    
C42   H128  S    
C34   H116  S    
C97   C123  A    
H72   O26   S    
C24   O13   S    
C17   H79   S    
O33   Zn4   S    
C98   C115  A    
C48   H19   S    
C82   C88   A    
C94   O32   A    
C34   C36   S    
C36   H112  S    
H62   O16   S    
C104  C113  A    
C43   H14   S    
C32   H106  S    
C70   C75   A    
H57   O10   S    
C2    C9    A    
C38   H124  S    
C81   C85   A    
C39   H121  S    
H7    O30   S    
C125  C134  A    
C88   H67   S    
C41   C42   S    
C1    O1    A    
C14   C46   A    
C28   C29   S    
C95   C112  A    
C128  C136  A    
C47   C63   S    
C71   C76   A    
C114  H40   S    
C18   C19   S    
C62   H54   S    
N3    Zn4   S    
C21   H85   S    
C22   H83   S    
C18   H76   S    
C95   C121  A    
C94   O5    A    
C74   C82   A    
C138  O9    S    
C57   O17   S    
C130  C139  A    
H65   O19   S    
C43   C64   S    
C112  H35   S    
H66   O20   S    
C77   C90   A    
C13   O11   S    
N1    Zn2   S    
C3    C132  A    
C50   H29   S    
C19   H75   S    
C46   O15   S    
C138  C142  A    
C85   C89   A    
C39   H120  S    
C4    C147  A    
C121  H78   S    
C33   H117  S    
O23   Zn2   S    
C36   H114  S    
C49   H17   S    
C41   H131  S    
C26   H90   S    
C9    C20   S    
C20   H87   S    
C83   O31   A    
C50   C51   S    
C100  C105  S    
C51   H27   S    
H58   O11   S    
C93   C111  A    
O1    Zn1   S    
C42   H127  S    
C48   C49   S    
C126  C135  A    
C44   H12   S    
C54   H36   S    
C96   C113  A    
C100  C118  A    
C44   C45   S    
C106  C141  A    
C124  H2    S    
C12   C30   S    
C29   H97   S    
O8    Zn4   S    
O34   Zn4   S    
C113  H41   S    
C111  H39   S    
C57   C141  A    
H59   O13   S    
C22   H81   S    
C128  H13   S    
C29   H96   S    
C67   C71   A    
C16   C57   A    
C118  H46   S    
O2    Zn1   S    
C60   H53   S    
C7    C136  A    
C40   H132  S    
C74   C78   A    
C108  C143  A    
C43   H15   S    
C2    O10   S    
C19   H73   S    
C84   C87   A    
C59   C77   A    
C99   C125  A    
C59   C64   A    
C106  C114  A    
C27   H102  S    
H63   O17   S    
C129  C146  A    
C1    O36   A    
C11   C24   A    
C53   H37   S    
C105  O6    A    
C72   O23   A    
C37   H125  S    
C72   C95   S    
C88   C92   A    
O32   Zn3   S    
C54   H34   S    
C136  C145  A    
H5    O28   S    
C103  O19   S    
O12   Zn2   S    
H4    O27   S    
C2    C143  A    
H64   O18   S    
C52   H23   S    
C71   C80   A    
C5    C134  A    
C92   O30   S    
C101  C119  A    
C62   C79   A    
C94   C101  S    
C1    C97   S    
C25   H92   S    
C68   C73   A    
C40   H3    S    
C103  C139  A    
C106  O21   S    
C47   C48   S    
C48   H20   S    
O7    Zn3   S    
C30   C31   S    
C33   C34   S    
C55   H33   S    
C131  C148  A    
C65   N3    A    
C107  C142  A    
C66   N4    A    
C50   C66   S    
C107  C115  A    
C79   C92   A    
C40   C41   S    
C70   H49   S    
C20   H86   S    
C105  O33   A    
C47   H22   S    
C63   N1    A    
O4    Zn2   S    
C7    C148  A    
C58   C63   A    
C5    C146  A    
C45   H10   S    
C80   C81   A    
C10   C13   A    
C78   C91   A    
C32   H104  S    
C116  O7    A    
C15   C56   A    
C97   C114  A    
C3    C10   A    
O31   Zn1   S    
C69   N3    A    
C70   N4    A    
C23   C25   S    
C85   H1    S    
C117  H42   S    
C109  O25   S    
C27   C28   S    
C52   H25   S    
C83   O4    A    
O5    Zn4   S    
C4    C133  A    
