data_mof_unit_56668.cif
_audit_creation_date              2012-12-10T16:49:30-0500
_audit_creation_method            fapswitch 2.2
_symmetry_space_group_name_H-M    P1
_symmetry_Int_Tables_number       1
_space_group_crystal_system       triclinic
_cell_length_a                    7.749321
_cell_length_b                    8.628195
_cell_length_c                    12.888429
_cell_angle_alpha                 89.951732
_cell_angle_beta                  87.600649
_cell_angle_gamma                 93.241945
_cell_volume                      859.616688692

loop_
_atom_site_label
_atom_site_type_symbol
_atom_type_description
_atom_site_fract_x
_atom_site_fract_y
_atom_site_fract_z
_atom_type_partial_charge
C1    C     C_R   0.455064 0.205683 0.498967 0.860704
C2    C     C_R   0.720180 0.486329 0.137063 0.471182
C3    C     C_R   0.593731 0.519021 0.867666 -0.310565
C4    C     C_R   0.408328 0.509053 0.131886 -0.321381
C5    C     C_R   0.583015 0.512601 0.974154 0.112147
C6    C     C_R   0.419424 0.508866 0.025553 0.109684
C7    C     C_2   0.431819 0.043086 0.512417 0.183022
C8    C     C_2   0.568014 0.956914 0.487291 0.188270
C9    C     C_3   0.894060 0.296749 0.182966 0.062576
C10   C     C_3   0.005148 0.248517 0.270730 -0.706139
C11   C     C_3   0.108829 0.286647 0.801371 0.077599
C12   C     C_R   0.544914 0.794322 0.500934 0.883162
C13   C     C_3   0.917721 0.237694 0.795776 -0.834147
C14   C     C_R   0.464933 0.501637 0.699919 0.892536
C15   C     C_R   0.534791 0.496462 0.299991 0.899590
C16   C     C_R   0.557160 0.497731 0.188376 -0.165907
C17   C     C_R   0.443169 0.504169 0.811352 -0.177562
C18   C     C_R   0.268494 0.498339 0.970311 -0.289008
C19   C     C_R   0.732963 0.502980 0.029596 -0.312834
C20   C     C_R   0.279076 0.486325 0.862970 0.479807
H1    H     H_    0.281567 0.514340 0.170083 0.206714
H2    H     H_    0.028764 0.123107 0.264002 0.199806
H3    H     H_    0.131301 0.315628 0.267234 0.245090
H4    H     H_    0.159069 0.222287 0.868040 0.130514
H5    H     H_    0.177575 0.249952 0.728887 0.149315
H6    H     H_    0.902372 0.111211 0.780197 0.224874
H7    H     H_    0.849102 0.262198 0.870765 0.241621
H8    H     H_    0.858569 0.301123 0.732801 0.271771
H9    H     H_    0.200965 0.062085 0.578573 0.336006
H10   H     H_    0.796920 0.937396 0.418758 0.341448
H11   H     H_    0.720839 0.530254 0.828982 0.218412
H12   H     H_    0.143439 0.488482 0.010787 0.164020
H13   H     H_    0.857770 0.500321 0.989244 0.171103
H14   H     H_    0.998373 0.616746 0.422915 0.210441
H15   H     H_    0.002226 0.382018 0.575793 0.201671
H16   H     H_    0.962625 0.273393 0.107521 0.134135
H17   H     H_    0.771241 0.222303 0.189059 0.145879
H18   H     H_    0.937879 0.268865 0.346785 0.288423
N1    N     N_2   0.054030 0.541640 0.471970 -0.154290
N2    N     N_2   0.945970 0.458360 0.528030 -0.166374
O1    O     O_R   0.609680 0.261530 0.506880 -0.567263
O2    O     O_3   0.129515 0.450237 0.811027 -0.601694
O3    O     O_3   0.280197 0.979092 0.560519 -0.769981
O4    O     O_3   0.719328 0.020798 0.438818 -0.790320
O5    O     O_R   0.390320 0.738470 0.493120 -0.553567
O6    O     O_R   0.323330 0.288220 0.488910 -0.660434
O7    O     O_R   0.676670 0.711780 0.511090 -0.642785
O8    O     O_R   0.619510 0.488830 0.661140 -0.635156
O9    O     O_R   0.380490 0.511170 0.338860 -0.642412
O10   O     O_R   0.333160 0.515520 0.643180 -0.575412
O11   O     O_R   0.666840 0.484480 0.356820 -0.577977
O12   O     O_3   0.865332 0.456980 0.191202 -0.611344
Zn1   Zn    Zn3+2 0.691200 0.482180 0.511990 0.979623
Zn2   Zn    Zn3+2 0.308800 0.517820 0.488010 0.985406

loop_
_geom_bond_atom_site_label_1
_geom_bond_atom_site_label_2
_ccdc_geom_bond_type
C4    C16   A    
C9    H16   S    
C20   O2    S    
C13   H8    S    
C5    C19   A    
C15   O11   A    
C10   H3    S    
C2    C16   A    
C9    C10   S    
C8    C12   S    
C10   H18   S    
O1    Zn1   S    
O6    Zn2   S    
C9    H17   S    
H15   N2    S    
C7    C8    D    
O10   Zn2   S    
C10   H2    S    
C3    H11   S    
C4    H1    S    
C11   C13   S    
C14   C17   S    
H10   O4    S    
C1    O6    A    
C14   O10   A    
C9    O12   S    
C2    O12   S    
C12   O7    A    
O7    Zn1   S    
C1    O1    A    
O8    Zn1   S    
O5    Zn2   S    
C3    C17   A    
C18   C20   A    
C15   O9    A    
C5    C6    A    
C6    C18   A    
C13   H6    S    
N1    Zn2   S    
C18   H12   S    
C11   H5    S    
O9    Zn2   S    
C8    O4    S    
C11   H4    S    
C17   C20   A    
C11   O2    S    
C4    C6    A    
N2    Zn1   S    
C19   H13   S    
N1    N2    D    
C13   H7    S    
C14   O8    A    
C3    C5    A    
C2    C19   A    
C1    C7    S    
H14   N1    S    
H9    O3    S    
C15   C16   S    
C7    O3    S    
C12   O5    A    
O11   Zn1   S    
