data_mof_unit_47101.cif
_audit_creation_date              2012-12-11T15:35:35-0500
_audit_creation_method            fapswitch 2.2
_symmetry_space_group_name_H-M    P1
_symmetry_Int_Tables_number       1
_space_group_crystal_system       triclinic
_cell_length_a                    17.335115
_cell_length_b                    24.272245
_cell_length_c                    14.836775
_cell_angle_alpha                 90.045059
_cell_angle_beta                  124.91256
_cell_angle_gamma                 90.185474
_cell_volume                      5119.16953529

loop_
_atom_site_label
_atom_site_type_symbol
_atom_type_description
_atom_site_fract_x
_atom_site_fract_y
_atom_site_fract_z
_atom_type_partial_charge
C1    C     C_R   0.318152 0.134403 0.910988 0.061459
C2    C     C_R   0.599876 0.126598 0.911166 -0.121265
C3    C     C_R   0.253461 0.545457 0.306031 -0.169906
C4    C     C_1   0.275385 0.169759 0.816033 -0.003923
C5    C     C_1   0.322763 0.828561 0.798731 -0.031258
C6    C     C_1   0.775389 0.669759 0.816031 -0.003903
C7    C     C_1   0.822723 0.328544 0.798740 -0.031300
C8    C     C_2   0.663736 0.899092 0.537067 0.441820
C9    C     C_2   0.666140 0.099836 0.537975 0.486866
C10   C     C_2   0.163797 0.399087 0.537123 0.441689
C11   C     C_2   0.166251 0.599806 0.538053 0.486950
C12   C     C_1   0.436675 0.095360 0.652875 0.014956
C13   C     C_R   0.058584 0.346642 0.912602 -0.124490
C14   C     C_1   0.450212 0.900481 0.665180 0.009449
C15   C     C_1   0.936713 0.595355 0.652879 0.014899
C16   C     C_1   0.950252 0.400479 0.665206 0.009454
C17   C     C_R   0.099865 0.626603 0.911160 -0.121276
C18   C     C_R   0.495927 0.999206 0.668880 -0.038115
C19   C     C_R   0.995981 0.499203 0.668926 -0.038134
C20   C     C_R   0.799228 0.999231 0.368047 0.022903
C21   C     C_R   0.299212 0.499222 0.368064 0.022883
C22   C     C_R   0.689276 0.138301 0.003904 0.032830
C23   C     C_R   0.619765 0.816241 0.005837 0.038918
C24   C     C_R   0.189271 0.638300 0.003889 0.032847
C25   C     C_R   0.355030 0.847029 0.907243 0.067527
C26   C     C_R   0.119763 0.316240 0.005839 0.038920
C27   C     C_3   0.024143 0.945512 0.630064 -0.431996
C28   C     C_3   0.022570 0.048816 0.638439 -0.393814
C29   C     C_3   0.524204 0.445419 0.629896 -0.431778
C30   C     C_3   0.522532 0.548713 0.638609 -0.393684
C31   C     C_3   0.918580 0.947140 0.537816 -0.348744
C32   C     C_3   0.919249 0.050584 0.539058 -0.402506
C33   C     C_3   0.418671 0.446991 0.537560 -0.349188
C34   C     C_3   0.419147 0.550445 0.539346 -0.402197
C35   C     C_3   0.061856 0.001874 0.516381 -0.386924
C36   C     C_R   0.818154 0.634404 0.910987 0.061431
C37   C     C_3   0.561843 0.501996 0.516378 -0.386906
C38   C     C_3   0.072574 0.998802 0.627244 0.389145
C39   C     C_3   0.572573 0.498779 0.627237 0.389016
C40   C     C_3   0.896301 0.999041 0.465472 0.357987
C41   C     C_3   0.396292 0.499023 0.465483 0.358164
C42   C     C_R   0.444345 0.846809 0.090450 -0.152089
C43   C     C_R   0.405957 0.127208 0.095037 -0.145520
C44   C     C_R   0.944366 0.346811 0.090465 -0.152143
C45   C     C_R   0.905958 0.627209 0.095037 -0.145518
C46   C     C_3   0.958569 0.999317 0.421490 -0.396359
C47   C     C_R   0.855041 0.347022 0.907261 0.067586
C48   C     C_3   0.458550 0.499544 0.421476 -0.396166
C49   C     C_R   0.302784 0.724937 0.906101 -0.154329
C50   C     C_R   0.161212 0.185444 0.914460 -0.160656
C51   C     C_R   0.802914 0.224903 0.906197 -0.154411
C52   C     C_R   0.661213 0.685446 0.914456 -0.160648
C53   C     C_R   0.753522 0.180618 0.908321 -0.161324
C54   C     C_R   0.609192 0.728590 0.914333 -0.165079
C55   C     C_R   0.253434 0.680638 0.908242 -0.161247
C56   C     C_R   0.109190 0.228588 0.914337 -0.165131
C57   C     C_R   0.764860 0.166819 0.006653 0.132549
C58   C     C_R   0.689474 0.124086 0.094052 -0.117316
C59   C     C_R   0.645671 0.758949 0.011154 0.137214
C60   C     C_R   0.264852 0.666803 0.006604 0.132498
C61   C     C_R   0.145671 0.258947 0.011157 0.137214
C62   C     C_R   0.841004 0.188792 0.105757 -0.165646
C63   C     C_R   0.721520 0.738194 0.111375 -0.165470
C64   C     C_R   0.341058 0.688744 0.105707 -0.165631
C65   C     C_R   0.221522 0.238195 0.111378 -0.165456
C66   C     C_R   0.390724 0.732874 0.103675 -0.153496
C67   C     C_R   0.274376 0.196218 0.110956 -0.158191
C68   C     C_R   0.890678 0.232916 0.103733 -0.153508
C69   C     C_R   0.649810 0.849822 0.094725 -0.126413
C70   C     C_R   0.774374 0.696217 0.110953 -0.158200
C71   C     C_R   0.364170 0.755426 0.002561 0.130388
C72   C     C_R   0.249993 0.174381 0.010472 0.144140
C73   C     C_R   0.864213 0.255426 0.002627 0.130404
C74   C     C_R   0.749993 0.674382 0.010470 0.144142
C75   C     C_R   0.577821 0.950040 0.597978 -0.279057
C76   C     C_R   0.577066 0.049299 0.597979 -0.154334
C77   C     C_R   0.077864 0.450032 0.598013 -0.279085
C78   C     C_R   0.077136 0.549291 0.598032 -0.154256
C79   C     C_R   0.619703 0.950278 0.541391 -0.009633
C80   C     C_R   0.189475 0.624089 0.094046 -0.117309
C81   C     C_R   0.619548 0.049450 0.541682 -0.067517
C82   C     C_R   0.119722 0.450266 0.541397 -0.009666
C83   C     C_R   0.119599 0.549437 0.541713 -0.067602
C84   C     C_R   0.620131 0.999908 0.492788 0.014618
C85   C     C_R   0.120142 0.499895 0.492788 0.014641
C86   C     C_R   0.553833 0.045272 0.306239 -0.156658
C87   C     C_R   0.551565 0.954491 0.305041 -0.074753
C88   C     C_R   0.053832 0.545269 0.306243 -0.156728
C89   C     C_R   0.051545 0.454488 0.305031 -0.074670
C90   C     C_R   0.545732 0.999467 0.615051 0.133074
C91   C     C_R   0.149810 0.349822 0.094726 -0.126415
C92   C     C_R   0.045787 0.499461 0.615094 0.133077
C93   C     C_R   0.230517 0.953260 0.746168 -0.131430
C94   C     C_R   0.229463 0.045458 0.737563 -0.145192
C95   C     C_R   0.730528 0.453252 0.746168 -0.131388
C96   C     C_R   0.729453 0.545451 0.737574 -0.145196
C97   C     C_R   0.320505 0.145484 0.004905 -0.009492
C98   C     C_R   0.386256 0.813810 0.998760 -0.005574
C99   C     C_R   0.820507 0.645486 0.004904 -0.009486
C100  C     C_R   0.886286 0.313807 0.998789 -0.005562
C101  C     C_R   0.576441 0.999858 0.373162 0.074432
C102  C     C_R   0.558588 0.846644 0.912601 -0.124470
C103  C     C_R   0.076429 0.499852 0.373159 0.074506
C104  C     C_R   0.173711 0.999290 0.712835 -0.012685
C105  C     C_R   0.673711 0.499274 0.712826 -0.012721
C106  C     C_R   0.479701 0.045044 0.712249 0.008638
C107  C     C_R   0.483748 0.953718 0.716329 0.055458
C108  C     C_R   0.979732 0.545041 0.712270 0.008689
C109  C     C_R   0.983779 0.453716 0.716356 0.055467
C110  C     C_R   0.753825 0.953539 0.303622 -0.104041
C111  C     C_R   0.753458 0.045462 0.306022 -0.169902
C112  C     C_R   0.253802 0.453535 0.303626 -0.104040
H1    H     H_    0.034821 0.941289 0.711180 0.167670
H2    H     H_    0.908689 0.089016 0.492673 0.154391
H3    H     H_    0.400501 0.408393 0.489096 0.159409
H4    H     H_    0.408379 0.588986 0.493134 0.154218
H5    H     H_    0.099760 0.967205 0.508738 0.163594
H6    H     H_    0.092925 0.040933 0.511049 0.160620
H7    H     H_    0.599681 0.467341 0.508576 0.163629
H8    H     H_    0.592984 0.541067 0.511215 0.160537
H9    H     H_    0.945397 0.961429 0.372073 0.162621
H10   H     H_    0.941622 0.035338 0.366652 0.160795
H11   H     H_    0.445341 0.461782 0.371702 0.162585
H12   H     H_    0.026391 0.045299 0.715690 0.163630
H13   H     H_    0.441618 0.535716 0.366951 0.160695
H14   H     H_    0.285198 0.736721 0.826857 0.150920
H15   H     H_    0.136025 0.164628 0.837741 0.116618
H16   H     H_    0.785451 0.236649 0.826998 0.150897
H17   H     H_    0.636028 0.664630 0.837737 0.116613
H18   H     H_    0.700490 0.161068 0.831277 0.133010
H19   H     H_    0.546333 0.741099 0.836916 0.118631
H20   H     H_    0.200354 0.661115 0.831183 0.133041
H21   H     H_    0.046331 0.241096 0.836920 0.118616
H22   H     H_    0.856359 0.176488 0.184402 0.106608
H23   H     H_    0.534806 0.441127 0.710962 0.167673
H24   H     H_    0.748124 0.758237 0.189025 0.113900
H25   H     H_    0.356478 0.676403 0.184367 0.106601
H26   H     H_    0.248127 0.258238 0.189028 0.113918
H27   H     H_    0.442190 0.752313 0.181280 0.109618
H28   H     H_    0.338946 0.185765 0.188269 0.118390
H29   H     H_    0.942066 0.252386 0.181324 0.109639
H30   H     H_    0.838943 0.685763 0.188266 0.118349
H31   H     H_    0.573433 0.911388 0.630448 0.129185
H32   H     H_    0.571267 0.087686 0.630373 0.156792
H33   H     H_    0.073488 0.411383 0.630498 0.129179
H34   H     H_    0.526482 0.545131 0.715934 0.163579
H35   H     H_    0.071362 0.587677 0.630450 0.156772
H36   H     H_    0.490822 0.833564 0.174732 0.099674
H37   H     H_    0.433211 0.130150 0.180878 0.111530
H38   H     H_    0.990865 0.333570 0.174747 0.099704
H39   H     H_    0.933211 0.630151 0.180878 0.111500
H40   H     H_    0.570798 0.087748 0.331188 0.093909
H41   H     H_    0.564530 0.911694 0.328008 0.116962
H42   H     H_    0.070806 0.587743 0.331206 0.093830
H43   H     H_    0.064487 0.411689 0.327989 0.117148
H44   H     H_    0.209171 0.910727 0.732475 0.111934
H45   H     H_    0.877500 0.948203 0.574060 0.210003
H46   H     H_    0.205832 0.086081 0.705704 0.107643
H47   H     H_    0.709207 0.410716 0.732501 0.111944
H48   H     H_    0.705791 0.586075 0.705737 0.107625
H49   H     H_    0.766914 0.910674 0.326788 0.105869
H50   H     H_    0.766102 0.087796 0.333563 0.092980
H51   H     H_    0.266838 0.410669 0.326789 0.106002
H52   H     H_    0.266133 0.587792 0.333566 0.092945
H53   H     H_    0.746381 0.128104 0.179599 0.091860
H54   H     H_    0.687405 0.838063 0.180021 0.089811
H55   H     H_    0.246390 0.628111 0.179591 0.091857
H56   H     H_    0.872202 0.052182 0.567485 0.156835
H57   H     H_    0.187406 0.338064 0.180022 0.089821
H58   H     H_    0.512838 0.830684 0.830423 0.114412
H59   H     H_    0.574668 0.135055 0.827700 0.108646
H60   H     H_    0.012827 0.330680 0.830427 0.114406
H61   H     H_    0.074643 0.635064 0.827693 0.108630
H62   H     H_    0.054120 0.908433 0.617046 0.163273
H63   H     H_    0.056073 0.088580 0.642167 0.147999
H64   H     H_    0.554281 0.408391 0.616872 0.163224
H65   H     H_    0.555955 0.588509 0.642319 0.148002
H66   H     H_    0.649411 0.860055 0.560522 0.025954
H67   H     H_    0.377496 0.447826 0.573712 0.210168
H68   H     H_    0.709542 0.097577 0.506909 -0.005145
H69   H     H_    0.149674 0.360078 0.560841 0.026114
H70   H     H_    0.209542 0.597553 0.506846 -0.005089
H71   H     H_    0.372180 0.551814 0.567922 0.156906
H72   H     H_    0.900214 0.908473 0.489544 0.159634
N1    N     N_R   0.392140 0.102630 0.941800 -0.056972
N2    N     N_R   0.525160 0.972040 0.206160 -0.048079
N3    N     N_R   0.025160 0.527960 0.206160 -0.039387
N4    N     N_R   0.025160 0.472040 0.206160 -0.048101
N5    N     N_R   0.317870 0.971120 0.792790 -0.039004
N6    N     N_R   0.317870 0.028880 0.792790 -0.038516
N7    N     N_R   0.817870 0.471120 0.792790 -0.039009
N8    N     N_R   0.817870 0.528880 0.792790 -0.038508
N9    N     N_R   0.473480 0.027920 0.793480 -0.065881
N10   N     N_R   0.473480 0.972080 0.793480 -0.069142
N11   N     N_R   0.973480 0.527920 0.793480 -0.065881
N12   N     N_R   0.392140 0.897370 0.941800 -0.058658
N13   N     N_R   0.973480 0.472080 0.793480 -0.069147
N14   N     N_R   0.681610 0.971120 0.207570 -0.040355
N15   N     N_R   0.681610 0.028880 0.207570 -0.035178
N16   N     N_R   0.181610 0.471120 0.207570 -0.040371
N17   N     N_R   0.181610 0.528880 0.207570 -0.035172
N18   N     N_R   0.605410 0.102620 0.056870 -0.041549
N19   N     N_R   0.605410 0.897380 0.056870 -0.041840
N20   N     N_R   0.105410 0.602620 0.056870 -0.041549
N21   N     N_R   0.105410 0.397380 0.056870 -0.041842
N22   N     N_R   0.549680 0.896430 0.944180 -0.044307
N23   N     N_R   0.892140 0.602630 0.941800 -0.056969
N24   N     N_R   0.549680 0.103570 0.944180 -0.042449
N25   N     N_R   0.049680 0.396430 0.944180 -0.044308
N26   N     N_R   0.049680 0.603570 0.944180 -0.042450
N27   N     N_1   0.241312 0.198287 0.740104 -0.088215
N28   N     N_1   0.297049 0.814179 0.711289 -0.073571
N29   N     N_1   0.741317 0.698286 0.740101 -0.088199
N30   N     N_1   0.796967 0.314154 0.711289 -0.073570
N31   N     N_1   0.401970 0.135706 0.605181 -0.076665
N32   N     N_1   0.422646 0.857980 0.622803 -0.092367
N33   N     N_1   0.902014 0.635698 0.605172 -0.076708
N34   N     N_R   0.892140 0.397370 0.941800 -0.058672
N35   N     N_1   0.922693 0.357978 0.622828 -0.092380
N36   N     N_R   0.450890 0.896450 0.057150 -0.049265
N37   N     N_R   0.450890 0.103550 0.057150 -0.048422
N38   N     N_R   0.950890 0.396450 0.057150 -0.049267
N39   N     N_R   0.950890 0.603550 0.057150 -0.048419
N40   N     N_R   0.525160 0.027960 0.206160 -0.039399
Ni1   Ni    Ni4+2 0.433410 0.064680 0.868830 0.231616
Ni2   Ni    Ni4+2 0.433410 0.935320 0.868830 0.227376
Ni3   Ni    Ni4+2 0.933410 0.564680 0.868830 0.231621
Ni4   Ni    Ni4+2 0.933410 0.435320 0.868830 0.227365
Ni5   Ni    Ni4+2 0.565650 0.934380 0.131170 0.213676
Ni6   Ni    Ni4+2 0.565650 0.065620 0.131170 0.211792
Ni7   Ni    Ni4+2 0.065650 0.434380 0.131170 0.213696
Ni8   Ni    Ni4+2 0.065650 0.565620 0.131170 0.211789
O1    O     O_2   0.718927 0.900199 0.510973 -0.622307
O2    O     O_2   0.658005 0.144066 0.570994 -0.592281
O3    O     O_2   0.218813 0.400172 0.510780 -0.622449
O4    O     O_2   0.158338 0.644008 0.571332 -0.592346

loop_
_geom_bond_atom_site_label_1
_geom_bond_atom_site_label_2
_ccdc_geom_bond_type
C102  H58   S    
C73   C100  S    
C12   C106  S    
C96   C105  A    
C77   C92   A    
N23   N39   A    
N7    Ni4   S    
C31   H72   S    
C110  N14   A    
N6    Ni1   S    
N26   Ni3   S    
C23   C69   A    
C109  N13   A    
N5    Ni2   S    
C86   H40   S    
C42   H36   S    
C81   C84   A    
C22   C57   S    
C18   C106  A    
C56   H21   S    
N14   Ni5   S    
C57   C62   A    
N2    Ni5   S    
C23   C59   S    
C49   H14   S    
C111  H50   S    
C10   O3    D    
C4    N27   T    
N36   Ni5   S    
C95   H47   S    
C52   H17   S    
C43   N37   A    
C26   C61   S    
C52   C74   A    
C62   H22   S    
C42   C98   A    
C79   C84   A    
C20   C40   S    
C89   H43   S    
C23   C102  A    
C33   H67   S    
C27   C38   S    
C34   H4    S    
C29   C33   S    
C6    N29   T    
C21   C41   S    
C31   C40   S    
C93   C104  A    
C16   N35   T    
C67   C72   A    
C112  H51   S    
C58   H53   S    
C50   C72   A    
C69   H54   S    
C38   C104  S    
C19   C92   S    
C95   C105  A    
C75   C90   A    
C111  N15   A    
C48   H13   S    
C87   C101  A    
C78   C83   A    
C24   C80   A    
C88   N3    A    
C66   H27   S    
C52   C54   A    
N16   N17   A    
C65   C67   A    
N37   Ni6   S    
C2    C22   A    
C8    C79   S    
C87   H41   S    
C46   H9    S    
C30   H34   S    
N14   N15   A    
N16   Ni7   S    
N21   N25   A    
C88   C103  A    
C87   N2    A    
N4    Ni7   S    
C80   H55   S    
C43   H37   S    
C95   N7    A    
C2    H59   S    
N18   Ni6   S    
C19   C108  A    
C19   C109  A    
C94   C104  A    
C94   H46   S    
N1    N37   A    
C55   C60   A    
C89   C103  A    
C84   C101  S    
N5    N6    A    
C34   C41   S    
C86   N40   A    
C48   H11   S    
C27   H62   S    
N34   Ni4   S    
N12   N36   A    
C110  H49   S    
C17   H61   S    
C16   C109  S    
N34   N38   A    
C106  N9    A    
C70   C74   A    
C54   C59   A    
C13   H60   S    
C35   H5    S    
C47   N34   A    
N12   Ni2   S    
C33   H3    S    
C17   C24   A    
C70   H30   S    
C91   H57   S    
C27   C31   S    
N7    N8    A    
C18   C90   S    
C13   N25   A    
N19   N22   A    
C28   C32   S    
C35   C38   S    
C17   N26   A    
C45   C99   A    
C1    C97   A    
N19   Ni5   S    
C30   C34   S    
N10   Ni2   S    
C78   C92   A    
C26   C91   A    
C49   C55   A    
C10   C82   S    
C50   C56   A    
C47   C100  A    
C25   N12   A    
C51   C53   A    
C36   N23   A    
C45   N39   A    
C15   C108  S    
N20   Ni8   S    
N9    N10   A    
C40   C46   S    
N11   Ni3   S    
C94   N6    A    
N22   Ni2   S    
C54   H19   S    
N40   Ni6   S    
N24   Ni1   S    
C20   C111  A    
C66   C71   A    
C37   H7    S    
C63   C70   A    
C28   C38   S    
C24   C60   S    
C32   H2    S    
N1    Ni1   S    
C29   C39   S    
C14   N32   T    
C34   H71   S    
C18   C107  A    
C108  N11   A    
C67   H28   S    
C102  N22   A    
C64   C66   A    
C31   H45   S    
C9    H68   S    
C75   H31   S    
C3    H52   S    
C20   C110  A    
C65   H26   S    
C78   H35   S    
N23   Ni3   S    
C14   C107  S    
C29   H23   S    
N38   Ni7   S    
C69   N19   A    
C93   N5    A    
C32   H56   S    
N25   Ni4   S    
C41   C48   S    
C3    N17   A    
C89   N4    A    
C5    C25   S    
C13   C26   A    
C3    C21   A    
C2    N24   A    
C51   H16   S    
C29   H64   S    
C77   H33   S    
C21   C112  A    
N39   Ni8   S    
C76   C90   A    
C11   O4    D    
C39   C105  S    
C5    N28   T    
N2    N40   A    
C71   C98   S    
C53   C57   A    
C96   H48   S    
C9    O2    D    
C59   C63   A    
N15   Ni6   S    
C93   H44   S    
C46   H10   S    
C51   C73   A    
C76   H32   S    
C85   C103  S    
C76   C81   A    
C22   C58   A    
C28   H12   S    
C28   H63   S    
C74   C99   S    
C53   H18   S    
C1    N1    A    
C27   H1    S    
C82   C85   A    
C7    C47   S    
C35   C46   S    
C42   N36   A    
C72   C97   S    
C62   C68   A    
C60   C64   A    
C1    C4    S    
C33   C41   S    
C63   H24   S    
C96   N8    A    
C68   C73   A    
N9    Ni1   S    
N3    N4    A    
C37   C39   S    
C91   N21   A    
C8    O1    D    
C37   C48   S    
C44   C100  A    
C11   C83   S    
C15   N33   T    
C80   N20   A    
C37   H8    S    
C77   C82   A    
N8    Ni3   S    
C30   H65   S    
C6    C36   S    
C30   C39   S    
C43   C97   A    
C36   C99   A    
C32   C40   S    
C61   C65   A    
C11   H70   S    
C83   C85   A    
C44   H38   S    
C7    N30   T    
N21   Ni7   S    
N13   Ni4   S    
C8    H66   S    
C25   C98   A    
C44   N38   A    
N17   Ni8   S    
C55   H20   S    
C49   C71   A    
N20   N26   A    
C64   H25   S    
C10   H69   S    
C56   C61   A    
C9    C81   S    
C35   H6    S    
N18   N24   A    
C50   H15   S    
C12   N31   T    
C45   H39   S    
C86   C101  A    
C75   C79   A    
C112  N16   A    
C107  N10   A    
C68   H29   S    
C58   N18   A    
C88   H42   S    
N11   N13   A    
N3    Ni8   S    
