data_mof_unit_26828.cif
_audit_creation_date              2012-10-26T20:22:07-0400
_audit_creation_method            fapswitch 2.2
_symmetry_space_group_name_H-M    P1
_symmetry_Int_Tables_number       1
_space_group_crystal_system       triclinic
_cell_length_a                    10.88294
_cell_length_b                    9.570408
_cell_length_c                    10.776603
_cell_angle_alpha                 91.264156
_cell_angle_beta                  93.505916
_cell_angle_gamma                 90.848957
_cell_volume                      1119.90790788

loop_
_atom_site_label
_atom_site_type_symbol
_atom_type_description
_atom_site_fract_x
_atom_site_fract_y
_atom_site_fract_z
_atom_type_partial_charge
C1    C     C_R   0.869934 0.500244 0.474325 0.031772
C2    C     C_3   0.555273 0.387762 0.037374 0.005124
C3    C     C_3   0.437449 0.385915 0.947764 0.244661
C4    C     C_3   0.551175 0.617362 0.048640 0.288947
C5    C     C_3   0.495881 0.506523 0.876058 0.027863
C6    C     C_3   0.494598 0.497323 0.122103 0.015761
C7    C     C_R   0.423051 0.070935 0.419079 0.328587
C8    C     C_R   0.576052 0.927010 0.583448 0.325103
C9    C     C_R   0.575318 0.077990 0.584224 0.339588
C10   C     C_R   0.420496 0.920902 0.420388 0.339758
C11   C     C_R   0.060286 0.374060 0.455394 0.066190
C12   C     C_R   0.127272 0.495993 0.497114 0.022696
C13   C     C_R   0.938775 0.625435 0.489925 0.090910
C14   C     C_R   0.931109 0.374197 0.450825 0.060460
C15   C     C_R   0.063270 0.618573 0.525666 0.054865
C16   C     C_3   0.403887 0.122618 0.216554 -0.083816
C17   C     C_3   0.765955 0.875069 0.682529 -0.058486
C18   C     C_3   0.637062 0.135903 0.787926 -0.089258
C19   C     C_3   0.221910 0.879113 0.331968 -0.091514
C20   C     C_3   0.354272 0.158973 0.926171 -0.142488
C21   C     C_3   0.672853 0.815066 0.027011 -0.119133
C22   C     C_R   0.262091 0.498869 0.501684 0.566856
C23   C     C_R   0.736682 0.500360 0.489254 0.565332
C24   C     C_R   0.496774 0.498752 0.259152 0.563230
C25   C     C_R   0.499261 0.501992 0.740184 0.581717
C26   C     C_3   0.378524 0.496379 0.030901 0.081776
C27   C     C_3   0.611522 0.507596 0.966319 0.027792
C28   C     C_3   0.435106 0.615116 0.959403 0.096864
Cu1   Cu    Cu3+1 0.500000 0.640660 0.500000 1.076731
Cu2   Cu    Cu3+1 0.500000 0.359340 0.500000 1.088449
H1    H     H_    0.505752 0.109094 0.222929 0.154527
H2    H     H_    0.197304 0.946841 0.411712 0.096398
H3    H     H_    0.164868 0.782187 0.332033 0.142044
H4    H     H_    0.195276 0.932111 0.244239 0.127383
H5    H     H_    0.277029 0.167255 0.988309 0.111029
H6    H     H_    0.440549 0.120668 0.972879 0.120241
H7    H     H_    0.325616 0.079666 0.853066 0.144420
H8    H     H_    0.682552 0.924424 0.063031 0.122602
H9    H     H_    0.628079 0.818670 0.931710 0.148910
H10   H     H_    0.766774 0.772169 0.023438 0.149168
H11   H     H_    0.194507 0.483870 0.988028 0.253366
H12   H     H_    0.385099 0.218506 0.164825 0.158520
H13   H     H_    0.240490 0.402064 0.118527 0.221313
H14   H     H_    0.796038 0.501027 0.006349 0.233455
H15   H     H_    0.749538 0.429334 0.867482 0.232827
H16   H     H_    0.349736 0.798084 0.993438 0.248864
H17   H     H_    0.423696 0.794938 0.861262 0.235097
H18   H     H_    0.691298 0.244284 0.024493 0.207508
H19   H     H_    0.674068 0.303933 0.167510 0.251255
H20   H     H_    0.096413 0.222852 0.327790 0.226257
H21   H     H_    0.098725 0.168544 0.477481 0.221218
H22   H     H_    0.851639 0.754044 0.369267 0.236349
H23   H     H_    0.360523 0.032454 0.163650 0.114900
H24   H     H_    0.949984 0.838510 0.470064 0.224700
H25   H     H_    0.885659 0.171090 0.480259 0.238157
H26   H     H_    0.883721 0.214961 0.327752 0.207565
H27   H     H_    0.160603 0.684742 0.683727 0.256150
H28   H     H_    0.180864 0.786978 0.559714 0.249144
H29   H     H_    0.799585 0.945045 0.610209 0.143212
H30   H     H_    0.809825 0.771861 0.676178 0.196862
H31   H     H_    0.798092 0.916947 0.775493 0.092903
H32   H     H_    0.602789 0.233122 0.827025 0.186145
H33   H     H_    0.726047 0.117672 0.839840 0.089379
H34   H     H_    0.570617 0.050794 0.807347 0.116531
N1    N     N_R   0.500000 0.852070 0.500000 -0.253739
N2    N     N_3   0.116849 0.728811 0.605168 -0.643454
N3    N     N_R   0.500000 0.147930 0.500000 -0.249054
N4    N     N_3   0.252400 0.493248 0.068866 -0.605035
N5    N     N_3   0.737289 0.514641 0.927327 -0.642771
N6    N     N_3   0.366817 0.736146 0.915475 -0.621954
N7    N     N_3   0.624585 0.269536 0.086144 -0.683837
N8    N     N_3   0.123006 0.249823 0.420150 -0.558690
N9    N     N_3   0.883868 0.757880 0.462735 -0.624907
N10   N     N_3   0.862076 0.248540 0.416602 -0.598266
O1    O     O_R   0.319640 0.618740 0.499990 -0.508455
O2    O     O_3   0.637189 0.853569 0.677555 -0.564526
O3    O     O_3   0.658086 0.155557 0.661384 -0.541996
O4    O     O_3   0.347416 0.841539 0.334174 -0.516189
O5    O     O_3   0.372173 0.286387 0.868600 -0.557353
O6    O     O_3   0.604360 0.737932 0.109506 -0.547084
O7    O     O_R   0.680360 0.381260 0.500010 -0.442031
O8    O     O_R   0.680360 0.618740 0.500010 -0.472607
O9    O     O_R   0.319640 0.381260 0.499990 -0.430476
O10   O     O_R   0.499970 0.618770 0.316850 -0.419213
O11   O     O_R   0.500030 0.381230 0.683150 -0.459003
O12   O     O_R   0.500030 0.618770 0.683150 -0.474598
O13   O     O_R   0.499970 0.381230 0.316850 -0.505975
O14   O     O_3   0.351904 0.140412 0.331886 -0.543521

loop_
_geom_bond_atom_site_label_1
_geom_bond_atom_site_label_2
_ccdc_geom_bond_type
C8    C9    A    
C7    C10   A    
C23   O8    A    
H27   N2    S    
C3    O5    S    
C10   O4    S    
C16   H1    S    
C14   N10   S    
C4    O6    S    
C11   C14   A    
C18   H33   S    
H24   N9    S    
C12   C22   S    
C8    O2    S    
Cu2   O9    S    
H20   N8    S    
C16   H23   S    
C17   H31   S    
C5    C27   S    
C20   H5    S    
H28   N2    S    
C21   H8    S    
H13   N4    S    
C17   O2    S    
C2    C27   S    
Cu2   N3    S    
C27   N5    S    
C8    N1    A    
H25   N10   S    
C2    C6    S    
C22   O1    A    
C19   H2    S    
C4    C28   S    
H11   N4    S    
H26   N10   S    
H15   N5    S    
Cu1   O10   S    
C4    C6    S    
H22   N9    S    
C19   H3    S    
C11   N8    S    
C18   H32   S    
C15   N2    S    
C19   O4    S    
C9    N3    A    
H17   N6    S    
Cu1   Cu2   S    
C5    C28   S    
C7    O14   S    
C21   H9    S    
C12   C15   A    
C6    C24   S    
C25   O11   A    
H14   N5    S    
C9    O3    S    
Cu2   O11   S    
Cu1   O12   S    
C17   H29   S    
C5    C25   S    
C13   N9    S    
C1    C23   S    
C13   C15   A    
Cu1   N1    S    
C1    C13   A    
H21   N8    S    
H18   N7    S    
C2    N7    S    
C16   H12   S    
C4    C27   S    
C10   N1    A    
C23   O7    A    
C20   O5    S    
C3    C26   S    
C28   N6    S    
C3    C5    S    
C19   H4    S    
C11   C12   A    
Cu1   O1    S    
C26   C28   S    
C26   N4    S    
C22   O9    A    
Cu2   O7    S    
C2    C3    S    
C24   O10   A    
Cu1   O8    S    
C20   H7    S    
C18   H34   S    
C6    C26   S    
C21   H10   S    
C18   O3    S    
C21   O6    S    
C25   O12   A    
C24   O13   A    
H16   N6    S    
C17   H30   S    
C7    N3    A    
C20   H6    S    
H19   N7    S    
C16   O14   S    
C1    C14   A    
Cu2   O13   S    
