data_mof_unit_43596.cif
_audit_creation_date              2012-12-10T17:31:27-0500
_audit_creation_method            fapswitch 2.2
_symmetry_space_group_name_H-M    P1
_symmetry_Int_Tables_number       1
_space_group_crystal_system       triclinic
_cell_length_a                    18.929639
_cell_length_b                    18.728565
_cell_length_c                    12.439751
_cell_angle_alpha                 89.661838
_cell_angle_beta                  129.92567
_cell_angle_gamma                 90.34678
_cell_volume                      3382.01217554

loop_
_atom_site_label
_atom_site_type_symbol
_atom_type_description
_atom_site_fract_x
_atom_site_fract_y
_atom_site_fract_z
_atom_type_partial_charge
C1    C     C_R   0.611978 0.897936 0.653118 0.826460
C2    C     C_R   0.610372 0.103215 0.650411 0.820377
C3    C     C_R   0.111979 0.397937 0.653118 0.826454
C4    C     C_R   0.110372 0.603216 0.650410 0.820380
C5    C     C_R   0.252821 0.765576 0.053422 0.103390
C6    C     C_R   0.264619 0.245599 0.073888 0.102193
C7    C     C_R   0.752821 0.265575 0.053425 0.103404
C8    C     C_R   0.764621 0.745597 0.073887 0.102187
C9    C     C_R   0.687795 0.241275 0.066252 0.102446
C10   C     C_R   0.696176 0.764962 0.081941 0.113675
C11   C     C_R   0.187797 0.741275 0.066253 0.102485
C12   C     C_R   0.196168 0.264956 0.081932 0.113676
C13   C     C_R   0.609700 0.205261 0.955696 -0.215800
C14   C     C_R   0.617459 0.799496 0.969757 -0.219174
C15   C     C_R   0.109701 0.705260 0.955698 -0.215762
C16   C     C_R   0.117450 0.299489 0.969745 -0.219178
C17   C     C_R   0.598728 0.190960 0.836818 -0.162772
C18   C     C_R   0.606713 0.813522 0.850769 -0.166049
C19   C     C_R   0.098729 0.690960 0.836818 -0.162805
C20   C     C_R   0.106708 0.313518 0.850760 -0.166040
C21   C     C_R   0.310039 0.821736 0.139578 -0.220300
C22   C     C_R   0.323081 0.189802 0.159277 -0.215135
C23   C     C_R   0.810041 0.321733 0.139581 -0.220307
C24   C     C_R   0.823075 0.689796 0.159268 -0.215135
C25   C     C_R   0.267542 0.804830 0.285185 0.162350
C26   C     C_R   0.269125 0.193531 0.291327 0.161284
C27   C     C_R   0.767537 0.304833 0.285181 0.162374
C28   C     C_R   0.769134 0.693537 0.291337 0.161278
C29   C     C_R   0.673209 0.163633 0.735535 -0.155218
C30   C     C_R   0.679754 0.841754 0.746645 -0.143577
C31   C     C_R   0.173208 0.663634 0.735533 -0.155211
C32   C     C_R   0.179757 0.341756 0.746648 -0.143604
C33   C     C_R   0.685912 0.000528 0.286197 -0.291361
C34   C     C_R   0.185911 0.500530 0.286197 -0.291362
C35   C     C_R   0.343663 0.986149 0.625172 0.147537
C36   C     C_R   0.843663 0.486151 0.625172 0.147539
C37   C     C_R   0.313630 0.959300 0.694138 -0.209791
C38   C     C_R   0.813629 0.459302 0.694137 -0.209776
C39   C     C_R   0.387408 0.101559 0.347474 0.838951
C40   C     C_R   0.385913 0.899281 0.345486 0.842145
C41   C     C_R   0.887408 0.601558 0.347473 0.838952
C42   C     C_R   0.885912 0.399281 0.345486 0.842144
C43   C     C_R   0.375702 0.953106 0.839510 -0.167968
C44   C     C_R   0.875702 0.453106 0.839509 -0.167976
C45   C     C_R   0.464714 0.982651 0.919209 0.023865
C46   C     C_R   0.964714 0.482651 0.919209 0.023868
C47   C     C_R   0.496135 0.997457 0.843189 0.261049
C48   C     C_R   0.996135 0.497457 0.843189 0.261057
C49   C     C_R   0.526806 0.990080 0.070687 -0.054909
C50   C     C_R   0.026805 0.490079 0.070687 -0.054907
C51   C     C_R   0.621721 0.997038 0.140626 0.096358
C52   C     C_R   0.121721 0.497038 0.140626 0.096364
C53   C     C_R   0.652929 0.001258 0.065176 -0.229498
C54   C     C_R   0.152929 0.501258 0.065176 -0.229502
C55   C     C_R   0.591470 0.003083 0.919869 -0.170601
C56   C     C_R   0.091470 0.503082 0.919869 -0.170603
C57   C     C_R   0.499941 0.995839 0.155815 0.284901
C58   C     C_R   0.999941 0.495837 0.155815 0.284912
C59   C     C_R   0.657906 0.000566 0.365544 0.330229
C60   C     C_R   0.157906 0.500569 0.365544 0.330228
C61   C     C_R   0.698515 0.257864 0.185198 -0.181246
C62   C     C_R   0.702817 0.743030 0.195474 -0.180573
C63   C     C_R   0.198520 0.757861 0.185203 -0.181246
C64   C     C_R   0.202806 0.243021 0.195461 -0.180573
C65   C     C_R   0.320237 0.841285 0.257561 -0.105952
C66   C     C_R   0.325784 0.162341 0.266736 -0.112479
C67   C     C_R   0.820236 0.341285 0.257560 -0.105966
C68   C     C_R   0.825785 0.662341 0.266737 -0.112477
C69   C     C_R   0.741671 0.180882 0.727496 -0.211488
C70   C     C_R   0.751390 0.828442 0.744204 -0.240225
C71   C     C_R   0.241668 0.680886 0.727490 -0.211494
C72   C     C_R   0.251401 0.328450 0.744221 -0.240130
C73   C     C_R   0.320216 0.719023 0.834828 0.276908
C74   C     C_R   0.333544 0.297480 0.859309 0.275676
C75   C     C_R   0.820219 0.219016 0.834837 0.276923
C76   C     C_R   0.833532 0.797467 0.859281 0.275731
C77   C     C_R   0.329065 0.742699 0.949926 0.089632
C78   C     C_R   0.343204 0.276049 0.976610 0.128577
C79   C     C_R   0.829067 0.242694 0.949933 0.089620
C80   C     C_R   0.843200 0.776034 0.976587 0.128598
C81   C     C_R   0.752590 0.237157 0.947340 -0.002877
C82   C     C_R   0.764659 0.776129 0.969084 -0.010163
C83   C     C_R   0.252589 0.737160 0.947336 -0.002885
C84   C     C_R   0.264659 0.276134 0.969090 -0.010166
C85   C     C_R   0.673767 0.197512 0.837891 0.051460
C86   C     C_R   0.682704 0.810245 0.853620 0.055568
C87   C     C_R   0.173767 0.697514 0.837889 0.051453
C88   C     C_R   0.182703 0.310245 0.853619 0.055565
Cu1   Cu    Cu3+1 0.526340 0.000000 0.421010 1.015639
Cu2   Cu    Cu3+1 0.026340 0.500000 0.421010 1.015643
Cu3   Cu    Cu3+1 0.473640 0.000000 0.578990 0.955049
Cu4   Cu    Cu3+1 0.973640 0.500000 0.578990 0.955051
H1    H     H_    0.726003 0.005219 0.119281 0.165876
H2    H     H_    0.226003 0.505220 0.119281 0.165875
H3    H     H_    0.758852 0.003740 0.339171 0.174324
H4    H     H_    0.258852 0.503744 0.339171 0.174321
H5    H     H_    0.296504 0.987669 0.511857 0.164314
H6    H     H_    0.796504 0.487672 0.511857 0.164314
H7    H     H_    0.354658 0.921458 0.887330 0.179454
H8    H     H_    0.854657 0.421457 0.887328 0.179450
H9    H     H_    0.243834 0.939586 0.634621 0.179158
H10   H     H_    0.743833 0.439589 0.634620 0.179162
H11   H     H_    0.621946 0.005786 0.871673 0.208855
H12   H     H_    0.121946 0.505786 0.871673 0.208854
H13   H     H_    0.554481 0.192395 0.957333 0.186705
H14   H     H_    0.560692 0.809383 0.968731 0.179292
H15   H     H_    0.054484 0.692394 0.957337 0.186758
H16   H     H_    0.060683 0.309375 0.968716 0.179279
H17   H     H_    0.653357 0.233993 0.200514 0.198678
H18   H     H_    0.654456 0.762629 0.207131 0.196968
H19   H     H_    0.153366 0.733986 0.200522 0.198673
H20   H     H_    0.154440 0.262616 0.207111 0.196971
H21   H     H_    0.343686 0.852627 0.110474 0.202444
H22   H     H_    0.362388 0.164287 0.135548 0.214055
H23   H     H_    0.843691 0.352622 0.110480 0.202446
H24   H     H_    0.862369 0.664273 0.135525 0.214064
H25   H     H_    0.737160 0.160138 0.642383 0.207720
H26   H     H_    0.747600 0.848284 0.658724 0.203282
H27   H     H_    0.237157 0.660143 0.642375 0.207726
H28   H     H_    0.247617 0.348293 0.658748 0.203285
H29   H     H_    0.530976 0.173899 0.745811 0.193122
H30   H     H_    0.537860 0.826757 0.757732 0.193709
H31   H     H_    0.030977 0.673898 0.745812 0.193134
H32   H     H_    0.037857 0.326753 0.757720 0.193704
N1    N     N_R   0.566260 0.000000 0.302220 -0.198263
N2    N     N_R   0.066260 0.500000 0.302220 -0.198259
N3    N     N_R   0.434410 0.000000 0.697680 -0.215493
N4    N     N_R   0.934410 0.500000 0.697680 -0.215493
O1    O     O_R   0.608610 0.924520 0.551740 -0.546038
O2    O     O_R   0.608610 0.075480 0.551740 -0.547349
O3    O     O_R   0.108610 0.424520 0.551740 -0.546037
O4    O     O_R   0.108610 0.575480 0.551740 -0.547343
O5    O     O_R   0.564110 0.924510 0.685150 -0.610828
O6    O     O_R   0.564110 0.075490 0.685150 -0.615372
O7    O     O_R   0.064110 0.424510 0.685150 -0.610827
O8    O     O_R   0.064110 0.575490 0.685150 -0.615372
O9    O     O_R   0.435880 0.075470 0.314850 -0.553676
O10   O     O_R   0.435880 0.924530 0.314850 -0.556454
O11   O     O_R   0.935880 0.575470 0.314850 -0.553671
O12   O     O_R   0.935880 0.424530 0.314850 -0.556455
O13   O     O_R   0.391380 0.075460 0.448260 -0.568377
O14   O     O_R   0.391380 0.924540 0.448260 -0.572468
O15   O     O_R   0.891380 0.575460 0.448260 -0.568378
O16   O     O_R   0.891380 0.424540 0.448260 -0.572469
I1    I     I_    0.283919 0.813762 0.469889 -0.434117
I2    I     I_    0.271850 0.170365 0.461912 -0.377413
I3    I     I_    0.783905 0.313771 0.469876 -0.434068
I4    I     I_    0.771863 0.670375 0.461929 -0.377436
I5    I     I_    0.356244 0.013660 0.051495 -0.387437
I6    I     I_    0.856244 0.513654 0.051496 -0.387433
I7    I     I_    0.468205 0.764950 0.135167 -0.396260
I8    I     I_    0.482197 0.262908 0.168976 -0.388552
I9    I     I_    0.968206 0.264939 0.135180 -0.396255
I10   I     I_    0.982193 0.762859 0.168931 -0.388622
N5    N     N_2   0.393765 0.730987 0.832736 -0.422462
H33   H     H_    0.392176 0.780382 0.794296 0.269870
C89   C     C_3   0.420720 0.672718 0.789968 -0.593205
H34   H     H_    0.489765 0.683982 0.823031 0.235586
H35   H     H_    0.371328 0.666968 0.674199 0.241921
H36   H     H_    0.424767 0.622049 0.840598 0.253758
N6    N     N_2   0.408516 0.291194 0.859600 -0.423877
H37   H     H_    0.389629 0.268018 0.769405 0.272218
C90   C     C_3   0.460151 0.356510 0.892818 -0.612502
H38   H     H_    0.521258 0.345341 0.901791 0.235319
H39   H     H_    0.484383 0.378738 0.994069 0.260545
H40   H     H_    0.416953 0.396732 0.808780 0.239045
N7    N     N_2   0.893771 0.230977 0.832750 -0.422474
H41   H     H_    0.892196 0.280375 0.794337 0.269864
C91   C     C_3   0.920716 0.172712 0.789965 -0.593242
H42   H     H_    0.989760 0.183976 0.823029 0.235594
H43   H     H_    0.871323 0.166968 0.674197 0.241921
H44   H     H_    0.924759 0.122041 0.840582 0.253765
N8    N     N_2   0.908486 0.791166 0.859526 -0.423824
H45   H     H_    0.889542 0.768042 0.769246 0.272231
C92   C     C_3   0.960175 0.856465 0.892842 -0.612658
H46   H     H_    0.021136 0.845329 0.901426 0.235262
H47   H     H_    0.984639 0.878549 0.994301 0.260604
H48   H     H_    0.916941 0.896784 0.809064 0.239099
I11   I     I_    0.766498 0.003911 0.584934 -0.434719
I12   I     I_    0.266497 0.503919 0.584933 -0.434742

loop_
_geom_bond_atom_site_label_1
_geom_bond_atom_site_label_2
_ccdc_geom_bond_type
C83   C87   A    
C39   O9    A    
C89   H34   S    
C40   O14   A    
N5    C89   S    
C91   H42   S    
C14   C18   A    
C53   C55   A    
C90   H38   S    
C61   H17   S    
C77   I7    S    
N6    H37   S    
C78   I8    S    
C32   C72   A    
Cu4   O8    S    
N8    H45   S    
C15   C19   A    
Cu3   O6    S    
C19   H31   S    
C2    O6    A    
Cu3   N3    S    
C37   H9    S    
C2    C29   S    
C9    C61   A    
C76   N8    S    
C90   H39   S    
C34   H4    S    
C41   O15   A    
C11   C63   A    
C6    C12   A    
C12   C64   A    
C64   H20   S    
C79   I9    S    
C77   C83   A    
C23   C67   A    
C6    C22   A    
C55   H11   S    
C49   C57   A    
C48   C56   A    
C25   C63   A    
C15   H15   S    
C60   N2    A    
C26   I2    S    
Cu4   O15   S    
C26   C64   A    
C22   C66   A    
C9    C13   A    
C69   H25   S    
C27   C61   A    
C30   C70   A    
C11   C15   A    
C12   C16   A    
C41   O11   A    
C52   C54   A    
C49   C51   A    
C21   H21   S    
C40   O10   A    
Cu2   O12   S    
C50   C52   A    
C47   N3    A    
C30   C86   A    
C29   C85   A    
C4    O8    A    
Cu3   O14   S    
Cu2   O4    S    
C45   C47   A    
C1    O1    A    
C89   H35   S    
C34   C60   A    
C91   H43   S    
C72   H28   S    
C10   C62   A    
C1    O5    A    
C33   H3    S    
C21   C65   A    
N6    C90   S    
C58   N2    A    
C44   C46   A    
Cu2   O11   S    
C92   H48   S    
C29   C69   A    
N8    C92   S    
C46   C48   A    
C28   I4    S    
C13   H13   S    
C6    C84   A    
C53   H1    S    
C26   C66   A    
C39   O13   A    
C90   H40   S    
C31   C87   A    
C56   H12   S    
C92   H47   S    
C10   C14   A    
N7    H41   S    
C79   C81   A    
C2    O2    A    
Cu1   N1    S    
C17   C85   A    
C82   C86   A    
C24   C68   A    
C42   O12   A    
Cu1   O2    S    
N7    C91   S    
C57   I5    S    
C51   C53   A    
C50   C58   A    
C37   C43   A    
C5    C83   A    
C38   C44   A    
C54   H2    S    
C4    O4    A    
C48   N4    A    
Cu2   Cu4   S    
C92   H46   S    
Cu3   O5    S    
C45   C49   A    
C16   C20   A    
C73   N5    S    
Cu2   N2    S    
C25   C65   A    
C18   C86   A    
C35   N3    A    
C43   C45   A    
C18   H30   S    
Cu2   O3    S    
C72   C74   A    
C7    C81   A    
C24   H24   S    
C89   H36   S    
Cu1   O9    S    
C40   C65   S    
C5    C11   A    
C42   O16   A    
C42   C67   S    
C39   C66   S    
C3    O3    A    
Cu4   O7    S    
Cu1   Cu3   S    
C70   C76   A    
C36   N4    A    
C35   C37   A    
C47   C55   A    
C17   H29   S    
C7    C9    A    
C41   C68   S    
Cu4   N4    S    
C28   C68   A    
C34   C52   A    
C8    C10   A    
C60   I12   S    
C76   C80   A    
C43   H7    S    
C74   N6    S    
C75   N7    S    
C54   C56   A    
C80   I10   S    
C13   C17   A    
C33   C51   A    
C46   C50   A    
C22   H22   S    
C19   C87   A    
C71   H27   S    
C36   C38   A    
C38   H10   S    
C27   I3    S    
C59   N1    A    
C57   N1    A    
C44   H8    S    
C84   C88   A    
C62   H18   S    
C70   H26   S    
C7    C23   A    
C20   C88   A    
C59   I11   S    
C1    C30   S    
C8    C24   A    
C80   C82   A    
C69   C75   A    
C3    O7    A    
C63   H19   S    
C3    C32   S    
Cu4   O16   S    
C20   H32   S    
C4    C31   S    
C27   C67   A    
C16   H16   S    
C23   H23   S    
C78   C84   A    
C8    C82   A    
C5    C21   A    
C33   C59   A    
Cu1   O10   S    
C74   C78   A    
C14   H14   S    
C71   C73   A    
N5    H33   S    
C73   C77   A    
C25   I1    S    
C36   H6    S    
C91   H44   S    
C35   H5    S    
Cu1   O1    S    
C75   C79   A    
C81   C85   A    
C58   I6    S    
C28   C62   A    
C31   C71   A    
Cu3   O13   S    
C32   C88   A    
