data_mof_unit_56937.cif
_audit_creation_date              2012-12-10T18:12:44-0500
_audit_creation_method            fapswitch 2.2
_symmetry_space_group_name_H-M    P1
_symmetry_Int_Tables_number       1
_space_group_crystal_system       triclinic
_cell_length_a                    12.624376
_cell_length_b                    13.157877
_cell_length_c                    15.733076
_cell_angle_alpha                 90.729508
_cell_angle_beta                  102.953366
_cell_angle_gamma                 82.342624
_cell_volume                      2523.80767366

loop_
_atom_site_label
_atom_site_type_symbol
_atom_type_description
_atom_site_fract_x
_atom_site_fract_y
_atom_site_fract_z
_atom_type_partial_charge
C1    C     C_R   0.438852 0.691194 0.491715 0.941230
C2    C     C_R   0.598695 0.199946 0.521664 -0.066582
C3    C     C_R   0.314520 0.829449 0.406835 -0.270020
C4    C     C_R   0.501383 0.499930 0.661883 0.946149
C5    C     C_R   0.311520 0.919861 0.361848 -0.159263
C6    C     C_R   0.393518 0.982055 0.388484 0.394802
C7    C     C_R   0.469342 0.962855 0.470988 -0.052682
C8    C     C_R   0.470430 0.871380 0.517552 -0.099908
C9    C     C_R   0.545149 0.029749 0.508311 0.044135
C10   C     C_R   0.634238 0.996800 0.579277 0.002038
C11   C     C_R   0.633175 0.906502 0.625332 0.295632
C12   C     C_3   0.503794 0.502436 0.917367 0.095442
C13   C     C_R   0.545204 0.850131 0.599395 0.314080
C14   C     C_R   0.525546 0.133104 0.485071 -0.123116
C15   C     C_R   0.697654 0.162935 0.578804 -0.209109
C16   C     C_R   0.561116 0.308871 0.509729 0.857071
C17   C     C_R   0.400676 0.800385 0.478637 -0.045350
C18   C     C_R   0.091256 0.338090 0.388981 -0.258234
C19   C     C_R   0.799027 0.627426 0.604696 0.028442
C20   C     C_R   0.905465 0.648057 0.635299 -0.254076
C21   C     C_R   0.990620 0.595422 0.601999 0.079036
C22   C     C_R   0.966187 0.525398 0.532367 0.017694
C23   C     C_3   0.432974 0.433014 0.013898 -0.310861
C24   C     C_R   0.856424 0.502649 0.508067 0.180162
C25   C     C_R   0.044452 0.473929 0.487846 -0.002880
C26   C     C_R   0.014703 0.393132 0.429980 0.158767
C27   C     C_R   0.908373 0.368860 0.412148 -0.229585
C28   C     C_R   0.498716 0.499794 0.338126 0.889746
C29   C     C_R   0.830036 0.424488 0.449040 -0.167673
C30   C     C_R   0.150095 0.500975 0.495002 -0.017689
C31   C     C_R   0.196260 0.364406 0.404025 0.024981
C32   C     C_3   0.461504 0.596609 0.022795 -0.195177
C33   C     C_3   0.567085 0.569302 0.986840 -0.217775
C34   C     C_3   0.496824 0.500441 0.082763 0.048205
C35   C     C_1   0.503979 0.501057 0.751240 -0.113437
C36   C     C_1   0.495919 0.499657 0.248729 -0.134143
C37   C     C_3   0.400935 0.528502 0.953260 0.145113
C38   C     C_3   0.537825 0.408962 0.978535 0.048667
C39   C     C_3   0.601495 0.473790 0.048282 0.445592
C40   C     C_1   0.504812 0.501948 0.826659 0.022969
C41   C     C_1   0.495242 0.499910 0.173329 0.034662
C42   C     C_R   0.714866 0.061630 0.608708 -0.096945
Cl1   Cl    Cl    0.408791 0.066454 0.306716 -0.645797
Cl2   Cl    Cl    0.521612 0.762334 0.675500 -0.582998
Cl3   Cl    Cl    0.735388 0.435300 0.113542 -0.587443
Cl4   Cl    Cl    0.732943 0.870486 0.722348 -0.595470
H1    H     H_    0.622068 0.623969 0.974645 0.197180
H2    H     H_    0.427823 0.673525 0.042076 0.176087
H3    H     H_    0.922698 0.701966 0.687577 0.201571
H4    H     H_    0.749253 0.403558 0.431117 0.215274
H5    H     H_    0.378139 0.377835 0.025375 0.178014
H6    H     H_    0.755970 0.214268 0.607001 0.166859
H7    H     H_    0.787250 0.037408 0.659138 0.195951
H8    H     H_    0.112032 0.584553 0.711248 0.206563
H9    H     H_    0.110106 0.684304 0.643884 0.204867
H10   H     H_    0.594789 0.258972 0.007213 0.227510
H11   H     H_    0.519330 0.281666 0.905430 0.190367
H12   H     H_    0.446784 0.164888 0.445996 0.190038
H13   H     H_    0.237489 0.570215 0.940646 0.199190
H14   H     H_    0.270604 0.498131 0.859324 0.184084
H15   H     H_    0.259029 0.775917 0.377911 0.178429
H16   H     H_    0.252312 0.935479 0.300496 0.186838
H17   H     H_    0.257339 0.321563 0.374280 0.158758
H18   H     H_    0.884801 0.307968 0.367668 0.178061
H19   H     H_    0.070091 0.275354 0.345927 0.166861
H20   H     H_    0.177287 0.567423 0.528720 0.170231
H21   H     H_    0.734008 0.665760 0.632573 0.211261
N1    N     N_R   0.222180 0.444680 0.455580 -0.118969
N2    N     N_R   0.776980 0.554790 0.543960 -0.141459
N3    N     N_3   0.100630 0.606664 0.645858 -0.471900
N4    N     N_3   0.581188 0.307936 0.952961 -0.404144
N5    N     N_3   0.291952 0.559757 0.899142 -0.433164
O1    O     O_R   0.366730 0.627160 0.478790 -0.626839
O2    O     O_R   0.544830 0.662520 0.507160 -0.601464
O3    O     O_R   0.410960 0.482330 0.609040 -0.614634
O4    O     O_R   0.589060 0.517690 0.637410 -0.588213
O5    O     O_R   0.455170 0.337480 0.492840 -0.620668
O6    O     O_R   0.633270 0.372840 0.521210 -0.643098
O7    O     O_R   0.410940 0.482310 0.362590 -0.609790
O8    O     O_R   0.589040 0.517670 0.390960 -0.622012
Zn1   Zn    Zn3+2 0.381080 0.476390 0.481050 0.964093
Zn2   Zn    Zn3+2 0.618920 0.523610 0.518950 0.969866

loop_
_geom_bond_atom_site_label_1
_geom_bond_atom_site_label_2
_ccdc_geom_bond_type
C8    C13   A    
C27   C29   A    
C19   C20   A    
C18   C26   A    
C7    C8    A    
C18   H19   S    
C26   C27   A    
C33   C39   S    
C1    O2    A    
C42   H7    S    
C5    C6    A    
C10   C42   A    
H14   N5    S    
C16   O5    A    
C12   C37   S    
C28   O7    A    
C24   C29   A    
C4    O3    A    
N2    Zn2   S    
C22   C25   A    
C19   H21   S    
C2    C16   S    
C9    C10   A    
H13   N5    S    
C39   Cl3   S    
C23   C34   S    
C4    C35   S    
C21   C22   A    
C32   H2    S    
C36   C41   T    
C34   C41   S    
O2    Zn2   S    
C28   O8    A    
O1    Zn1   S    
C24   N2    A    
C29   H4    S    
C3    H15   S    
C31   N1    A    
C14   H12   S    
C32   C37   S    
C34   C39   S    
C31   H17   S    
O8    Zn2   S    
C27   H18   S    
O4    Zn2   S    
O7    Zn1   S    
O3    Zn1   S    
C25   C26   A    
C23   C37   S    
C32   C34   S    
C12   C40   S    
C9    C14   A    
C20   H3    S    
O6    Zn2   S    
C23   H5    S    
H8    N3    S    
O5    Zn1   S    
H10   N4    S    
C15   H6    S    
H11   N4    S    
C2    C15   A    
C30   H20   S    
C6    Cl1   S    
C33   H1    S    
C22   C24   A    
C19   N2    A    
N1    Zn1   S    
C25   C30   A    
C7    C9    A    
C38   N4    S    
C15   C42   A    
C3    C5    A    
C6    C7    A    
C23   C38   S    
C1    C17   S    
C8    C17   A    
C21   N3    S    
C1    O1    A    
C32   C33   S    
C35   C40   T    
C11   C13   A    
C38   C39   S    
C5    H16   S    
C3    C17   A    
C16   O6    A    
C12   C38   S    
C2    C14   A    
C4    O4    A    
H9    N3    S    
C10   C11   A    
C20   C21   A    
C28   C36   S    
C37   N5    S    
C11   Cl4   S    
C18   C31   A    
C12   C33   S    
C13   Cl2   S    
C30   N1    A    
