data_mof_unit_8067.cif
_audit_creation_date              2012-12-11T18:37:42-0500
_audit_creation_method            fapswitch 2.2
_symmetry_space_group_name_H-M    P1
_symmetry_Int_Tables_number       1
_space_group_crystal_system       triclinic
_cell_length_a                    8.230182
_cell_length_b                    14.313013
_cell_length_c                    27.036128
_cell_angle_alpha                 92.984977
_cell_angle_beta                  93.057046
_cell_angle_gamma                 88.205869
_cell_volume                      3174.67347457

loop_
_atom_site_label
_atom_site_type_symbol
_atom_type_description
_atom_site_fract_x
_atom_site_fract_y
_atom_site_fract_z
_atom_type_partial_charge
Ba1   Ba    Ba6+2 0.849670 0.455410 0.524690 1.639370
Ba2   Ba    Ba6+2 0.340150 0.544510 0.475310 1.642160
Br1   Br    Br    0.590796 0.892363 0.266983 -0.566748
C1    C     C_3   0.673879 0.108173 0.665325 -0.362811
C2    C     C_R   0.913841 0.591415 0.174679 0.579619
C3    C     C_2   0.763253 0.562756 0.270801 -0.073624
C4    C     C_3   0.106190 0.252632 0.665714 0.335914
C5    C     C_3   0.750418 0.594210 0.324498 -0.039416
C6    C     C_1   0.979448 0.485826 0.343505 0.032450
C7    C     C_2   0.018434 0.481291 0.295953 -0.101292
C8    C     C_2   0.902089 0.519033 0.255961 0.182537
C9    C     C_R   0.016498 0.505399 0.101865 -0.079051
C10   C     C_R   0.041965 0.426463 0.130692 -0.037489
C11   C     C_R   0.106278 0.344024 0.108288 -0.053467
C12   C     C_3   0.640797 0.203942 0.644439 0.353810
C13   C     C_R   0.951605 0.588141 0.124225 -0.028400
C14   C     C_2   0.851833 0.534984 0.359437 -0.299621
C15   C     C_2   0.348532 0.475276 0.641700 -0.278006
C16   C     C_3   0.089216 0.224995 0.718688 -0.311564
C17   C     C_R   0.155408 0.413116 0.977027 0.020325
C18   C     C_R   0.070039 0.579148 0.971372 0.021138
C19   C     C_R   0.131674 0.494303 0.948879 0.050210
C20   C     C_R   0.214845 0.330227 0.952490 -0.100285
C21   C     C_R   0.251009 0.327430 0.902726 -0.059114
C22   C     C_R   0.229916 0.406985 0.874742 -0.024708
C23   C     C_3   0.534107 0.677308 0.622260 0.294078
C24   C     C_R   0.170151 0.490583 0.897632 -0.079669
C25   C     C_R   0.149402 0.570445 0.869301 -0.035984
C26   C     C_R   0.189182 0.565820 0.818751 0.597441
C27   C     C_R   0.267151 0.403868 0.824206 0.574364
C28   C     C_3   0.178561 0.257979 0.422312 0.307562
C29   C     C_2   0.424188 0.434281 0.728886 -0.086976
C30   C     C_3   0.439864 0.408097 0.674627 -0.046086
C31   C     C_1   0.213499 0.517559 0.656792 0.028316
C32   C     C_2   0.171132 0.518424 0.703957 -0.102119
C33   C     C_2   0.285313 0.478090 0.743744 0.194246
C34   C     C_3   0.535093 0.699654 0.677871 -0.357664
C35   C     C_R   0.118943 0.417126 0.028337 0.019724
C36   C     C_R   0.055223 0.501628 0.050635 0.051446
C37   C     C_R   0.029488 0.582444 0.022297 0.019789
C38   C     C_R   0.144038 0.339324 0.058524 -0.096754
C39   C     C_R   0.925325 0.666752 0.095762 -0.046967
C40   C     C_3   0.245939 0.162190 0.405229 -0.412967
C41   C     C_R   0.051669 0.658166 0.941827 -0.097041
C42   C     C_R   0.090395 0.653736 0.892184 -0.059353
C43   C     C_R   0.962985 0.664139 0.046166 -0.098975
C44   C     C_R   0.683763 0.064815 0.471672 -0.040871
C45   C     C_3   0.075466 0.747431 0.333476 0.301167
C46   C     C_R   0.511687 0.198706 0.502378 0.042183
C47   C     C_R   0.377624 0.230352 0.528773 -0.295857
C48   C     C_R   0.277934 0.167277 0.549172 0.013741
C49   C     C_R   0.322641 0.072572 0.548912 -0.142616
C50   C     C_R   0.462639 0.039677 0.525183 -0.002795
C51   C     C_R   0.554518 0.101742 0.499623 -0.026973
C52   C     C_3   0.032415 0.741618 0.574545 0.308066
C53   C     C_R   0.640423 0.908446 0.498970 -0.046507
C54   C     C_R   0.730857 0.969285 0.471868 -0.023450
C55   C     C_R   0.684400 0.812327 0.498444 0.025282
C56   C     C_3   0.089868 0.774748 0.280363 -0.296359
C57   C     C_R   0.815970 0.777876 0.472047 -0.329176
C58   C     C_R   0.913241 0.837729 0.448740 0.019940
C59   C     C_R   0.868062 0.932916 0.446300 0.116833
C60   C     C_R   0.507316 0.944794 0.525258 -0.031793
C61   C     C_3   0.031610 0.847379 0.584136 -0.375829
C62   C     C_3   0.658716 0.341121 0.380185 0.291312
C63   C     C_3   0.660615 0.317965 0.324677 -0.353343
C64   C     C_3   0.899660 0.995163 0.366544 -0.183743
C65   C     C_3   0.537138 0.795223 0.354036 0.379344
C66   C     C_3   0.500696 0.889661 0.331703 0.091053
C67   C     C_R   0.002243 0.431292 0.181296 0.602505
H1    H     H_    0.684037 0.201795 0.606126 0.076144
H2    H     H_    0.782067 0.360508 0.394298 0.015168
H3    H     H_    0.572182 0.400970 0.386550 0.083975
H4    H     H_    0.805290 0.088795 0.664616 0.149893
H5    H     H_    0.752788 0.261439 0.317018 0.138915
H6    H     H_    0.690996 0.380647 0.305051 0.069057
H7    H     H_    0.538806 0.294551 0.310324 0.139497
H8    H     H_    0.506796 0.217226 0.643206 -0.061090
H9    H     H_    0.604272 0.054749 0.642504 0.072925
H10   H     H_    0.407897 0.661778 0.608697 0.017303
H11   H     H_    0.614903 0.614791 0.615575 0.070368
H12   H     H_    0.359553 0.169093 0.385715 0.148346
H13   H     H_    0.451631 0.760378 0.685929 0.133730
H14   H     H_    0.494268 0.638434 0.696971 0.074400
H15   H     H_    0.660178 0.716503 0.692341 0.133509
H16   H     H_    0.635401 0.108712 0.704093 0.123723
H17   H     H_    0.093175 0.288489 0.743857 0.121866
H18   H     H_    0.141910 0.679350 0.338151 0.085009
H19   H     H_    0.944584 0.740117 0.339883 -0.034433
H20   H     H_    0.213601 0.798952 0.274517 0.168157
H21   H     H_    0.068320 0.712797 0.255051 0.128007
H22   H     H_    0.999582 0.831428 0.271346 0.153760
H23   H     H_    0.270053 0.117466 0.437170 0.067978
H24   H     H_    0.671598 0.784021 0.356581 -0.077412
H25   H     H_    0.491548 0.798326 0.392059 0.037992
H26   H     H_    0.555021 0.945831 0.356508 0.004327
H27   H     H_    0.030889 0.317364 0.659941 0.091904
H28   H     H_    0.367819 0.904355 0.328024 0.118108
H29   H     H_    0.136237 0.452176 0.285997 0.133953
H30   H     H_    0.128182 0.282053 0.129321 0.130328
H31   H     H_    0.514017 0.406865 0.755627 0.119070
H32   H     H_    0.296128 0.261760 0.886142 0.123380
H33   H     H_    0.234391 0.265245 0.970477 0.071491
H34   H     H_    0.157273 0.127626 0.378817 0.140779
H35   H     H_    0.193867 0.273011 0.045075 0.073786
H36   H     H_    0.671207 0.587552 0.243971 0.134455
H37   H     H_    0.874806 0.731538 0.111823 0.138937
H38   H     H_    0.008484 0.725608 0.955851 0.071435
H39   H     H_    0.235922 0.266587 0.660780 -0.054223
H40   H     H_    0.073612 0.716636 0.871638 0.123151
H41   H     H_    0.053742 0.548174 0.713908 0.130496
H42   H     H_    0.936844 0.727976 0.027613 0.073690
H43   H     H_    0.838150 0.549606 0.398804 0.084321
H44   H     H_    0.382766 0.477699 0.603584 0.077079
H45   H     H_    0.908581 0.719456 0.563111 -0.000318
H46   H     H_    0.343431 0.304023 0.530178 0.072559
H47   H     H_    0.246149 0.024567 0.566025 0.074443
H48   H     H_    0.850072 0.704274 0.472645 0.069835
H49   H     H_    0.748209 0.110319 0.449688 0.102152
H50   H     H_    0.971082 0.191620 0.722541 0.145219
H51   H     H_    0.435580 0.899948 0.545875 0.093073
H52   H     H_    0.189361 0.175224 0.729624 0.121665
H53   H     H_    0.279310 0.299023 0.440100 0.013526
H54   H     H_    0.084694 0.249268 0.449559 0.049070
H55   H     H_    0.991513 0.053392 0.434539 0.189871
H56   H     H_    0.115792 0.722689 0.544529 0.073872
H57   H     H_    0.794978 0.045867 0.363990 0.112084
H58   H     H_    0.861578 0.925407 0.351034 0.135709
H59   H     H_    0.996813 0.017798 0.343428 0.128828
H60   H     H_    0.940740 0.868975 0.611759 0.131108
H61   H     H_    0.000274 0.883115 0.549374 0.060128
H62   H     H_    0.154094 0.869534 0.598540 0.117455
N1    N     N_R   0.939901 0.513591 0.203270 -0.424457
N2    N     N_R   0.246451 0.482794 0.796276 -0.421854
N3    N     N_2   0.960757 0.989894 0.417578 -0.425865
O1    O     O_2   0.918080 0.549800 0.616640 -0.457377
O2    O     O_2   0.251388 0.834446 0.457767 -0.479432
O3    O     O_3   0.143714 0.816841 0.365944 -0.595337
O4    O     O_3   0.150070 0.549720 0.556460 -0.496654
O5    O     O_3   0.546340 0.387390 0.478340 -0.486111
O6    O     O_2   0.398940 0.728800 0.517420 -0.466571
O7    O     O_3   0.589421 0.754699 0.598919 -0.645039
O8    O     O_2   0.418958 0.542035 0.322052 -0.496205
O9    O     O_3   0.459161 0.723806 0.324678 -0.577045
O10   O     O_2   0.020905 0.361573 0.205433 -0.589221
O11   O     O_2   0.317289 0.330077 0.805072 -0.620409
O12   O     O_3   0.611009 0.262050 0.403384 -0.647454
O13   O     O_2   0.858390 0.664507 0.193132 -0.587989
O14   O     O_2   0.175105 0.636316 0.795082 -0.597098
O15   O     O_3   0.658250 0.379560 0.591530 -0.480918
O16   O     O_2   0.775316 0.453916 0.678246 -0.495638
O17   O     O_3   0.082952 0.699490 0.618412 -0.625031
O18   O     O_3   0.723520 0.272664 0.674403 -0.597387
O19   O     O_2   0.790750 0.271170 0.482550 -0.464220
O20   O     O_3   0.062300 0.331660 0.568480 -0.491048
O21   O     O_2   0.940779 0.165102 0.541000 -0.488846
O22   O     O_3   0.052622 0.179638 0.632821 -0.602254
O23   O     O_2   0.271610 0.450170 0.383330 -0.461085
O24   O     O_3   0.039630 0.450200 0.443530 -0.493929
O25   O     O_3   0.531440 0.620360 0.408460 -0.478749
O26   O     O_3   0.107459 0.300862 0.380890 -0.622193
O27   O     O_3   0.643350 0.612530 0.521650 -0.473927
O28   O     O_3   0.127390 0.668260 0.431510 -0.492970
P1    P     P_3+3 0.090020 0.577590 0.608380 0.991340
P2    P     P_3+3 0.614340 0.285150 0.467650 0.968048
P3    P     P_3+3 0.082852 0.210282 0.572315 0.943813
P4    P     P_3+3 0.099670 0.422330 0.391610 0.996103
P5    P     P_3+3 0.108556 0.789663 0.426602 0.966810
P6    P     P_3+3 0.651410 0.382260 0.655801 0.947981
P7    P     P_3+3 0.583271 0.728926 0.534862 0.939631
P8    P     P_3+3 0.538569 0.616329 0.344147 0.964584

loop_
_geom_bond_atom_site_label_1
_geom_bond_atom_site_label_2
_ccdc_geom_bond_type
C28   O26   S    
C16   H52   S    
C43   H42   S    
C32   C33   S    
C66   H26   S    
C30   P6    S    
C15   H44   S    
C14   H43   S    
C54   C59   A    
C52   H45   S    
C50   C51   A    
C41   C42   A    
C37   C43   A    
O9    P8    S    
C28   C40   S    
Ba2   O4    S    
C29   C33   D    
C34   H15   S    
O4    P1    S    
Br1   C66   S    
C28   H54   S    
Ba1   Ba2   S    
C16   H17   S    
C8    N1    S    
O1    P1    D    
C35   C36   A    
O15   P6    S    
C1    H16   S    
C10   C67   A    
O20   P3    S    
C55   C57   A    
C46   C51   A    
C22   C27   A    
C62   H3    S    
C53   C54   A    
O3    P5    S    
C31   C32   D    
C39   C43   A    
Ba1   O20   S    
C40   H34   S    
C2    C13   A    
O12   P2    S    
C20   H33   S    
C61   H62   S    
Ba1   P1    S    
O24   P4    S    
Ba2   O24   S    
C27   N2    Am   
C67   N1    Am   
C20   C21   A    
C45   H18   S    
O19   P2    D    
C57   H48   S    
O21   P3    D    
C62   O12   S    
Ba1   O1    S    
C39   H37   S    
C1    H4    S    
C58   C59   A    
Ba1   O4    S    
C5    P8    S    
O7    P7    S    
C66   H28   S    
H55   N3    S    
C44   H49   S    
C26   N2    Am   
C2    O13   D    
C10   C11   A    
Ba2   O27   S    
C64   H59   S    
C60   H51   S    
O23   P4    D    
C27   O11   D    
C41   H38   S    
C25   C42   A    
C53   C60   A    
C65   H25   S    
C48   C49   A    
C9    C13   A    
Ba1   O24   S    
C21   C22   A    
C1    H9    S    
C3    C8    D    
C42   H40   S    
C65   C66   S    
C3    C5    S    
C17   C20   A    
C26   O14   D    
C65   H24   S    
C4    H39   S    
C57   C58   A    
C56   H20   S    
C59   N3    S    
O22   P3    S    
C64   N3    S    
C46   P2    S    
C64   H57   S    
C44   C54   A    
C18   C41   A    
C17   C35   A    
O27   P7    S    
C61   H61   S    
Ba1   P2    S    
Ba2   O23   S    
C63   H6    S    
C52   C61   S    
C47   H46   S    
C47   C48   A    
C3    H36   S    
C52   H56   S    
Ba1   O15   S    
C34   H14   S    
C67   O10   D    
O17   P1    S    
C15   C31   D    
O26   P4    S    
Ba1   O5    S    
C38   H35   S    
C35   C38   A    
C2    N1    Am   
C6    C14   D    
C17   C19   A    
Ba1   O27   S    
C62   C63   S    
C23   H11   S    
C4    C16   S    
C45   H19   S    
C44   C51   A    
C56   H21   S    
C13   C39   A    
C36   C37   A    
C32   H41   S    
C49   C50   A    
C45   C56   S    
C6    C7    D    
O5    P2    S    
Ba2   O6    S    
C63   H7    S    
C25   C26   A    
C4    H27   S    
C55   P7    S    
C61   H60   S    
C33   N2    S    
Ba2   O28   S    
C16   H50   S    
Ba1   O19   S    
C23   C34   S    
C11   H30   S    
C4    O22   S    
C22   C24   A    
C62   H2    S    
C12   H1    S    
C31   P1    S    
C5    C14   S    
O16   P6    D    
C45   O3    S    
C19   C24   A    
C58   P5    S    
Ba2   O5    S    
C29   C30   S    
C9    C36   A    
O28   P5    S    
C28   H53   S    
C23   O7    S    
C64   H58   S    
C49   H47   S    
C50   C60   A    
C18   C37   A    
C11   C38   A    
C1    C12   S    
C63   H5    S    
O6    P7    D    
C40   H23   S    
O25   P8    S    
C53   C55   A    
C65   O9    S    
C21   H32   S    
C56   H22   S    
C7    H29   S    
C15   C30   S    
C23   H10   S    
C12   O18   S    
C7    C8    S    
O8    P8    D    
C12   H8    S    
C9    C10   A    
Ba2   O25   S    
C46   C47   A    
O18   P6    S    
C24   C25   A    
C40   H12   S    
C29   H31   S    
C34   H13   S    
C48   P3    S    
C52   O17   S    
C18   C19   A    
C6    P4    S    
Ba2   P4    S    
O2    P5    D    
