data_mof_unit_17629.cif
_audit_creation_date              2012-12-10T20:14:15-0500
_audit_creation_method            fapswitch 2.2
_symmetry_space_group_name_H-M    P1
_symmetry_Int_Tables_number       1
_space_group_crystal_system       triclinic
_cell_length_a                    19.458628
_cell_length_b                    18.470753
_cell_length_c                    10.606698
_cell_angle_alpha                 91.046355
_cell_angle_beta                  90.136852
_cell_angle_gamma                 88.3402
_cell_volume                      3809.97026993

loop_
_atom_site_label
_atom_site_type_symbol
_atom_type_description
_atom_site_fract_x
_atom_site_fract_y
_atom_site_fract_z
_atom_type_partial_charge
C1    C     C_R   0.365540 0.500896 0.500422 0.846609
C2    C     C_R   0.524591 0.274617 0.395621 0.033298
C3    C     C_R   0.072569 0.689757 0.404154 -0.154298
C4    C     C_R   0.105635 0.753710 0.436246 -0.111764
C5    C     C_R   0.135055 0.762297 0.555704 -0.095448
C6    C     C_R   0.131905 0.706755 0.643031 -0.164385
C7    C     C_R   0.098945 0.642687 0.611349 -0.154862
C8    C     C_R   0.930487 0.362078 0.450964 0.125467
C9    C     C_R   0.929156 0.312261 0.349242 -0.159962
C10   C     C_R   0.895667 0.246800 0.361147 -0.116593
C11   C     C_R   0.863754 0.230405 0.474588 -0.090569
C12   C     C_R   0.865020 0.279557 0.576238 -0.156837
C13   C     C_R   0.543765 0.719049 0.416330 0.016914
C14   C     C_R   0.898231 0.345198 0.564685 -0.153576
C15   C     C_R   0.453885 0.921399 0.269031 0.160720
C16   C     C_R   0.499077 0.889321 0.179717 -0.158675
C17   C     C_R   0.473492 0.854845 0.071676 -0.151547
C18   C     C_R   0.402777 0.854934 0.049126 -0.106408
C19   C     C_R   0.357669 0.889731 0.134388 -0.142907
C20   C     C_R   0.383024 0.922548 0.244270 -0.138414
C21   C     C_R   0.586706 0.078119 0.673454 0.171782
C22   C     C_R   0.654070 0.096874 0.644452 -0.145398
C23   C     C_R   0.694312 0.132197 0.734578 -0.152530
C24   C     C_R   0.476695 0.273291 0.600036 0.027594
C25   C     C_R   0.667638 0.148415 0.854356 -0.101286
C26   C     C_R   0.600992 0.128566 0.884645 -0.137869
C27   C     C_R   0.560785 0.092961 0.794775 -0.159801
C28   C     C_R   0.597040 0.924620 0.662951 0.142655
C29   C     C_R   0.579966 0.918870 0.790778 -0.148657
C30   C     C_R   0.631394 0.904081 0.879697 -0.158305
C31   C     C_R   0.699753 0.893991 0.841278 -0.116442
C32   C     C_R   0.716521 0.896345 0.713454 -0.124719
C33   C     C_R   0.665383 0.911758 0.624422 -0.174854
C34   C     C_R   0.436904 0.077572 0.288257 0.147915
C35   C     C_R   0.466695 0.808998 0.575819 -0.274969
C36   C     C_R   0.373444 0.111319 0.318634 -0.155133
C37   C     C_R   0.338368 0.153477 0.229777 -0.144615
C38   C     C_R   0.365917 0.161371 0.109556 -0.104922
C39   C     C_R   0.428378 0.126696 0.077755 -0.145138
C40   C     C_R   0.463830 0.084574 0.166434 -0.157762
C41   C     C_R   0.527490 0.198777 0.389849 -0.251724
C42   C     C_R   0.550951 0.794250 0.410966 -0.285205
C43   C     C_R   0.477296 0.197203 0.596839 -0.267537
C44   C     C_R   0.510527 0.840650 0.488287 0.163924
C45   C     C_R   0.503670 0.158705 0.491169 0.139351
C46   C     C_R   0.481429 0.960513 0.381124 -0.055580
C47   C     C_R   0.634494 0.498963 0.501832 0.867769
C48   C     C_R   0.545134 0.038342 0.578755 -0.057829
C49   C     C_R   0.548788 0.961457 0.575367 -0.052284
C50   C     C_R   0.476204 0.037608 0.386526 -0.060147
C51   C     C_R   0.507110 0.077001 0.486792 -0.028075
C52   C     C_R   0.514460 0.921785 0.480156 -0.030559
C53   C     C_R   0.501320 0.499555 0.257490 0.910524
C54   C     C_R   0.495123 0.500586 0.742276 0.900158
C55   C     C_3   0.464679 0.559971 0.047516 0.137019
C56   C     C_3   0.527595 0.440497 0.953396 0.172125
C57   C     C_3   0.526532 0.558795 0.958726 0.141265
C58   C     C_R   0.962545 0.565755 0.443527 -0.056364
C59   C     C_3   0.464608 0.441909 0.042384 0.164483
C60   C     C_3   0.429007 0.502571 0.965031 -0.058363
C61   C     C_3   0.562765 0.498732 0.035264 -0.063189
C62   C     C_3   0.491910 0.501159 0.876785 -0.141678
C63   C     C_3   0.500178 0.499546 0.123468 -0.145075
C64   C     C_R   0.743414 0.444785 0.411550 -0.008363
C65   C     C_R   0.254452 0.555581 0.422119 -0.035274
C66   C     C_R   0.251846 0.447657 0.552394 -0.018758
C67   C     C_R   0.750267 0.547251 0.560014 -0.027596
C68   C     C_R   0.812058 0.454068 0.380506 -0.179504
C69   C     C_R   0.037773 0.432167 0.433705 -0.054056
C70   C     C_R   0.185648 0.545427 0.392877 -0.202868
C71   C     C_R   0.180548 0.452010 0.547346 -0.193506
C72   C     C_R   0.821299 0.542174 0.548503 -0.195333
C73   C     C_R   0.852233 0.499987 0.453398 0.089081
C74   C     C_R   0.147434 0.497659 0.461989 0.099108
C75   C     C_R   0.709852 0.496506 0.493042 -0.154154
C76   C     C_R   0.290161 0.502296 0.494159 -0.152063
C77   C     C_R   0.353043 0.513509 0.939337 0.148405
C78   C     C_R   0.305199 0.498728 0.034096 -0.152162
C79   C     C_R   0.235215 0.514793 0.016916 -0.185215
C80   C     C_R   0.034227 0.565033 0.458484 -0.054100
C81   C     C_R   0.212407 0.548018 0.906781 -0.132735
C82   C     C_R   0.259570 0.564931 0.813615 -0.163596
C83   C     C_R   0.329694 0.548096 0.829693 -0.188871
C84   C     C_R   0.637884 0.506154 0.067643 0.149698
C85   C     C_R   0.689199 0.474198 0.989946 -0.152013
C86   C     C_R   0.758607 0.485151 0.015454 -0.206037
C87   C     C_R   0.777448 0.530904 0.114679 -0.125981
C88   C     C_R   0.726950 0.565708 0.189093 -0.144789
C89   C     C_R   0.657510 0.553310 0.165905 -0.183438
C90   C     C_3   0.430844 0.629584 0.100315 -0.823241
C91   C     C_R   0.965619 0.432229 0.438983 -0.050824
C92   C     C_3   0.559574 0.368688 0.904559 -0.888152
C93   C     C_3   0.558896 0.626752 0.910963 -0.839357
C94   C     C_3   0.431997 0.372954 0.088736 -0.884888
C95   C     C_R   0.714579 0.373980 0.375461 0.157062
C96   C     C_R   0.702102 0.323909 0.470159 -0.064692
C97   C     C_R   0.688403 0.252135 0.438397 -0.154092
C98   C     C_R   0.687244 0.229316 0.312192 -0.143102
C99   C     C_R   0.698638 0.278823 0.217289 -0.163500
C100  C     C_R   0.713089 0.350517 0.248948 -0.175523
C101  C     C_R   0.280628 0.628205 0.394485 0.169680
C102  C     C_R   0.071981 0.498305 0.449797 -0.025157
C103  C     C_R   0.297332 0.674786 0.495643 -0.062443
C104  C     C_R   0.303430 0.748866 0.477157 -0.157490
C105  C     C_R   0.293008 0.777287 0.357707 -0.088206
C106  C     C_R   0.278851 0.731523 0.255329 -0.121459
C107  C     C_R   0.272001 0.657403 0.273745 -0.213909
C108  C     C_R   0.281883 0.382023 0.611236 0.142943
C109  C     C_R   0.298969 0.321635 0.534103 -0.062624
C110  C     C_R   0.314544 0.254649 0.587811 -0.153558
C111  C     C_R   0.314403 0.247515 0.718714 -0.151679
C112  C     C_R   0.297239 0.307218 0.796064 -0.155519
C113  C     C_R   0.927840 0.499183 0.440860 -0.024545
C114  C     C_R   0.279715 0.373776 0.742431 -0.174384
C115  C     C_R   0.723169 0.603112 0.650062 0.112972
C116  C     C_R   0.686753 0.664661 0.607425 -0.077934
C117  C     C_R   0.666440 0.719766 0.692506 -0.130692
C118  C     C_R   0.686720 0.716267 0.818796 -0.146852
C119  C     C_R   0.727280 0.657903 0.860019 -0.145930
C120  C     C_R   0.745108 0.601456 0.776133 -0.174026
C121  C     C_R   0.923613 0.636300 0.433295 0.134032
C122  C     C_R   0.917706 0.684638 0.537138 -0.147315
C123  C     C_R   0.877682 0.748431 0.528182 -0.118096
C124  C     C_R   0.462672 0.732975 0.581098 0.013178
C125  C     C_R   0.844078 0.765003 0.415323 -0.118024
C126  C     C_R   0.851097 0.718189 0.310846 -0.161576
C127  C     C_R   0.890969 0.654279 0.319625 -0.155929
C128  C     C_R   0.077583 0.362646 0.413937 0.127445
C129  C     C_R   0.077813 0.308804 0.506112 -0.150062
C130  C     C_R   0.116200 0.244423 0.487958 -0.114689
C131  C     C_R   0.154689 0.233215 0.378053 -0.122202
C132  C     C_R   0.155323 0.286642 0.286403 -0.159129
C133  C     C_R   0.116933 0.351199 0.304122 -0.145090
C134  C     C_R   0.068944 0.633730 0.491675 0.132046
H1    H     H_    0.835711 0.420144 0.307602 0.143908
H2    H     H_    0.549183 0.171642 0.307339 0.135126
H3    H     H_    0.588331 0.815721 0.347565 0.122261
H4    H     H_    0.456511 0.168744 0.675670 0.130691
H5    H     H_    0.321889 0.476891 0.123157 0.131497
H6    H     H_    0.198873 0.502849 0.090279 0.130397
H7    H     H_    0.158280 0.560964 0.893851 0.119843
H8    H     H_    0.241335 0.590666 0.728847 0.141580
H9    H     H_    0.365454 0.563409 0.757946 0.131591
H10   H     H_    0.676468 0.441615 0.908592 0.133866
H11   H     H_    0.797815 0.458780 0.957123 0.124873
H12   H     H_    0.159719 0.580711 0.326505 0.140482
H13   H     H_    0.831207 0.539148 0.133243 0.121101
H14   H     H_    0.741571 0.601937 0.265252 0.147347
H15   H     H_    0.619306 0.581904 0.222826 0.138824
H16   H     H_    0.405156 0.659977 0.023253 0.228573
H17   H     H_    0.392347 0.615622 0.171723 0.250928
H18   H     H_    0.470131 0.664114 0.145073 0.252166
H19   H     H_    0.589582 0.342354 0.981090 0.229589
H20   H     H_    0.518425 0.331994 0.873799 0.249007
H21   H     H_    0.593518 0.377341 0.822807 0.239491
H22   H     H_    0.584504 0.655667 0.989857 0.228056
H23   H     H_    0.151056 0.416348 0.604653 0.143251
H24   H     H_    0.596787 0.610281 0.837685 0.271946
H25   H     H_    0.518965 0.663161 0.869114 0.241744
H26   H     H_    0.403425 0.346971 0.010306 0.231790
H27   H     H_    0.472696 0.334523 0.121982 0.250824
H28   H     H_    0.396475 0.385360 0.168189 0.235244
H29   H     H_    0.705657 0.339786 0.568752 0.114999
H30   H     H_    0.679342 0.214232 0.511878 0.140878
H31   H     H_    0.677421 0.173377 0.288065 0.118719
H32   H     H_    0.698034 0.261297 0.119408 0.122402
H33   H     H_    0.725955 0.386718 0.175431 0.160054
H34   H     H_    0.852782 0.572819 0.613005 0.140176
H35   H     H_    0.302189 0.654617 0.590214 0.101907
H36   H     H_    0.313598 0.784658 0.556506 0.111854
H37   H     H_    0.293799 0.835018 0.345884 0.118818
H38   H     H_    0.270482 0.753777 0.162673 0.125889
H39   H     H_    0.256937 0.623400 0.195079 0.143969
H40   H     H_    0.297789 0.325877 0.432362 0.126875
H41   H     H_    0.326710 0.208285 0.527921 0.130307
H42   H     H_    0.326911 0.195621 0.760042 0.120285
H43   H     H_    0.295436 0.301432 0.897331 0.124793
H44   H     H_    0.261687 0.417619 0.802856 0.168932
H45   H     H_    0.429448 0.708926 0.649392 0.103709
H46   H     H_    0.674931 0.670372 0.508367 0.128305
H47   H     H_    0.635369 0.765206 0.660295 0.161522
H48   H     H_    0.669969 0.757614 0.885868 0.144348
H49   H     H_    0.744025 0.656027 0.957210 0.151578
H50   H     H_    0.777968 0.557313 0.807627 0.135423
H51   H     H_    0.942508 0.671825 0.625800 0.121648
H52   H     H_    0.872332 0.784763 0.609001 0.120463
H53   H     H_    0.812843 0.814243 0.408703 0.112831
H54   H     H_    0.825559 0.731334 0.223077 0.120136
H55   H     H_    0.896888 0.618942 0.237946 0.111159
H56   H     H_    0.543652 0.304807 0.317360 0.144172
H57   H     H_    0.049045 0.317224 0.592650 0.124615
H58   H     H_    0.116277 0.203282 0.559311 0.124154
H59   H     H_    0.184041 0.183102 0.364342 0.112150
H60   H     H_    0.185564 0.278042 0.201651 0.121599
H61   H     H_    0.117888 0.392294 0.232641 0.118343
H62   H     H_    0.050367 0.683486 0.311018 0.122024
H63   H     H_    0.108648 0.796541 0.368378 0.119384
H64   H     H_    0.160755 0.811799 0.580272 0.112534
H65   H     H_    0.155130 0.713284 0.735205 0.122064
H66   H     H_    0.096772 0.600004 0.679761 0.118433
H67   H     H_    0.574528 0.683998 0.354781 0.114043
H68   H     H_    0.953470 0.324562 0.260746 0.123842
H69   H     H_    0.894356 0.208817 0.282349 0.121551
H70   H     H_    0.837713 0.179774 0.483553 0.113566
H71   H     H_    0.839960 0.266922 0.663790 0.116539
H72   H     H_    0.898787 0.382956 0.643984 0.120463
H73   H     H_    0.554092 0.892156 0.192541 0.102683
H74   H     H_    0.508487 0.828910 0.004539 0.125698
H75   H     H_    0.383022 0.828822 0.964910 0.110446
H76   H     H_    0.302942 0.890888 0.115822 0.113004
H77   H     H_    0.347557 0.949461 0.309561 0.110560
H78   H     H_    0.456302 0.302511 0.681503 0.142819
H79   H     H_    0.675378 0.083799 0.552283 0.108549
H80   H     H_    0.746156 0.146988 0.711502 0.115071
H81   H     H_    0.698801 0.175815 0.923947 0.107882
H82   H     H_    0.580774 0.140417 0.977935 0.117948
H83   H     H_    0.509721 0.076401 0.819217 0.104951
H84   H     H_    0.527784 0.930279 0.822193 0.122395
H85   H     H_    0.618599 0.901888 0.978691 0.119334
H86   H     H_    0.739551 0.883140 0.910420 0.114944
H87   H     H_    0.769342 0.887809 0.683676 0.119586
H88   H     H_    0.679552 0.917562 0.526501 0.114838
H89   H     H_    0.435801 0.842876 0.639407 0.124629
H90   H     H_    0.351549 0.104912 0.411248 0.107713
H91   H     H_    0.290065 0.180366 0.254131 0.115238
H92   H     H_    0.338871 0.194314 0.041022 0.110760
H93   H     H_    0.449437 0.133317 0.984767 0.116766
H94   H     H_    0.512783 0.058895 0.141445 0.118570
N1    N     N_R   0.500000 0.689440 0.500000 -0.084456
N2    N     N_R   0.500000 0.310560 0.500000 -0.100956
O1    O     O_R   0.398180 0.560840 0.499970 -0.625088
O2    O     O_R   0.601820 0.439160 0.500030 -0.617564
O3    O     O_R   0.601820 0.560840 0.500030 -0.632554
O4    O     O_R   0.398180 0.439160 0.499970 -0.612274
O5    O     O_R   0.499980 0.560800 0.313940 -0.632993
O6    O     O_R   0.500020 0.439200 0.686060 -0.622530
O7    O     O_R   0.500020 0.560800 0.686060 -0.627683
O8    O     O_R   0.499980 0.439200 0.313940 -0.624732
Zn1   Zn    Zn3+2 0.500000 0.581210 0.500000 0.934579
Zn2   Zn    Zn3+2 0.500000 0.418790 0.500000 0.947751

loop_
_geom_bond_atom_site_label_1
_geom_bond_atom_site_label_2
_ccdc_geom_bond_type
C8    C9    A    
C87   C88   A    
C101  C107  A    
C126  C127  A    
C19   H76   S    
C53   C63   S    
N2    Zn2   S    
C111  C112  A    
C65   C101  S    
C115  C120  A    
C90   H16   S    
C16   H73   S    
C128  C129  A    
C112  C114  A    
C97   C98   A    
C24   H78   S    
C73   C113  S    
C57   C62   S    
C77   C78   A    
C108  C109  A    
C131  C132  A    
C28   C29   A    
C26   C27   A    
C127  H55   S    
C65   C76   A    
C87   H13   S    
C100  H33   S    
C34   C40   A    
C5    C6    A    
C64   C68   A    
O1    Zn1   S    
C36   C37   A    
C37   C38   A    
C121  C127  A    
C55   C90   S    
C24   N2    A    
C6    H65   S    
C117  H47   S    
C123  C125  A    
C106  C107  A    
C77   C83   A    
C2    C41   A    
C15   C16   A    
C98   C99   A    
C21   C48   S    
C46   C52   A    
C80   C134  S    
C116  C117  A    
C43   H4    S    
C26   H82   S    
C67   C72   A    
C20   H77   S    
C108  C114  A    
C7    H66   S    
C93   H25   S    
C56   C59   S    
C67   C115  S    
C118  C119  A    
C13   C42   A    
C124  H45   S    
C89   H15   S    
C110  C111  A    
C48   C51   A    
C31   C32   A    
C69   C128  S    
C126  H54   S    
C16   C17   A    
C114  H44   S    
C55   C63   S    
C17   C18   A    
C70   C74   A    
C58   C113  A    
C94   H26   S    
C92   H19   S    
C70   H12   S    
C59   C94   S    
C54   O6    A    
N1    Zn1   S    
C9    C10   A    
C53   O5    A    
C39   H93   S    
C124  N1    A    
C58   C80   A    
C74   C102  S    
C99   H32   S    
C33   H88   S    
C44   C52   S    
C37   H91   S    
C79   H6    S    
C21   C27   A    
C59   C60   S    
C101  C103  A    
C57   C93   S    
C21   C22   A    
C78   H5    S    
C42   H3    S    
C132  H60   S    
C72   H34   S    
C131  H59   S    
C42   C44   A    
C85   H10   S    
C110  H41   S    
C104  C105  A    
C130  H58   S    
C32   H87   S    
C17   H74   S    
C15   C20   A    
C71   H23   S    
O8    Zn2   S    
C60   C77   S    
C34   C50   S    
C111  H42   S    
C69   C102  A    
C25   H81   S    
C18   H75   S    
C84   C85   A    
C54   O7    A    
C7    C134  A    
C90   H18   S    
C9    H68   S    
C39   C40   A    
C79   C81   A    
C29   H84   S    
C109  H40   S    
C18   C19   A    
C122  H51   S    
C119  H49   S    
C47   O2    A    
C107  H39   S    
C68   C73   A    
C85   C86   A    
C123  H52   S    
C81   C82   A    
O6    Zn2   S    
C80   C102  A    
C40   H94   S    
C128  C133  A    
C29   C30   A    
C35   H89   S    
C43   C45   A    
C28   C49   S    
C1    O1    A    
C66   C71   A    
C56   C92   S    
C1    O4    A    
C133  H61   S    
C49   C52   A    
C66   C76   A    
C96   C97   A    
C61   C63   S    
C50   C51   A    
C88   H14   S    
C106  H38   S    
C8    C91   S    
C55   C57   S    
O4    Zn2   S    
C41   C45   A    
C35   C44   A    
C120  H50   S    
C94   H27   S    
C121  C122  A    
C6    C7    A    
C4    H63   S    
C12   C14   A    
C28   C33   A    
C27   H83   S    
O7    Zn1   S    
C125  C126  A    
C56   C62   S    
C67   C75   A    
C84   C89   A    
C3    C4    A    
C86   H11   S    
C86   C87   A    
C103  H35   S    
C104  H36   S    
C31   H86   S    
C10   H69   S    
C118  H48   S    
C116  H46   S    
C36   H90   S    
C35   C124  A    
C58   C121  S    
C8    C14   A    
C105  H37   S    
C95   C100  A    
C1    C76   S    
O5    Zn1   S    
C93   H22   S    
C22   C23   A    
C2    H56   S    
C64   C95   S    
C66   C108  S    
C90   H17   S    
C61   C84   S    
C53   O8    A    
C71   C74   A    
C119  C120  A    
C96   H29   S    
C57   C61   S    
C5    H64   S    
C54   C62   S    
C105  C106  A    
C46   C50   A    
C59   C63   S    
C3    H62   S    
C99   C100  A    
C38   H92   S    
C125  H53   S    
C97   H30   S    
C12   H71   S    
C3    C134  A    
C19   C20   A    
C14   H72   S    
C130  C131  A    
C25   C26   A    
C47   C75   S    
C69   C91   A    
C117  C118  A    
C32   C33   A    
C60   C62   S    
C83   H9    S    
C78   C79   A    
C30   C31   A    
C115  C116  A    
C38   C39   A    
C129  C130  A    
C68   H1    S    
C72   C73   A    
C48   C49   A    
C129  H57   S    
C81   H7    S    
C64   C75   A    
C13   H67   S    
C132  C133  A    
C92   H21   S    
C34   C36   A    
C11   H70   S    
C23   C25   A    
O3    Zn1   S    
C93   H24   S    
C98   H31   S    
C10   C11   A    
C2    N2    A    
C13   N1    A    
C82   H8    S    
C91   C113  A    
C4    C5    A    
C88   C89   A    
C82   C83   A    
C22   H79   S    
C109  C110  A    
C103  C104  A    
O2    Zn2   S    
C24   C43   A    
C45   C51   S    
C56   C61   S    
C30   H85   S    
C92   H20   S    
C15   C46   S    
C122  C123  A    
C55   C60   S    
C41   H2    S    
C95   C96   A    
C94   H28   S    
C65   C70   A    
C11   C12   A    
C112  H43   S    
C47   O3    A    
C23   H80   S    
