data_mof_unit_27160.cif
_audit_creation_date              2012-12-10T16:55:01-0500
_audit_creation_method            fapswitch 2.2
_symmetry_space_group_name_H-M    P1
_symmetry_Int_Tables_number       1
_space_group_crystal_system       triclinic
_cell_length_a                    7.786143
_cell_length_b                    8.569785
_cell_length_c                    15.735097
_cell_angle_alpha                 91.194557
_cell_angle_beta                  85.476887
_cell_angle_gamma                 93.543919
_cell_volume                      1044.52728694

loop_
_atom_site_label
_atom_site_type_symbol
_atom_type_description
_atom_site_fract_x
_atom_site_fract_y
_atom_site_fract_z
_atom_type_partial_charge
C1    C     C_R   0.545650 0.794660 0.497782 0.953581
C2    C     C_2   0.430269 0.041907 0.503248 -0.359528
C3    C     C_R   0.501502 0.500211 0.661516 0.876327
C4    C     C_R   0.454351 0.205343 0.502087 0.954360
C5    C     C_R   0.498548 0.499835 0.338494 0.889353
C6    C     C_3   0.371304 0.619004 0.956379 0.253313
C7    C     C_3   0.690962 0.553153 0.943816 0.169822
C8    C     C_3   0.693565 0.546999 0.043867 0.733476
C9    C     C_1   0.496207 0.501125 0.249868 -0.136740
C10   C     C_3   0.505741 0.504101 0.916807 -0.124433
C11   C     C_3   0.384645 0.631657 0.054448 0.091344
C12   C     C_3   0.503419 0.503505 0.082835 -0.090551
C13   C     C_3   0.437389 0.338992 0.048305 0.210114
C14   C     C_3   0.458711 0.336392 0.949887 -0.497620
C15   C     C_1   0.497977 0.502283 0.174585 0.069031
C16   C     C_1   0.506080 0.502497 0.825355 0.107903
C17   C     C_1   0.504876 0.501210 0.750150 -0.139096
C18   C     C_2   0.569738 0.958099 0.496402 -0.365861
H1    H     H_    0.298451 0.991092 0.509796 0.187975
H2    H     H_    0.780149 0.467546 0.913895 0.157319
H3    H     H_    0.683108 0.781750 0.937174 0.352697
H4    H     H_    0.782452 0.683090 0.134407 0.375328
H5    H     H_    0.800221 0.342496 0.030584 0.347852
H6    H     H_    0.338412 0.285473 0.923856 0.195401
H7    H     H_    0.561862 0.257810 0.926818 0.219062
H8    H     H_    0.297426 0.316587 0.067310 0.120765
H9    H     H_    0.448659 0.748273 0.067771 0.185352
H10   H     H_    0.161625 0.477573 0.962278 0.351079
H11   H     H_    0.170309 0.524597 0.105345 0.362531
H12   H     H_    0.469137 0.189629 0.136704 0.351455
H13   H     H_    0.701556 0.008924 0.489816 0.187915
H14   H     H_    0.935894 0.301584 0.394526 0.346539
H15   H     H_    0.986653 0.618847 0.563473 0.153276
H16   H     H_    0.403291 0.737095 0.929472 0.141560
N1    N     N_2   0.950340 0.457950 0.477370 0.099405
N2    N     N_2   0.049660 0.542050 0.522630 -0.068695
O1    O     O_R   0.389240 0.738570 0.505550 -0.620505
O2    O     O_3   0.221567 0.632714 0.100498 -0.667768
O3    O     O_3   0.526087 0.216936 0.079821 -0.727565
O4    O     O_3   0.030023 0.357088 0.424039 -0.621096
O5    O     O_3   0.753741 0.699153 0.910395 -0.678576
O6    O     O_3   0.751598 0.695165 0.074969 -0.721797
O7    O     O_3   0.809046 0.437099 0.067598 -0.739100
O8    O     O_R   0.678400 0.711630 0.491050 -0.638719
O9    O     O_R   0.355360 0.513470 0.630110 -0.610007
O10   O     O_R   0.644510 0.486530 0.615610 -0.631013
O11   O     O_R   0.321600 0.288370 0.508950 -0.569296
O12   O     O_R   0.610760 0.261430 0.494450 -0.629854
O13   O     O_R   0.355490 0.513470 0.384390 -0.555173
O14   O     O_R   0.644640 0.486530 0.369890 -0.617936
O15   O     O_3   0.202353 0.576824 0.934186 -0.660234
Zn1   Zn    Zn3+2 0.306930 0.517990 0.509680 1.036082
Zn2   Zn    Zn3+2 0.693070 0.482010 0.490320 0.990949

loop_
_geom_bond_atom_site_label_1
_geom_bond_atom_site_label_2
_ccdc_geom_bond_type
H11   O2    S    
C6    C10   S    
C7    C10   S    
C2    C4    S    
C11   C12   S    
C8    O7    S    
C5    C9    S    
O11   Zn1   S    
C1    O1    A    
C6    O15   S    
N1    Zn2   S    
C1    O8    A    
N1    N2    D    
N2    Zn1   S    
C12   C15   S    
C11   H9    S    
C8    C12   S    
O13   Zn1   S    
C7    O5    S    
N1    O4    S    
C9    C15   T    
C7    C8    S    
C10   C16   S    
C13   C14   S    
C5    O13   A    
C1    C18   S    
H4    O6    S    
H3    O5    S    
O10   Zn2   S    
C8    O6    S    
H12   O3    S    
C3    C17   S    
H14   O4    S    
C14   H7    S    
C10   C14   S    
O12   Zn2   S    
C5    O14   A    
H10   O15   S    
C13   H8    S    
C13   O3    S    
O14   Zn2   S    
C2    C18   D    
H15   N2    S    
H5    O7    S    
C12   C13   S    
C7    H2    S    
C4    O12   A    
C14   H6    S    
C6    C11   S    
O1    Zn1   S    
C11   O2    S    
C18   H13   S    
C3    O10   A    
O9    Zn1   S    
C2    H1    S    
O8    Zn2   S    
C3    O9    A    
C6    H16   S    
C16   C17   T    
C4    O11   A    
