data_mof_unit_17766.cif
_audit_creation_date              2013-03-05T15:48:43-0500
_audit_creation_method            fapswitch 2.2
_symmetry_space_group_name_H-M    P1
_symmetry_Int_Tables_number       1
_space_group_crystal_system       triclinic
_cell_length_a                    22.335634
_cell_length_b                    6.939223
_cell_length_c                    19.345633
_cell_angle_alpha                 89.985083
_cell_angle_beta                  99.186633
_cell_angle_gamma                 89.978956
_cell_volume                      2959.95785025

loop_
_atom_site_label
_atom_site_type_symbol
_atom_site_description
_atom_site_fract_x
_atom_site_fract_y
_atom_site_fract_z
_atom_type_partial_charge
O1    O     O_R   0.448420 0.506120 0.415750 -0.587689
O2    O     O_R   0.551580 0.006120 0.584250 -0.587671
O3    O     O_R   0.436490 0.174470 0.555610 -0.592473
O4    O     O_R   0.563510 0.674470 0.444390 -0.592659
C1    C     C_R   0.420961 0.344626 0.575645 0.973248
C2    C     C_R   0.578953 0.844598 0.424240 0.973077
O5    O     O_R   0.441310 0.176330 0.414520 -0.588745
O6    O     O_R   0.558690 0.676330 0.585480 -0.588787
O7    O     O_R   0.556430 0.007110 0.442150 -0.589956
O8    O     O_R   0.443570 0.507110 0.557850 -0.589617
C3    C     C_R   0.426854 0.345129 0.388262 0.958061
C4    C     C_R   0.573222 0.845018 0.611679 0.958251
O9    O     O_3   0.537770 0.339560 0.509230 -0.271553
O10   O     O_3   0.462230 0.839560 0.490770 -0.271228
V1    V     V_3+5 0.492990 0.064280 0.498290 1.170111
V2    V     V_3+5 0.507010 0.564280 0.501710 1.170088
C5    C     C_R   0.870695 0.930028 0.692815 0.055688
C6    C     C_R   0.129095 0.411343 0.307247 -0.016063
H1    H     H_    0.782691 0.942514 0.576599 0.124688
H2    H     H_    0.216941 0.428205 0.423625 0.131343
C7    C     C_R   0.884841 0.938065 0.820735 -0.468370
C8    C     C_R   0.114991 0.436925 0.179507 -0.460990
C9    C     C_R   0.591834 0.802243 0.739401 -0.290569
C10   C     C_R   0.408530 0.308038 0.260239 -0.291601
C11   C     C_R   0.629773 0.780553 0.803831 0.417321
C12   C     C_R   0.370740 0.288859 0.195581 0.417925
C13   C     C_R   0.692174 0.814213 0.807955 -0.207218
C14   C     C_R   0.308213 0.320050 0.191551 -0.205639
C15   C     C_R   0.717581 0.878407 0.749562 0.092433
C16   C     C_R   0.282482 0.378691 0.250384 0.088998
C17   C     C_R   0.678681 0.885926 0.683486 0.112758
C18   C     C_R   0.321283 0.383809 0.316559 0.113087
C19   C     C_R   0.781486 0.917183 0.753854 -0.045860
C20   C     C_R   0.218398 0.413902 0.246314 -0.040224
C21   C     C_R   0.806504 0.926084 0.690537 0.060535
C22   C     C_R   0.193280 0.414371 0.309604 0.074465
C23   C     C_R   0.766628 0.929852 0.626129 -0.173028
C24   C     C_R   0.233095 0.418810 0.374061 -0.180437
C25   C     C_R   0.704217 0.917321 0.622965 -0.192654
C26   C     C_R   0.295569 0.410523 0.377218 -0.191943
C27   C     C_R   0.821354 0.947133 0.818607 0.238001
C28   C     C_R   0.178490 0.448097 0.181863 0.238501
C29   C     C_R   0.909161 0.922276 0.758364 0.277785
C30   C     C_R   0.090635 0.412322 0.241586 0.291187
C31   C     C_R   0.615411 0.851003 0.679003 -0.228513
C32   C     C_R   0.384687 0.351802 0.320917 -0.227647
H3    H     H_    0.543679 0.774041 0.735450 0.161088
H4    H     H_    0.456800 0.282028 0.264072 0.160863
H5    H     H_    0.720754 0.778146 0.856437 0.207888
H6    H     H_    0.279804 0.286170 0.142731 0.207390
H7    H     H_    0.676239 0.922714 0.571833 0.100736
H8    H     H_    0.323491 0.415135 0.428394 0.100939
C33   C     C_3   0.812826 0.769897 0.268278 -0.357799
C34   C     C_3   0.186526 0.270179 0.730893 -0.360181
C35   C     C_3   0.778082 0.109305 0.238976 -0.394465
C36   C     C_3   0.221429 0.609178 0.760443 -0.395027
C37   C     C_3   0.728825 0.089452 0.287075 -0.460161
C38   C     C_3   0.270601 0.589311 0.712233 -0.459601
H9    H     H_    0.786749 0.810955 0.371819 0.162587
H10   H     H_    0.212685 0.311040 0.627358 0.163901
H11   H     H_    0.857213 0.818518 0.297552 0.178574
H12   H     H_    0.142190 0.319400 0.701605 0.175436
H13   H     H_    0.762575 0.214212 0.196351 0.163341
H14   H     H_    0.237052 0.713675 0.803137 0.163506
H15   H     H_    0.820499 0.167780 0.269843 0.182672
H16   H     H_    0.179016 0.668175 0.729690 0.181915
H17   H     H_    0.747217 0.144759 0.340236 0.171846
H18   H     H_    0.252134 0.644736 0.659094 0.172919
H19   H     H_    0.689002 0.180415 0.266480 0.164647
H20   H     H_    0.310439 0.680163 0.732758 0.164609
C39   C     C_1   0.624736 0.854002 0.378793 -0.275466
C40   C     C_1   0.374953 0.354057 0.620798 -0.274770
C41   C     C_3   0.791035 0.911539 0.207214 0.337667
C42   C     C_3   0.208405 0.411287 0.792075 0.339327
C43   C     C_3   0.765807 0.756341 0.319417 -0.414013
C44   C     C_3   0.233593 0.256405 0.679794 -0.410952
C45   C     C_3   0.708291 0.876451 0.291713 0.365123
C46   C     C_3   0.291127 0.376286 0.707542 0.363035
C47   C     C_3   0.681751 0.807782 0.215607 0.006791
C48   C     C_3   0.317671 0.307308 0.783622 0.006921
C49   C     C_3   0.730504 0.834240 0.166227 -0.412208
C50   C     C_3   0.268907 0.333358 0.832988 -0.412587
C51   C     C_1   0.662530 0.863319 0.340074 -0.096555
C52   C     C_1   0.336975 0.363294 0.659286 -0.095165
C53   C     C_1   0.837546 0.929139 0.160149 -0.028075
C54   C     C_1   0.161994 0.428942 0.839268 -0.029747
C55   C     C_1   0.875555 0.940207 0.121768 -0.140910
C56   C     C_1   0.124157 0.440124 0.877866 -0.141568
H21   H     H_    0.739613 0.696355 0.140406 0.180039
H22   H     H_    0.259760 0.195206 0.858623 0.179407
H23   H     H_    0.712838 0.936522 0.123464 0.175114
H24   H     H_    0.286587 0.435115 0.875887 0.175528
H25   H     H_    0.819925 0.624191 0.246915 0.169703
H26   H     H_    0.179281 0.124436 0.752147 0.170009
H27   H     H_    0.753774 0.603045 0.326721 0.156405
H28   H     H_    0.245617 0.103059 0.672547 0.157153
H29   H     H_    0.642378 0.902652 0.196171 0.133475
H30   H     H_    0.356979 0.402275 0.803099 0.133731
O11   O     O_R   0.056480 0.288780 0.942210 -0.583743
O12   O     O_R   0.943520 0.788780 0.057790 -0.583507
O13   O     O_R   0.058700 0.616820 0.085490 -0.582669
O14   O     O_R   0.941300 0.116820 0.914510 -0.585328
C57   C     C_R   0.073053 0.448067 0.111908 1.150712
C58   C     C_R   0.926883 0.948198 0.888188 1.156416
O15   O     O_R   0.063520 0.618570 0.944410 -0.584666
O16   O     O_R   0.936480 0.118570 0.055590 -0.585642
O17   O     O_R   0.948420 0.787670 0.915740 -0.594803
O18   O     O_R   0.051580 0.287670 0.084260 -0.596230
C59   C     C_R   0.078634 0.449920 0.923619 1.052223
C60   C     C_R   0.921284 0.949930 0.076280 1.051105
O19   O     O_3   0.962260 0.453430 0.990800 -0.277790
O20   O     O_3   0.037740 0.953430 0.009200 -0.277787
V3    V     V_3+5 0.007000 0.728750 0.001710 1.286599
V4    V     V_3+5 0.993000 0.228750 0.998290 1.284620
N1    N     N_R   0.973712 0.907920 0.761879 0.220959
O21   O     O_R   0.008648 0.050553 0.786157 -0.434944
O22   O     O_R   0.997872 0.744901 0.747734 -0.438016
N2    N     N_R   0.026094 0.394414 0.237759 0.219501
O23   O     O_R   0.002841 0.234799 0.256737 -0.430060
O24   O     O_R   0.990373 0.534724 0.212840 -0.430933
C61   C     C_3   0.658193 0.597057 0.213059 -0.480412
C62   C     C_3   0.616311 0.551909 0.143980 -0.242327
C63   C     C_3   0.598897 0.339077 0.139660 -0.774794
H31   H     H_    0.639833 0.248470 0.139185 0.231782
H32   H     H_    0.576769 0.297529 0.184974 0.259999
H33   H     H_    0.566780 0.312000 0.090625 0.289797
H34   H     H_    0.574390 0.640263 0.140313 0.223967
H35   H     H_    0.639006 0.587662 0.098532 0.237691
H36   H     H_    0.697332 0.496393 0.219756 0.204863
H37   H     H_    0.632280 0.570147 0.256558 0.203712
C64   C     C_3   0.341386 0.096689 0.786127 -0.479625
C65   C     C_3   0.383343 0.051595 0.855178 -0.242898
C66   C     C_3   0.401416 0.839246 0.859202 -0.777504
H38   H     H_    0.360746 0.747324 0.859410 0.232549
H39   H     H_    0.423800 0.799253 0.813919 0.259903
H40   H     H_    0.433529 0.812295 0.908263 0.289047
H41   H     H_    0.425005 0.141158 0.859047 0.224242
H42   H     H_    0.360472 0.085862 0.900624 0.237354
H43   H     H_    0.302333 0.995795 0.779447 0.204531
H44   H     H_    0.367297 0.070081 0.742607 0.203907
C67   C     C_3   0.898943 0.945187 0.626096 -0.361660
C68   C     C_3   0.895206 0.151068 0.596019 -0.367641
C69   C     C_3   0.936352 0.291842 0.642232 -0.695819
H45   H     H_    0.921650 0.306571 0.694165 0.266105
H46   H     H_    0.984170 0.241614 0.649401 0.263016
H47   H     H_    0.933788 0.435966 0.616949 0.221011
H48   H     H_    0.909425 0.147497 0.543530 0.195503
H49   H     H_    0.847963 0.206143 0.589036 0.207520
H50   H     H_    0.947153 0.900054 0.634335 0.225967
H51   H     H_    0.876746 0.841834 0.586295 0.140440
C70   C     C_3   0.100830 0.408304 0.374053 -0.360764
C71   C     C_3   0.104669 0.206831 0.407445 -0.224592
C72   C     C_3   0.079327 0.207010 0.476205 -0.932449
H52   H     H_    0.105914 0.306389 0.514395 0.256383
H53   H     H_    0.031020 0.252594 0.467129 0.271808
H54   H     H_    0.082275 0.059533 0.498796 0.253521
H55   H     H_    0.078348 0.102901 0.370846 0.237415
H56   H     H_    0.152371 0.155811 0.417954 0.190207
H57   H     H_    0.122577 0.518232 0.411550 0.166452
H58   H     H_    0.052499 0.452888 0.363689 0.224481
N3    N     N_R   0.798361 0.011780 0.879968 0.226794
O25   O     O_R   0.815134 0.928510 0.940231 -0.446948
O26   O     O_R   0.760715 0.156088 0.875670 -0.367158
N4    N     N_R   0.201417 0.518668 0.121244 0.227084
O27   O     O_R   0.185052 0.439509 0.060181 -0.446813
O28   O     O_R   0.238609 0.664218 0.127046 -0.368158
N5    N     N_R   0.605241 0.719105 0.864767 0.249157
O29   O     O_R   0.548191 0.673784 0.860006 -0.415119
O30   O     O_R   0.639591 0.708918 0.925708 -0.370437
N6    N     N_R   0.395567 0.232450 0.134271 0.249070
O31   O     O_R   0.452649 0.187545 0.138926 -0.416185
O32   O     O_R   0.361421 0.226029 0.073131 -0.371441

loop_
_geom_bond_atom_site_label_1
_geom_bond_atom_site_label_2
_geom_bond_distance
_ccdc_geom_bond_type
C69   H47   1.110623 S    
C25   H7    1.083032 S    
O12   C60   1.296774 A    
C9    C31   1.397643 A    
C27   N3    1.438366 S    
C13   C15   1.414620 A    
O13   V3    1.991162 S    
O1    C3    1.296828 A    
C61   H37   1.110644 S    
O2    C4    1.297060 A    
O11   V4    1.962714 S    
O20   V4    2.150399 S    
N3    O25   1.301314 A    
C43   H27   1.111769 S    
C63   H31   1.110696 S    
N5    O30   1.301787 A    
C55   C60   1.452309 S    
C11   N5    1.441495 S    
O5    C3    1.296679 A    
C47   C61   1.552368 S    
N4    O28   1.301418 A    
N6    O32   1.301794 A    
O16   V4    1.963190 S    
O15   V3    1.963052 S    
N4    O27   1.301326 A    
C21   C23   1.411433 A    
C44   C46   1.553165 S    
C1    C40   1.452548 S    
C46   C48   1.570881 S    
C63   H32   1.110941 S    
N6    O31   1.301448 A    
C45   C51   1.494541 S    
C65   H42   1.110789 S    
C69   H45   1.110416 S    
O11   C59   1.296749 A    
C15   C19   1.441928 A    
C2    O7    1.303954 A    
C50   H24   1.113172 S    
C5    C67   1.528113 S    
O18   V4    1.987736 S    
C62   H34   1.111754 S    
N2    O23   1.300929 A    
O17   V3    1.987358 S    
C64   H44   1.110608 S    
H1    C23   1.079034 S    
C35   H15   1.112916 S    
C34   C42   1.553960 S    
C7    C58   1.482696 S    
C33   H11   1.112897 S    
C8    C30   1.405697 A    
C36   C38   1.556298 S    
C65   C66   1.526360 S    
N1    O22   1.301006 A    
C20   C28   1.431893 A    
C66   H40   1.110290 S    
C70   C71   1.536553 S    
C36   H14   1.112749 S    
C57   O18   1.293733 A    
O10   V2    2.150569 S    
C72   H53   1.110990 S    
C49   H21   1.113083 S    
C53   C55   1.216236 T    
O13   C57   1.297056 A    
C48   C64   1.552472 S    
C7    C29   1.404394 A    
C33   C43   1.556366 S    
C35   H13   1.112731 S    
C14   H6    1.076468 S    
C37   H17   1.113165 S    
C41   C49   1.550093 S    
O20   V3    1.700692 S    
N3    O26   1.301425 A    
C67   H51   1.109806 S    
C39   C51   1.216459 T    
C45   C47   1.571016 S    
C2    C39   1.452592 S    
C23   C25   1.388292 A    
C71   H56   1.110114 S    
C36   C42   1.549663 S    
C16   C20   1.441669 A    
C54   C56   1.216256 T    
C33   H25   1.113223 S    
C10   H4    1.083868 S    
C68   H49   1.109927 S    
C9    H3    1.083939 S    
C48   C50   1.569435 S    
C61   H36   1.110078 S    
N5    O29   1.301520 A    
C47   C49   1.569798 S    
C38   H20   1.111129 S    
C63   H33   1.110273 S    
C34   H12   1.113011 S    
C65   H41   1.111759 S    
C26   H8    1.083047 S    
H10   C44   1.113209 S    
C8    C57   1.484036 S    
C29   N1    1.435920 S    
C70   H57   1.109990 S    
O4    V2    1.963149 S    
C5    C29   1.414626 A    
O14   V4    1.991822 S    
C6    C30   1.415316 A    
H2    C24   1.079043 S    
C30   N2    1.437034 S    
O6    C4    1.296346 A    
C35   C41   1.549668 S    
C28   N4    1.438369 S    
O19   V3    2.151149 S    
O1    V2    1.986631 S    
C42   C54   1.491745 S    
C72   H54   1.110478 S    
O14   C58   1.296290 A    
O2    V1    1.986260 S    
C43   C45   1.552862 S    
C41   C53   1.491717 S    
C61   C62   1.536370 S    
C40   C52   1.216430 T    
C34   C44   1.556713 S    
C56   C59   1.452339 S    
C38   H18   1.113165 S    
C35   C37   1.556329 S    
C66   H38   1.110697 S    
C7    C27   1.413401 A    
O4    C2    1.306765 A    
C6    C70   1.526377 S    
H9    C43   1.113118 S    
O3    V1    1.963012 S    
C13   H5    1.076289 S    
O16   C60   1.299337 A    
C69   H46   1.110800 S    
O15   C59   1.299480 A    
C71   H55   1.111178 S    
C48   H30   1.114450 S    
C68   C69   1.528689 S    
C18   C32   1.422537 A    
C68   H48   1.111544 S    
C47   H29   1.114452 S    
C33   C41   1.553676 S    
O12   V3    1.962614 S    
C10   C12   1.399227 A    
C4    C31   1.481283 S    
O3    C1    1.306739 A    
C11   C13   1.402945 A    
C67   H50   1.108111 S    
C12   C14   1.402998 A    
C50   H22   1.113097 S    
C19   C27   1.431593 A    
C70   H58   1.109882 S    
C37   C45   1.554547 S    
O9    V1    2.151319 S    
C62   C63   1.526293 S    
C10   C32   1.397663 A    
C14   C16   1.414295 A    
C15   C17   1.427210 A    
O8    V2    1.958646 S    
C67   C68   1.539659 S    
C44   H28   1.111744 S    
C22   C24   1.411616 A    
C16   C18   1.427235 A    
C8    C28   1.413888 A    
C24   C26   1.388125 A    
C36   H16   1.112925 S    
O5    V1    1.991146 S    
C19   C21   1.426519 A    
C17   C25   1.398844 A    
O19   V4    1.700161 S    
C20   C22   1.425915 A    
C18   C26   1.398766 A    
C62   H35   1.110772 S    
C64   C65   1.536386 S    
N2    O24   1.301279 A    
C34   H26   1.113195 S    
C64   H43   1.110059 S    
C38   C46   1.554497 S    
C49   H23   1.113143 S    
C46   C52   1.494496 S    
C1    O8    1.304050 A    
C9    C11   1.398897 A    
C71   C72   1.526524 S    
C12   N6    1.441388 S    
O6    V2    1.991808 S    
C17   C31   1.422841 A    
O9    V2    1.700602 S    
C66   H39   1.110971 S    
O10   V1    1.701134 S    
C3    C32   1.481436 S    
C5    C21   1.427653 A    
C37   H19   1.111136 S    
C72   H52   1.111093 S    
C6    C22   1.427188 A    
C58   O17   1.293753 A    
C42   C50   1.550068 S    
N1    O21   1.301116 A    
O7    V1    1.958552 S    
