data_mof_unit_24759.cif
_audit_creation_date              2012-12-11T14:17:42-0500
_audit_creation_method            fapswitch 2.2
_symmetry_space_group_name_H-M    P1
_symmetry_Int_Tables_number       1
_space_group_crystal_system       triclinic
_cell_length_a                    6.945709
_cell_length_b                    13.636677
_cell_length_c                    20.409173
_cell_angle_alpha                 102.160045
_cell_angle_beta                  89.852863
_cell_angle_gamma                 90.740221
_cell_volume                      1889.55292503

loop_
_atom_site_label
_atom_site_type_symbol
_atom_type_description
_atom_site_fract_x
_atom_site_fract_y
_atom_site_fract_z
_atom_type_partial_charge
O1    O     O_R   0.506860 0.599390 0.449240 -0.541419
O2    O     O_R   0.180220 0.594600 0.586780 -0.544960
O3    O     O_R   0.004500 0.400610 0.550760 -0.537367
C1    C     C_R   0.349008 0.616047 0.613466 0.736390
O4    O     O_R   0.177490 0.611290 0.451970 -0.541564
O5    O     O_R   0.001750 0.417420 0.414990 -0.540294
C2    C     C_R   0.347217 0.637994 0.435278 0.713776
O6    O     O_R   0.509610 0.582580 0.585010 -0.545474
O7    O     O_3   0.337420 0.436370 0.488020 -0.365930
V1    V     V_3+5 0.064680 0.511800 0.502220 1.438365
O8    O     O_R   0.671710 0.405400 0.413220 -0.543421
C3    C     C_R   0.839827 0.384030 0.386549 0.747909
O9    O     O_R   0.674440 0.388710 0.548030 -0.536206
C4    C     C_R   0.842334 0.361995 0.564718 0.708678
V2    V     V_3+5 0.564010 0.488200 0.497780 1.450996
O10   O     O_3   0.841140 0.563630 0.511980 -0.376959
C5    C     C_R   0.832505 0.110847 0.612350 -0.119653
H1    H     H_    0.824508 0.161132 0.519626 0.157043
H2    H     H_    0.830791 0.985503 0.695477 0.124039
H3    H     H_    0.822639 0.032524 0.587306 0.137721
C6    C     C_R   0.847503 0.284970 0.604718 -0.053677
C7    C     C_R   0.875497 0.315306 0.928509 -0.168439
C8    C     C_R   0.876834 0.391422 0.892783 -0.119377
C9    C     C_R   0.869359 0.368651 0.822996 -0.156938
C10   C     C_R   0.859980 0.267844 0.786796 0.080684
C11   C     C_R   0.856821 0.190091 0.823891 0.066940
C12   C     C_R   0.853665 0.241614 0.715193 0.074480
C13   C     C_R   0.841986 0.138659 0.682564 0.121867
C14   C     C_R   0.839145 0.064081 0.720073 -0.191914
C15   C     C_R   0.846935 0.089160 0.789538 -0.193115
C16   C     C_R   0.857864 0.313862 0.674567 -0.214991
C17   C     C_R   0.834030 0.183679 0.573705 -0.111433
C18   C     C_R   0.865051 0.214986 0.894859 -0.074023
H4    H     H_    0.867034 0.393241 0.695345 0.094641
H5    H     H_    0.883012 0.334663 0.982748 0.101903
H6    H     H_    0.871146 0.431906 0.799122 0.106600
H7    H     H_    0.884508 0.468953 0.919403 0.118737
H8    H     H_    0.844658 0.028341 0.816142 0.116273
C19   C     C_2   0.005445 0.288658 0.285023 -0.123886
C20   C     C_2   0.842258 0.315577 0.319799 -0.291651
H9    H     H_    0.142657 0.317260 0.306949 0.136127
H10   H     H_    0.703574 0.287422 0.299549 0.130007
C21   C     C_2   0.013704 0.220560 0.217403 -0.127027
C22   C     C_2   0.858519 0.183232 0.180388 -0.305950
H11   H     H_    0.156551 0.201330 0.197374 0.132724
H12   H     H_    0.714373 0.201656 0.198820 0.126758
C23   C     C_2   0.204626 0.790735 0.782400 -0.134503
C24   C     C_2   0.363708 0.815705 0.819926 -0.305658
H13   H     H_    0.066969 0.820894 0.801827 0.131272
H14   H     H_    0.502193 0.785892 0.801819 0.127483
C25   C     C_2   0.202856 0.722234 0.714889 -0.129090
C26   C     C_2   0.360960 0.684328 0.680208 -0.306406
H15   H     H_    0.061609 0.703147 0.692814 0.133514
H16   H     H_    0.504067 0.703009 0.700235 0.124595
C27   C     C_R   0.419737 0.887821 0.388459 0.401111
H17   H     H_    0.416362 0.834972 0.480513 0.141358
H18   H     H_    0.450609 0.012352 0.302121 0.183347
C28   C     C_R   0.360127 0.715309 0.395542 -0.097135
C29   C     C_R   0.317185 0.686494 0.072378 -0.170036
C30   C     C_R   0.297959 0.611340 0.108517 -0.122507
C31   C     C_R   0.312868 0.633898 0.178161 -0.155945
C32   C     C_R   0.348137 0.733547 0.213877 0.101861
C33   C     C_R   0.369638 0.810034 0.176286 0.071472
C34   C     C_R   0.362825 0.759688 0.285418 0.026666
C35   C     C_R   0.401513 0.861373 0.317816 0.054785
C36   C     C_R   0.421882 0.934539 0.279208 -0.139275
C37   C     C_R   0.405744 0.909520 0.209962 -0.217274
C38   C     C_R   0.340996 0.688040 0.326011 -0.219111
C39   C     C_R   0.400064 0.814551 0.426527 -0.202648
C40   C     C_R   0.353311 0.785483 0.105463 -0.074500
H19   H     H_    0.311015 0.609964 0.305433 0.104193
H20   H     H_    0.303430 0.667466 0.018282 0.103256
H21   H     H_    0.296147 0.571261 0.202207 0.105669
H22   H     H_    0.270440 0.534768 0.082345 0.119253
H23   H     H_    0.422606 0.969430 0.182936 0.119844
O11   O     O_R   0.203230 0.917310 0.915020 -0.539023
O12   O     O_R   0.535500 0.888690 0.048040 -0.540943
O13   O     O_R   0.711080 0.082610 0.085000 -0.544664
C41   C     C_R   0.365901 0.862437 0.065117 0.689782
O14   O     O_R   0.532630 0.905370 0.913230 -0.548459
O15   O     O_R   0.708190 0.099410 0.949230 -0.538784
C42   C     C_R   0.364417 0.884219 0.886519 0.744112
O16   O     O_R   0.206120 0.900510 0.050790 -0.537894
O17   O     O_3   0.375360 0.063570 0.011990 -0.372829
V3    V     V_3+5 0.648170 0.988200 0.997780 1.415373
O18   O     O_R   0.038240 0.111390 0.951940 -0.540939
C43   C     C_R   0.870372 0.137580 0.934892 0.687060
O19   O     O_R   0.041120 0.094710 0.086750 -0.542272
C44   C     C_R   0.872469 0.115692 0.113536 0.744658
V4    V     V_3+5 0.148810 0.011930 0.002180 1.422920
O20   O     O_3   0.871750 0.936430 0.988010 -0.372514
Cl1   Cl    Cl    0.469611 0.011689 0.431924 -0.698165

loop_
_geom_bond_atom_site_label_1
_geom_bond_atom_site_label_2
_ccdc_geom_bond_type
H18   C36   S    
C1    O6    A    
V3    O20   S    
C23   H13   S    
C7    H5    S    
C6    C16   A    
H17   C39   S    
O14   V3    S    
C1    C26   S    
C34   C38   A    
C4    C6    S    
C13   C14   A    
O5    C3    A    
V2    O10   S    
C5    H3    S    
C15   H8    S    
C30   H22   S    
O16   V4    S    
C32   C34   A    
O8    V2    S    
C22   H12   S    
C8    C9    A    
O1    V2    S    
C14   C15   A    
O7    V1    S    
C2    C28   S    
C29   H20   S    
C20   H10   S    
C36   C37   A    
O12   V3    S    
C29   C30   A    
O9    C4    A    
O17   V4    S    
C27   C35   A    
C26   H16   S    
O12   C41   A    
O13   C44   A    
C6    C17   A    
C33   C37   A    
C12   C16   A    
C25   C26   D    
C9    C10   A    
O14   C42   A    
O18   V4    S    
O11   C42   A    
C19   C20   D    
O4    C2    A    
O18   C43   A    
C23   C25   S    
C31   H21   S    
C10   C11   A    
C8    H7    S    
C30   C31   A    
C25   H15   S    
C3    C20   S    
O2    C1    A    
C21   C22   D    
C27   Cl1   S    
C11   C18   A    
C23   C24   D    
C33   C40   A    
C32   C33   A    
C16   H4    S    
O15   C43   A    
O17   V3    S    
C21   H11   S    
C27   C39   A    
O3    C4    A    
O13   V3    S    
C28   C38   A    
O19   V4    S    
C11   C15   A    
O6    V2    S    
O9    V2    S    
C37   H23   S    
O2    V1    S    
C7    C18   A    
C40   C41   S    
O1    C2    A    
C5    C13   A    
O5    V1    S    
C19   C21   S    
O8    C3    A    
C28   C39   A    
C10   C12   A    
C9    H6    S    
C34   C35   A    
O7    V2    S    
O4    V1    S    
O3    V1    S    
V1    O10   S    
C41   O16   A    
V4    O20   S    
C38   H19   S    
C24   H14   S    
C24   C42   S    
C18   C43   S    
C31   C32   A    
C29   C40   A    
H1    C17   S    
O19   C44   A    
C19   H9    S    
C35   C36   A    
C12   C13   A    
C5    C17   A    
C7    C8    A    
O15   V3    S    
C22   C44   S    
O11   V4    S    
H2    C14   S    
