data_mof_unit_23140.cif
_audit_creation_date              2012-12-10T17:23:40-0500
_audit_creation_method            fapswitch 2.2
_symmetry_space_group_name_H-M    P1
_symmetry_Int_Tables_number       1
_space_group_crystal_system       triclinic
_cell_length_a                    9.603257
_cell_length_b                    10.778797
_cell_length_c                    17.348935
_cell_angle_alpha                 92.571635
_cell_angle_beta                  85.953923
_cell_angle_gamma                 90.034095
_cell_volume                      1789.52944635

loop_
_atom_site_label
_atom_site_type_symbol
_atom_type_description
_atom_site_fract_x
_atom_site_fract_y
_atom_site_fract_z
_atom_type_partial_charge
C1    C     C_R   0.499649 0.737414 0.502708 0.795376
C2    C     C_R   0.343171 0.490949 0.776455 -0.209572
C3    C     C_R   0.416428 0.523277 0.146846 -0.171532
C4    C     C_R   0.407772 0.520289 0.226796 -0.193288
C5    C     C_R   0.658042 0.487979 0.223945 -0.213219
C6    C     C_R   0.667419 0.490190 0.143519 0.173196
C7    C     C_R   0.545575 0.506594 0.104452 0.137328
C8    C     C_2   0.451887 0.461003 0.978313 -0.226732
C9    C     C_2   0.553302 0.508768 0.019862 -0.186425
C10   C     C_R   0.528358 0.502424 0.265904 -0.072090
C11   C     C_R   0.337042 0.879674 0.625613 -0.186862
C12   C     C_R   0.481756 0.497811 0.649692 0.768202
C13   C     C_R   0.258190 0.948758 0.682879 -0.136785
C14   C     C_R   0.258181 0.077779 0.682810 -0.126399
C15   C     C_R   0.336916 0.138535 0.625441 -0.170104
C16   C     C_R   0.415852 0.070420 0.565922 0.098552
C17   C     C_R   0.415929 0.939169 0.566029 0.097964
C18   C     C_R   0.499121 0.871615 0.507990 -0.102850
C19   C     C_R   0.584937 0.932622 0.453622 -0.189284
C20   C     C_R   0.584837 0.060601 0.453489 -0.203851
C21   C     C_R   0.498956 0.129517 0.507751 -0.089295
C22   C     C_R   0.869015 0.335648 0.396769 -0.152942
C23   C     C_R   0.499655 0.262914 0.502356 0.768425
C24   C     C_R   0.947493 0.255473 0.346149 -0.200164
C25   C     C_R   0.090981 0.255209 0.346233 -0.188192
C26   C     C_R   0.156881 0.335172 0.396905 -0.143325
C27   C     C_R   0.081166 0.419054 0.449307 0.207351
C28   C     C_R   0.931625 0.419193 0.449278 0.214794
C29   C     C_R   0.920036 0.576855 0.548305 -0.059650
C30   C     C_R   0.067903 0.576833 0.548282 -0.059365
C31   C     C_R   0.518332 0.500259 0.350254 0.788555
C32   C     C_R   0.472830 0.487437 0.733624 -0.028846
C33   C     C_R   0.595282 0.469419 0.771279 -0.195021
C34   C     C_R   0.588825 0.457694 0.850629 -0.143419
C35   C     C_R   0.459857 0.465645 0.893868 0.183880
C36   C     C_R   0.336855 0.479580 0.856303 -0.156579
Cu1   Cu    Cu3+1 0.359340 0.500010 0.500010 0.929297
Cu2   Cu    Cu3+1 0.640660 0.499990 0.499990 0.938719
H1    H     H_    0.696448 0.463504 0.739497 0.157554
H2    H     H_    0.649976 0.880636 0.409877 0.156410
H3    H     H_    0.337489 0.779918 0.629701 0.138499
H4    H     H_    0.198362 0.901980 0.728116 0.136625
H5    H     H_    0.198385 0.131141 0.728001 0.140710
H6    H     H_    0.337094 0.238840 0.629385 0.154360
H7    H     H_    0.649798 0.106132 0.409633 0.139551
H8    H     H_    0.859904 0.639895 0.587924 0.138906
H9    H     H_    0.759862 0.327810 0.392083 0.192760
H10   H     H_    0.896244 0.192866 0.306643 0.156476
H11   H     H_    0.306632 0.533210 0.257912 0.174016
H12   H     H_    0.152025 0.192372 0.306789 0.157325
H13   H     H_    0.267215 0.326851 0.392331 0.198853
H14   H     H_    0.118078 0.639856 0.587885 0.132272
H15   H     H_    0.752154 0.473953 0.253400 0.179329
H16   H     H_    0.644585 0.550615 0.991253 0.176938
H17   H     H_    0.236444 0.484351 0.888973 0.142671
H18   H     H_    0.321950 0.540419 0.118414 0.157925
H19   H     H_    0.247107 0.503183 0.748481 0.151208
H20   H     H_    0.358906 0.421244 0.006697 0.162769
H21   H     H_    0.684859 0.441648 0.877813 0.144974
N1    N     N_R   0.852190 0.498790 0.499250 -0.199881
N2    N     N_R   0.148060 0.498710 0.499220 -0.199813
O1    O     O_R   0.381190 0.680360 0.500010 -0.576222
O2    O     O_R   0.618760 0.680340 0.500000 -0.572707
O3    O     O_R   0.367440 0.500030 0.613600 -0.599008
O4    O     O_R   0.605010 0.500010 0.613590 -0.582414
O5    O     O_R   0.381240 0.319660 0.500000 -0.602779
O6    O     O_R   0.618810 0.319640 0.499990 -0.590121
O7    O     O_R   0.394990 0.499990 0.386410 -0.599522
O8    O     O_R   0.632560 0.499970 0.386400 -0.601096
I1    I     I_    0.867848 0.462468 0.085232 -0.462418

loop_
_geom_bond_atom_site_label_1
_geom_bond_atom_site_label_2
_ccdc_geom_bond_type
Cu1   N2    S    
C24   C25   A    
C29   N1    A    
C11   H3    S    
C16   C21   A    
C25   H12   S    
C12   O4    A    
C29   H8    S    
C31   O7    A    
C19   C20   A    
Cu2   O4    S    
C4    H11   S    
Cu1   O5    S    
C2    C36   A    
C28   N1    A    
Cu1   O1    S    
C1    C18   S    
Cu2   O8    S    
C5    C10   A    
C36   H17   S    
C22   C28   A    
C13   C14   A    
Cu2   O6    S    
C2    C32   A    
C11   C13   A    
C20   H7    S    
C26   C27   A    
C29   C30   A    
C35   C36   A    
Cu2   N1    S    
C1    O2    A    
C23   O5    A    
C5    H15   S    
C13   H4    S    
Cu1   Cu2   S    
C15   H6    S    
C33   C34   A    
C6    C7    A    
C3    C7    A    
C21   C23   S    
C5    C6    A    
C12   O3    A    
C16   C17   A    
C22   C24   A    
C2    H19   S    
C12   C32   S    
C19   H2    S    
C4    C10   A    
C15   C16   A    
C24   H10   S    
Cu1   O7    S    
C7    C9    S    
C31   O8    A    
Cu1   O3    S    
C18   C19   A    
C20   C21   A    
C1    O1    A    
C17   C18   A    
C34   C35   A    
C3    H18   S    
C30   N2    A    
C23   O6    A    
C27   C28   A    
C6    I1    S    
C30   H14   S    
C14   C15   A    
C14   H5    S    
C9    H16   S    
C27   N2    A    
C8    H20   S    
C25   C26   A    
C26   H13   S    
C34   H21   S    
C10   C31   S    
C33   H1    S    
C22   H9    S    
C11   C17   A    
C3    C4    A    
C32   C33   A    
C8    C9    D    
Cu2   O2    S    
C8    C35   S    
