data_mof_unit_50558.cif
_audit_creation_date              2012-12-10T17:49:35-0500
_audit_creation_method            fapswitch 2.2
_symmetry_space_group_name_H-M    P1
_symmetry_Int_Tables_number       1
_space_group_crystal_system       triclinic
_cell_length_a                    14.719402
_cell_length_b                    14.666487
_cell_length_c                    15.88293
_cell_angle_alpha                 76.722644
_cell_angle_beta                  102.79682
_cell_angle_gamma                 114.936138
_cell_volume                      2995.74248864

loop_
_atom_site_label
_atom_site_type_symbol
_atom_type_description
_atom_site_fract_x
_atom_site_fract_y
_atom_site_fract_z
_atom_type_partial_charge
C1    C     C_R   0.880294 0.311563 0.515642 0.837105
C2    C     C_3   0.032483 0.415384 0.072738 -0.361734
C3    C     C_3   0.999591 0.499572 0.082848 0.140524
C4    C     C_3   0.072624 0.605478 0.041195 0.206287
C5    C     C_3   0.072646 0.605347 0.943150 -0.439727
C6    C     C_1   0.000437 0.499674 0.175287 0.037373
C7    C     C_1   0.999223 0.500348 0.824658 -0.053619
C8    C     C_1   0.999281 0.500213 0.749160 -0.163912
C9    C     C_R   0.812908 0.202481 0.531573 -0.131612
C10   C     C_R   0.187192 0.795828 0.488495 -0.067825
C11   C     C_R   0.781330 0.023293 0.576047 -0.157927
C12   C     C_R   0.999740 0.499996 0.659652 0.815874
C13   C     C_R   0.849149 0.123572 0.558030 0.347751
C14   C     C_R   0.708515 0.177549 0.522719 -0.273413
C15   C     C_R   0.639096 0.076749 0.542007 0.018408
C16   C     C_R   0.677049 0.998645 0.568283 0.040137
C17   C     C_R   0.532916 0.051351 0.532705 0.080051
C18   C     C_R   0.465895 0.947262 0.541459 0.024690
C19   C     C_R   0.506736 0.872245 0.573414 -0.252578
C20   C     C_R   0.610896 0.896787 0.586229 0.424842
C21   C     C_R   0.491205 0.126124 0.515375 -0.188320
C22   C     C_R   0.387165 0.099701 0.499431 -0.212834
C23   C     C_R   0.119677 0.688006 0.487504 0.807498
C24   C     C_R   0.321028 0.998466 0.498047 0.147730
C25   C     C_R   0.359757 0.921314 0.518489 0.110367
C26   C     C_R   0.216392 0.973445 0.475625 -0.170961
C27   C     C_R   0.149766 0.872618 0.471158 -0.178646
C28   C     C_R   0.291219 0.820913 0.511436 -0.195475
C29   C     C_R   0.719358 0.672778 0.357625 -0.270988
C30   C     C_R   0.798624 0.640114 0.378897 0.098047
C31   C     C_R   0.714399 0.509533 0.487949 0.039387
C32   C     C_R   0.630672 0.539095 0.469415 -0.018561
C33   C     C_R   0.636012 0.623544 0.403445 0.083525
C34   C     C_R   0.000268 0.500016 0.340353 0.835189
C35   C     C_R   0.543930 0.489973 0.514691 0.037248
C36   C     C_R   0.463640 0.526723 0.493000 -0.017285
C37   C     C_R   0.479093 0.618953 0.432700 0.319559
C38   C     C_R   0.561335 0.662324 0.386623 -0.177006
C39   C     C_R   0.536326 0.406846 0.582530 -0.206955
C40   C     C_R   0.454708 0.361414 0.628835 -0.180024
C41   C     C_R   0.373970 0.392185 0.606173 0.143894
C42   C     C_R   0.374402 0.471438 0.535458 -0.008257
C43   C     C_R   0.291160 0.342025 0.652652 -0.293876
C44   C     C_R   0.207756 0.368457 0.627761 0.137218
C45   C     C_3   0.034405 0.417532 0.975195 -0.388362
C46   C     C_R   0.282857 0.487240 0.508698 0.058314
C47   C     C_3   0.891571 0.478306 0.933311 -0.394987
C48   C     C_3   0.891537 0.479911 0.030847 0.189557
C49   C     C_1   0.000676 0.499804 0.250842 -0.113822
C50   C     C_3   0.999421 0.500453 0.916823 0.198803
Cu1   Cu    Cu3+1 0.081750 0.475690 0.522550 0.992208
Cu2   Cu    Cu3+1 0.918250 0.524310 0.477450 0.955213
H1    H     H_    0.979384 0.339191 0.099845 0.225352
H2    H     H_    0.112467 0.432838 0.965507 0.173318
H3    H     H_    0.108204 0.425103 0.110816 0.169066
H4    H     H_    0.043825 0.663569 0.044196 0.135352
H5    H     H_    0.317309 0.760583 0.521392 0.200985
H6    H     H_    0.069363 0.854900 0.454048 0.165154
H7    H     H_    0.358442 0.159343 0.485976 0.156482
H8    H     H_    0.811065 0.964240 0.595794 0.221023
H9    H     H_    0.682603 0.238440 0.498608 0.170658
H10   H     H_    0.984093 0.341549 0.956324 0.191660
H11   H     H_    0.459334 0.793501 0.591304 0.153104
H12   H     H_    0.536786 0.205998 0.515495 0.137926
H13   H     H_    0.186211 0.032043 0.460910 0.158587
H14   H     H_    0.570025 0.731321 0.340009 0.189247
H15   H     H_    0.269758 0.533232 0.448057 0.195644
H16   H     H_    0.144324 0.331020 0.664228 0.155892
H17   H     H_    0.453622 0.299406 0.681722 0.149579
H18   H     H_    0.724293 0.737712 0.307001 0.147409
H19   H     H_    0.864086 0.679447 0.344981 0.127072
H20   H     H_    0.718590 0.447846 0.538320 0.116525
H21   H     H_    0.864518 0.536500 0.891302 0.152942
H22   H     H_    0.593413 0.375590 0.602974 0.128459
H23   H     H_    0.290887 0.282627 0.707813 0.153553
H24   H     H_    0.838317 0.403267 0.914165 0.220612
H25   H     H_    0.869483 0.542674 0.034364 0.108190
H26   H     H_    0.150176 0.623304 0.930239 0.193816
H27   H     H_    0.048596 0.666008 0.902018 0.161263
N1    N     N_R   0.795410 0.560790 0.443550 -0.181784
N2    N     N_R   0.204590 0.439170 0.556520 -0.196371
O1    O     O_R   0.977910 0.338120 0.529720 -0.525247
O2    O     O_R   0.839850 0.379180 0.491640 -0.599916
O3    O     O_R   0.069060 0.479460 0.639610 -0.587878
O4    O     O_R   0.931000 0.520530 0.601530 -0.577737
O5    O     O_R   0.160150 0.620820 0.508360 -0.573937
O6    O     O_R   0.022090 0.661880 0.470280 -0.593730
O7    O     O_R   0.069000 0.479470 0.398470 -0.570088
O8    O     O_R   0.930940 0.520540 0.360390 -0.575644
O9    O     O_3   0.649439 0.821935 0.615102 -0.732403
H28   H     H_    0.592994 0.754242 0.622252 0.337975
Cl1   Cl    Cl    0.977739 0.143357 0.568623 -0.632559
Cl2   Cl    Cl    0.413136 0.698279 0.421574 -0.691004
Cl3   Cl    Cl    0.796745 0.364532 0.076452 -0.611725
O10   O     O_3   0.171178 0.635042 0.088082 -0.693109
H29   H     H_    0.203797 0.592851 0.076975 0.338197

loop_
_geom_bond_atom_site_label_1
_geom_bond_atom_site_label_2
_ccdc_geom_bond_type
C10   C27   A    
C41   C42   A    
C45   H10   S    
C36   C42   A    
O10   H29   S    
C9    C14   A    
C3    C6    S    
C30   H19   S    
C7    C8    T    
C28   H5    S    
C25   C28   A    
C26   C27   A    
C29   C30   A    
C48   Cl3   S    
C12   O4    A    
C36   C37   A    
C24   C26   A    
C47   H24   S    
C2    H3    S    
C15   C16   A    
C4    O10   S    
C29   C33   A    
C3    C48   S    
C12   O3    A    
C18   C19   A    
C42   C46   A    
C39   H22   S    
C9    C13   A    
C21   H12   S    
C19   C20   A    
C19   H11   S    
C23   O5    A    
C47   C48   S    
C5    H27   S    
Cu1   N2    S    
C8    C12   S    
C30   N1    A    
C23   O6    A    
C21   C22   A    
C4    H4    S    
C41   C43   A    
Cu2   O8    S    
C18   C25   A    
Cu1   O5    S    
C47   C50   S    
C2    C45   S    
C43   H23   S    
C40   H17   S    
Cu1   Cu2   S    
C32   C35   A    
C38   H14   S    
C31   N1    A    
C1    C9    S    
C24   C25   A    
C47   H21   S    
C44   N2    A    
C22   H7    S    
C1    O1    A    
C14   H9    S    
C20   O9    S    
C2    H1    S    
C17   C21   A    
C35   C36   A    
C48   H25   S    
Cu2   O2    S    
C35   C39   A    
C43   C44   A    
C37   C38   A    
C46   N2    A    
C11   C16   A    
C31   C32   A    
C16   C20   A    
C17   C18   A    
C37   Cl2   S    
C34   O7    A    
Cu1   O1    S    
C31   H20   S    
Cu2   O4    S    
C45   H2    S    
C13   Cl1   S    
C22   C24   A    
C5    C50   S    
C44   H16   S    
C11   H8    S    
C39   C40   A    
C29   H18   S    
C10   C28   A    
C15   C17   A    
C40   C41   A    
C34   C49   S    
C26   H13   S    
Cu2   O6    S    
C7    C50   S    
C4    C5    S    
C27   H6    S    
Cu1   O7    S    
C10   C23   S    
C1    O2    A    
C33   C38   A    
C32   C33   A    
C2    C3    S    
C34   O8    A    
C46   H15   S    
C11   C13   A    
O9    H28   S    
C45   C50   S    
C6    C49   T    
C14   C15   A    
C5    H26   S    
Cu2   N1    S    
Cu1   O3    S    
C3    C4    S    
