data_mof_unit_56195.cif
_audit_creation_date              2012-12-10T19:02:00-0500
_audit_creation_method            fapswitch 2.2
_symmetry_space_group_name_H-M    P1
_symmetry_Int_Tables_number       1
_space_group_crystal_system       triclinic
_cell_length_a                    24.400689
_cell_length_b                    24.406619
_cell_length_c                    25.814863
_cell_angle_alpha                 89.660851
_cell_angle_beta                  89.811792
_cell_angle_gamma                 90.171768
_cell_volume                      15373.3178783

loop_
_atom_site_label
_atom_site_type_symbol
_atom_type_description
_atom_site_fract_x
_atom_site_fract_y
_atom_site_fract_z
_atom_type_partial_charge
C1    C     C_R   0.228629 0.271337 0.250069 -0.041681
C2    C     C_R   0.228297 0.728837 0.249649 -0.033762
C3    C     C_R   0.394959 0.104928 0.749878 0.625201
C4    C     C_R   0.895024 0.395073 0.250138 0.479754
C5    C     C_R   0.104959 0.605150 0.749690 0.548389
C6    C     C_R   0.394984 0.104980 0.249976 0.473028
C7    C     C_R   0.605018 0.895021 0.750022 0.473759
C8    C     C_R   0.894985 0.604980 0.749976 0.473015
C9    C     C_R   0.105017 0.395021 0.250022 0.473755
C10   C     C_R   0.395024 0.895073 0.750138 0.479750
C11   C     C_R   0.604959 0.105150 0.249691 0.548393
C12   C     C_R   0.105613 0.394708 0.750240 0.570264
C13   C     C_R   0.728630 0.771337 0.750067 -0.041693
C14   C     C_R   0.894959 0.604927 0.249878 0.625266
C15   C     C_R   0.604952 0.104997 0.749872 0.480134
C16   C     C_R   0.394837 0.895026 0.250296 0.551763
C17   C     C_R   0.242654 0.326043 0.238181 0.295892
C18   C     C_R   0.782935 0.699366 0.795908 0.295919
C19   C     C_R   0.326685 0.756767 0.245539 0.239081
C20   C     C_R   0.694020 0.221971 0.793238 0.293852
C21   C     C_R   0.784831 0.699100 0.201430 0.245433
C22   C     C_R   0.181176 0.262265 0.778551 0.287394
C23   C     C_R   0.672950 0.244068 0.245994 0.296268
C24   C     C_R   0.271309 0.228596 0.250027 -0.041814
C25   C     C_R   0.305519 0.777620 0.793737 0.302306
C26   C     C_R   0.755946 0.326997 0.754392 0.296531
C27   C     C_R   0.221743 0.695181 0.205950 0.302155
C28   C     C_R   0.673928 0.757351 0.761958 0.295835
C29   C     C_R   0.300326 0.217074 0.204099 0.295899
C30   C     C_R   0.243331 0.673302 0.753708 0.239401
C31   C     C_R   0.777580 0.306465 0.206963 0.293937
C32   C     C_R   0.297084 0.213183 0.794664 0.239478
C33   C     C_R   0.734856 0.815754 0.216242 0.240066
C34   C     C_R   0.742661 0.826050 0.738213 0.295878
C35   C     C_R   0.228463 0.729000 0.750231 -0.019327
C36   C     C_R   0.282959 0.199391 0.295917 0.295909
C37   C     C_R   0.826687 0.256743 0.745814 0.239037
C38   C     C_R   0.194225 0.721775 0.293359 0.293822
C39   C     C_R   0.284891 0.199173 0.701426 0.245430
C40   C     C_R   0.681209 0.762294 0.278603 0.287460
C41   C     C_R   0.172949 0.744071 0.746038 0.296265
C42   C     C_R   0.805487 0.277650 0.293754 0.302311
C43   C     C_R   0.255968 0.826982 0.254674 0.296604
C44   C     C_R   0.721931 0.194977 0.706063 0.302204
C45   C     C_R   0.173933 0.257358 0.261993 0.295844
C46   C     C_R   0.771174 0.271735 0.250359 -0.033792
C47   C     C_R   0.800353 0.717099 0.704106 0.295904
C48   C     C_R   0.743326 0.173304 0.253752 0.239399
C49   C     C_R   0.277551 0.806495 0.706981 0.293939
C50   C     C_R   0.797134 0.713236 0.294638 0.239491
C51   C     C_R   0.234914 0.315813 0.716328 0.240065
C52   C     C_R   0.202105 0.366391 0.236434 0.211197
C53   C     C_R   0.822023 0.657572 0.795706 0.214777
C54   C     C_R   0.367370 0.797915 0.245076 0.210631
C55   C     C_R   0.652369 0.182594 0.792903 0.205141
C56   C     C_R   0.827206 0.660134 0.201951 0.179820
C57   C     C_R   0.270483 0.226080 0.747689 0.009658
C58   C     C_R   0.143517 0.304773 0.782324 0.182878
C59   C     C_R   0.632358 0.203777 0.243238 0.188000
C60   C     C_R   0.347180 0.817028 0.793402 0.212415
C61   C     C_R   0.796251 0.367576 0.757100 0.187798
C62   C     C_R   0.182357 0.653504 0.206274 0.212278
C63   C     C_R   0.633638 0.797941 0.763746 0.211310
C64   C     C_R   0.342093 0.177949 0.204231 0.214739
C65   C     C_R   0.202197 0.632598 0.754194 0.210023
C66   C     C_R   0.816942 0.348129 0.207336 0.205012
C67   C     C_R   0.337142 0.171883 0.795596 0.180643
C68   C     C_R   0.727821 0.768437 0.247000 -0.003904
C69   C     C_R   0.694147 0.856639 0.216056 0.202189
C70   C     C_R   0.702113 0.866398 0.736465 0.211189
C71   C     C_R   0.322046 0.157595 0.295715 0.214768
C72   C     C_R   0.867378 0.297885 0.745345 0.210558
C73   C     C_R   0.152559 0.682415 0.293020 0.205111
C74   C     C_R   0.327260 0.160201 0.701946 0.179869
C75   C     C_R   0.643564 0.804813 0.282381 0.182914
C76   C     C_R   0.132356 0.703782 0.743278 0.188004
C77   C     C_R   0.847150 0.317057 0.293420 0.212413
C78   C     C_R   0.296280 0.867556 0.257358 0.187831
C79   C     C_R   0.147366 0.352694 0.250102 -0.063358
C80   C     C_R   0.682540 0.153305 0.706396 0.212316
C81   C     C_R   0.133644 0.297949 0.263779 0.211308
C82   C     C_R   0.842118 0.677973 0.704239 0.214762
C83   C     C_R   0.702192 0.132600 0.254237 0.210015
C84   C     C_R   0.316915 0.848158 0.707354 0.205016
C85   C     C_R   0.837193 0.671936 0.295577 0.180592
C86   C     C_R   0.194205 0.356697 0.716138 0.202143
C87   C     C_3   0.325907 0.353648 0.267793 -0.053402
C88   C     C_3   0.777931 0.749159 0.869961 -0.052673
C89   C     C_3   0.348566 0.676932 0.286473 -0.103119
C90   C     C_R   0.852589 0.647258 0.749962 -0.058804
C91   C     C_3   0.734504 0.234868 0.871498 -0.058195
C92   C     C_3   0.712087 0.681855 0.148900 -0.103593
C93   C     C_3   0.147810 0.175293 0.783587 -0.062511
C94   C     C_3   0.649397 0.322011 0.288364 -0.057722
C95   C     C_3   0.264101 0.762163 0.871581 -0.058805
C96   C     C_3   0.677539 0.350871 0.712668 -0.057884
C97   C     C_3   0.235979 0.737743 0.128380 -0.058785
C98   C     C_3   0.646083 0.674282 0.732263 -0.053167
C99   C     C_3   0.250188 0.222383 0.130132 -0.052410
C100  C     C_3   0.322564 0.652078 0.711673 -0.104117
C101  C     C_R   0.352063 0.853014 0.251349 -0.020368
C102  C     C_3   0.763969 0.266816 0.128502 -0.058352
C103  C     C_3   0.312746 0.286862 0.846321 -0.106571
C104  C     C_3   0.822662 0.847102 0.210616 -0.107964
C105  C     C_3   0.825898 0.853640 0.767881 -0.053332
C106  C     C_3   0.277996 0.249224 0.369947 -0.052676
C107  C     C_3   0.848372 0.177104 0.787161 -0.103055
C108  C     C_3   0.235059 0.734301 0.371520 -0.058181
C109  C     C_3   0.212209 0.182012 0.648794 -0.103598
C110  C     C_3   0.647850 0.675329 0.283785 -0.062564
C111  C     C_3   0.149427 0.821985 0.788470 -0.057686
C112  C     C_R   0.771310 0.728596 0.750027 -0.041822
C113  C     C_R   0.647051 0.147423 0.749700 -0.062432
C114  C     C_3   0.764004 0.262245 0.371577 -0.058865
C115  C     C_3   0.177354 0.851012 0.213359 -0.057915
C116  C     C_3   0.736526 0.237180 0.628387 -0.058798
C117  C     C_3   0.146071 0.174273 0.232354 -0.053216
C118  C     C_3   0.750256 0.722450 0.630115 -0.052383
C119  C     C_3   0.822588 0.152048 0.211782 -0.104152
C120  C     C_3   0.263887 0.766898 0.628504 -0.058301
C121  C     C_3   0.812865 0.786987 0.346183 -0.106572
C122  C     C_3   0.322731 0.347159 0.710855 -0.107926
C123  C     C_R   0.852367 0.646525 0.249117 0.032183
C124  C     C_R   0.148563 0.351818 0.750054 -0.024525
C125  C     C_R   0.646986 0.147942 0.248610 -0.020204
C126  C     C_R   0.352581 0.852990 0.750324 -0.062119
C127  C     C_R   0.852054 0.353011 0.751355 -0.020438
C128  C     C_R   0.147054 0.647429 0.249698 -0.062573
C129  C     C_R   0.647367 0.852694 0.750101 -0.063390
C130  C     C_R   0.352588 0.147258 0.249962 -0.058832
C131  C     C_R   0.146986 0.647942 0.748609 -0.020224
C132  C     C_R   0.271017 0.771554 0.249762 -0.019322
C133  C     C_R   0.852580 0.352990 0.250324 -0.062137
C134  C     C_R   0.352368 0.146530 0.749122 0.032177
C135  C     C_R   0.648560 0.851813 0.250045 -0.024572
C136  C     C_R   0.098955 0.535329 0.454270 0.209405
C137  C     C_R   0.901864 0.460959 0.545185 0.213742
C138  C     C_R   0.526939 0.898523 0.456009 0.209653
C139  C     C_R   0.472424 0.102014 0.543295 0.206457
C140  C     C_R   0.898634 0.528547 0.456566 0.206262
C141  C     C_R   0.101455 0.471280 0.545051 0.208932
C142  C     C_R   0.539790 0.097728 0.454736 0.213778
C143  C     C_R   0.728286 0.228836 0.749642 -0.033714
C144  C     C_R   0.462431 0.901893 0.546186 0.209405
C145  C     C_R   0.598920 0.035430 0.954260 0.209429
C146  C     C_R   0.401896 0.960894 0.045188 0.213736
C147  C     C_R   0.026990 0.398533 0.956001 0.209662
C148  C     C_R   0.972384 0.601998 0.043296 0.206480
C149  C     C_R   0.398609 0.028477 0.956567 0.206258
C150  C     C_R   0.601481 0.971383 0.045040 0.208908
C151  C     C_R   0.039755 0.597744 0.954738 0.213806
C152  C     C_R   0.962483 0.401873 0.046181 0.209381
C153  C     C_R   0.149949 0.521424 0.476968 0.272900
C154  C     C_R   0.770476 0.726068 0.247676 0.009644
C155  C     C_R   0.851020 0.472936 0.521184 0.281645
C156  C     C_R   0.508302 0.849014 0.479144 0.274503
C157  C     C_R   0.490162 0.151175 0.518705 0.277397
C158  C     C_R   0.849189 0.511530 0.481039 0.277636
C159  C     C_R   0.151192 0.489466 0.522056 0.273352
C160  C     C_R   0.528646 0.148742 0.478595 0.282136
C161  C     C_R   0.475853 0.850685 0.523827 0.272958
C162  C     C_R   0.649927 0.021577 0.976959 0.272917
C163  C     C_R   0.351042 0.972827 0.021187 0.281632
C164  C     C_R   0.008375 0.349016 0.979135 0.274491
C165  C     C_R   0.227834 0.268453 0.747017 -0.003881
C166  C     C_R   0.990100 0.651168 0.018706 0.277430
C167  C     C_R   0.349178 0.011419 0.981041 0.277633
C168  C     C_R   0.651200 0.989620 0.022046 0.273317
C169  C     C_R   0.028587 0.648752 0.978597 0.282182
C170  C     C_R   0.975928 0.350671 0.023821 0.272935
C171  C     C_R   0.550796 0.989978 0.025002 -0.052921
C172  C     C_R   0.449518 0.009158 0.975655 -0.049156
C173  C     C_R   0.985581 0.450633 0.025411 -0.049458
C174  C     C_R   0.015187 0.549319 0.974852 -0.046869
C175  C     C_R   0.450671 0.984778 0.025155 -0.046607
C176  C     C_R   0.728461 0.229000 0.250230 -0.019325
C177  C     C_R   0.549848 0.012848 0.974834 -0.049210
C178  C     C_R   0.990897 0.550825 0.024337 -0.049124
C179  C     C_R   0.008499 0.449347 0.975376 -0.050874
C180  C     C_R   0.050788 0.489918 0.525006 -0.052906
C181  C     C_R   0.949527 0.509187 0.475656 -0.049157
C182  C     C_R   0.485549 0.950642 0.525413 -0.049445
C183  C     C_R   0.515201 0.049314 0.474853 -0.046868
C184  C     C_R   0.950659 0.484806 0.525156 -0.046601
C185  C     C_R   0.049861 0.512790 0.474838 -0.049210
C186  C     C_R   0.490914 0.050831 0.524338 -0.049123
C187  C     C_R   0.271176 0.771735 0.750359 -0.033803
C188  C     C_R   0.508466 0.949345 0.475378 -0.050878
C189  C     C_R   0.994059 0.500275 0.109750 0.588162
C190  C     C_R   0.005893 0.499785 0.890252 0.584976
C191  C     C_R   0.500168 0.993912 0.109820 0.584708
C192  C     C_R   0.499839 0.005771 0.890293 0.588244
C193  C     C_R   0.494058 0.000277 0.609750 0.588150
C194  C     C_R   0.505890 0.999783 0.390252 0.584990
C195  C     C_R   0.000165 0.493907 0.609821 0.584688
C196  C     C_R   0.999841 0.505770 0.390294 0.588225
C197  C     C_R   0.500767 0.984390 0.052748 0.083016
C198  C     C_R   0.771007 0.271550 0.749754 -0.019261
C199  C     C_R   0.499477 0.014419 0.947551 0.082780
C200  C     C_R   0.984945 0.500942 0.052557 0.082951
C201  C     C_R   0.014959 0.499186 0.947438 0.083650
C202  C     C_R   0.000755 0.484377 0.552750 0.083018
C203  C     C_R   0.999490 0.514409 0.447554 0.082764
C204  C     C_R   0.484939 0.000951 0.552559 0.082957
C205  C     C_R   0.514951 0.999181 0.447440 0.083651
C206  C     C_R   0.104954 0.604998 0.249870 0.480145
C207  C     C_R   0.894834 0.395026 0.750299 0.551643
C208  C     C_R   0.605613 0.894707 0.250238 0.570194
H1    H     H_    0.802252 0.568081 0.452393 0.334625
H2    H     H_    0.697339 0.971618 0.080820 0.339560
H3    H     H_    0.750233 0.741257 0.590897 0.173051
H4    H     H_    0.832250 0.192513 0.194103 0.109802
H5    H     H_    0.797256 0.126896 0.184991 0.118957
H6    H     H_    0.861995 0.130287 0.217308 0.168103
H7    H     H_    0.258502 0.723789 0.641535 0.085989
H8    H     H_    0.307781 0.775649 0.619540 0.130710
H9    H     H_    0.240653 0.771801 0.591921 0.169117
H10   H     H_    0.796961 0.819950 0.320585 0.106193
H11   H     H_    0.857454 0.780434 0.339125 0.123623
H12   H     H_    0.808249 0.801213 0.386683 0.171181
H13   H     H_    0.089931 0.689321 0.949449 0.321220
H14   H     H_    0.342394 0.318408 0.738548 0.108706
H15   H     H_    0.308642 0.384793 0.731138 0.120434
H16   H     H_    0.354527 0.359928 0.682417 0.167332
H17   H     H_    0.185731 0.440828 0.212166 0.332482
H18   H     H_    0.849131 0.593869 0.834381 0.331231
H19   H     H_    0.427068 0.746126 0.232274 0.368890
H20   H     H_    0.586180 0.156338 0.828839 0.348753
H21   H     H_    0.824174 0.648036 0.127077 0.376387
H22   H     H_    0.104216 0.330602 0.841129 0.347721
H23   H     H_    0.557040 0.190301 0.221114 0.327935
H24   H     H_    0.953345 0.306440 0.082969 0.328112
H25   H     H_    0.412744 0.843444 0.829606 0.328272
H26   H     H_    0.809947 0.442800 0.779239 0.327730
H27   H     H_    0.155758 0.588250 0.169833 0.328513
H28   H     H_    0.559325 0.814333 0.788144 0.332518
H29   H     H_    0.405578 0.150839 0.165437 0.331198
H30   H     H_    0.254211 0.572800 0.765936 0.367599
H31   H     H_    0.842874 0.414656 0.171674 0.348686
H32   H     H_    0.347270 0.175826 0.870717 0.375662
H33   H     H_    0.729848 0.897894 0.159666 0.363184
H34   H     H_    0.685751 0.940839 0.712204 0.332518
H35   H     H_    0.694515 0.043437 0.917873 0.328133
H36   H     H_    0.349154 0.093901 0.334401 0.331266
H37   H     H_    0.927110 0.246038 0.732948 0.368936
H38   H     H_    0.086408 0.656169 0.329013 0.348842
H39   H     H_    0.324304 0.148194 0.627055 0.376370
H40   H     H_    0.604345 0.830769 0.341183 0.347775
H41   H     H_    0.057032 0.690326 0.721164 0.327962
H42   H     H_    0.912703 0.343476 0.329636 0.328282
H43   H     H_    0.310095 0.942755 0.279544 0.327612
H44   H     H_    0.655992 0.087965 0.670051 0.328440
H45   H     H_    0.059335 0.314353 0.288182 0.332502
H46   H     H_    0.309596 0.912038 0.050304 0.321211
H47   H     H_    0.905612 0.650862 0.665456 0.331189
H48   H     H_    0.754196 0.072809 0.266049 0.367580
H49   H     H_    0.342843 0.914695 0.671705 0.348664
H50   H     H_    0.847403 0.675971 0.370683 0.375677
H51   H     H_    0.230003 0.398046 0.659864 0.363221
H52   H     H_    0.127365 0.599811 0.418129 0.348155
H53   H     H_    0.871555 0.425426 0.606462 0.344445
H54   H     H_    0.591737 0.866347 0.425145 0.327235
H55   H     H_    0.440297 0.135789 0.603866 0.360804
H56   H     H_    0.865382 0.561323 0.395880 0.361691
H57   H     H_    0.029628 0.302714 0.921497 0.346337
H58   H     H_    0.134905 0.409156 0.580653 0.347976
H59   H     H_    0.575712 0.127468 0.393430 0.344599
H60   H     H_    0.397744 0.874413 0.582500 0.348008
H61   H     H_    0.627268 0.099924 0.918091 0.347876
H62   H     H_    0.371615 0.925345 0.106468 0.344433
H63   H     H_    0.091777 0.366370 0.925094 0.327184
H64   H     H_    0.940236 0.635760 0.103865 0.360785
H65   H     H_    0.365331 0.061228 0.895883 0.361694
H66   H     H_    0.634990 0.909276 0.080618 0.348021
H67   H     H_    0.075669 0.627501 0.893435 0.344596
H68   H     H_    0.934308 0.698952 0.047162 0.334103
H69   H     H_    0.897801 0.374365 0.082483 0.348014
H70   H     H_    0.337266 0.316203 0.289834 0.084626
H71   H     H_    0.303860 0.383109 0.293208 0.133387
H72   H     H_    0.364577 0.373717 0.255149 0.172039
H73   H     H_    0.197314 0.471434 0.580833 0.339595
H74   H     H_    0.770281 0.790119 0.852566 0.083011
H75   H     H_    0.822735 0.742112 0.874849 0.139146
H76   H     H_    0.759261 0.749054 0.909193 0.172947
H77   H     H_    0.308337 0.666973 0.304437 0.109194
H78   H     H_    0.374059 0.701893 0.313291 0.121302
H79   H     H_    0.370300 0.637642 0.280321 0.168811
H80   H     H_    0.777469 0.240462 0.858183 0.086525
H81   H     H_    0.725919 0.190879 0.880215 0.130643
H82   H     H_    0.729973 0.257696 0.908278 0.168890
H83   H     H_    0.678473 0.698298 0.173289 0.108873
H84   H     H_    0.590007 0.189282 0.449443 0.321186
H85   H     H_    0.718696 0.637517 0.157325 0.121507
H86   H     H_    0.698761 0.685256 0.107977 0.171935
H87   H     H_    0.176237 0.155231 0.755972 0.085069
H88   H     H_    0.110541 0.190404 0.763204 0.135049
H89   H     H_    0.134260 0.143561 0.811810 0.167281
H90   H     H_    0.689084 0.330726 0.307572 0.082902
H91   H     H_    0.622716 0.296171 0.313803 0.136242
H92   H     H_    0.628301 0.361787 0.282766 0.167741
H93   H     H_    0.221464 0.755654 0.858025 0.081164
H94   H     H_    0.271401 0.806210 0.880507 0.135135
H95   H     H_    0.453255 0.806464 0.582977 0.328107
H96   H     H_    0.268765 0.738841 0.908300 0.167354
H97   H     H_    0.668617 0.311359 0.693316 0.082821
H98   H     H_    0.703125 0.377759 0.687192 0.135909
H99   H     H_    0.637814 0.371914 0.718643 0.167592
H100  H     H_    0.242666 0.780173 0.142315 0.081225
H101  H     H_    0.191789 0.730540 0.119875 0.135555
H102  H     H_    0.258746 0.733636 0.091350 0.166975
H103  H     H_    0.683446 0.662957 0.710190 0.084578
H104  H     H_    0.616566 0.696475 0.706886 0.133784
H105  H     H_    0.625989 0.635602 0.744871 0.172034
H106  H     H_    0.194556 0.543253 0.417884 0.328159
H107  H     H_    0.209310 0.230043 0.147595 0.083135
H108  H     H_    0.257144 0.177594 0.125222 0.139435
H109  H     H_    0.250142 0.241169 0.090905 0.173038
H110  H     H_    0.332219 0.692557 0.694019 0.109808
H111  H     H_    0.297209 0.626953 0.684878 0.118956
H112  H     H_    0.361972 0.630308 0.717158 0.168138
H113  H     H_    0.758576 0.223716 0.141555 0.086017
H114  H     H_    0.807869 0.275562 0.119559 0.130710
H115  H     H_    0.740760 0.271695 0.091903 0.169026
H116  H     H_    0.296870 0.319862 0.820751 0.106213
H117  H     H_    0.809523 0.412179 0.550299 0.321181
H118  H     H_    0.357343 0.280321 0.839301 0.123678
H119  H     H_    0.308083 0.301028 0.886835 0.171179
H120  H     H_    0.842362 0.818399 0.238328 0.108661
H121  H     H_    0.808598 0.884769 0.230859 0.120427
H122  H     H_    0.854419 0.859826 0.182123 0.167304
H123  H     H_    0.837244 0.816183 0.789910 0.084612
H124  H     H_    0.803837 0.883087 0.793300 0.133417
H125  H     H_    0.864576 0.873715 0.755267 0.172096
H126  H     H_    0.322802 0.242178 0.374816 0.139144
H127  H     H_    0.259347 0.249141 0.409187 0.172946
H128  H     H_    0.529566 0.802703 0.421515 0.346424
H129  H     H_    0.270338 0.290175 0.352536 0.083015
H130  H     H_    0.808067 0.167232 0.805007 0.109173
H131  H     H_    0.873752 0.202187 0.813970 0.121383
H132  H     H_    0.870123 0.137785 0.781262 0.168886
H133  H     H_    0.277969 0.739945 0.358057 0.086600
H134  H     H_    0.226505 0.690272 0.380090 0.130655
H135  H     H_    0.230693 0.756959 0.408418 0.168851
H136  H     H_    0.178567 0.198429 0.673163 0.108882
H137  H     H_    0.218800 0.137662 0.657175 0.121534
H138  H     H_    0.198937 0.185468 0.607858 0.171935
H139  H     H_    0.434393 0.198985 0.547164 0.334122
H140  H     H_    0.676237 0.655232 0.256157 0.085053
H141  H     H_    0.610551 0.690413 0.263434 0.134975
H142  H     H_    0.634342 0.643633 0.312062 0.167267
H143  H     H_    0.189129 0.830691 0.807655 0.082916
H144  H     H_    0.122769 0.796126 0.813913 0.136227
H145  H     H_    0.128324 0.861763 0.782910 0.167780
H146  H     H_    0.721380 0.255706 0.357996 0.081198
H147  H     H_    0.771278 0.306304 0.380469 0.135086
H148  H     H_    0.768649 0.238960 0.408319 0.167257
H149  H     H_    0.168324 0.811574 0.193915 0.082815
H150  H     H_    0.302194 0.067930 0.952395 0.334621
H151  H     H_    0.202828 0.877981 0.187857 0.135815
H152  H     H_    0.137664 0.872053 0.219575 0.167526
H153  H     H_    0.743157 0.279673 0.642171 0.081217
H154  H     H_    0.692376 0.229940 0.619733 0.135481
H155  H     H_    0.759458 0.232900 0.591472 0.167064
H156  H     H_    0.183421 0.162935 0.210267 0.084552
H157  H     H_    0.116539 0.196450 0.206982 0.133779
H158  H     H_    0.125986 0.135599 0.244992 0.171978
H159  H     H_    0.709369 0.730099 0.647562 0.083128
H160  H     H_    0.757216 0.677663 0.625186 0.139466
O1    O     O_3   1.000000 0.500000 0.250000 -0.472154
O2    O     O_R   1.000000 0.454520 0.865790 -0.504291
O3    O     O_3   0.280071 0.320749 0.683946 -0.518633
O4    O     O_3   0.218123 0.418366 0.220740 -0.632486
O5    O     O_3   0.828420 0.627843 0.841100 -0.632876
O6    O     O_3   0.422288 0.785908 0.237817 -0.651254
O7    O     O_3   0.617885 0.180515 0.835574 -0.638534
O8    O     O_3   0.843764 0.633223 0.157573 -0.663367
O9    O     O_3   0.101857 0.298586 0.817888 -0.626150
O10   O     O_3   0.579176 0.220988 0.234712 -0.633840
O11   O     O_3   0.381523 0.818401 0.835975 -0.635461
O12   O     O_3   0.779087 0.420671 0.765952 -0.634195
O13   O     O_R   0.545480 1.000000 0.134210 -0.501995
O14   O     O_3   0.180363 0.619797 0.163353 -0.635604
O15   O     O_3   0.581670 0.781947 0.779425 -0.631896
O16   O     O_3   0.371631 0.171675 0.158796 -0.632825
O17   O     O_3   0.214344 0.577617 0.760821 -0.654808
O18   O     O_3   0.818552 0.383076 0.164910 -0.639204
O19   O     O_3   0.363569 0.156633 0.840758 -0.665593
O20   O     O_3   0.698437 0.901894 0.183664 -0.654193
O21   O     O_3   0.718138 0.918380 0.720801 -0.632341
O22   O     O_3   0.328465 0.127888 0.341118 -0.632838
O23   O     O_3   0.922318 0.285841 0.738334 -0.651081
O24   O     O_R   0.454520 1.000000 0.865790 -0.515252
O25   O     O_3   0.118239 0.680169 0.335806 -0.638539
O26   O     O_3   0.343860 0.133342 0.657554 -0.663334
O27   O     O_3   0.601974 0.798687 0.318027 -0.626248
O28   O     O_3   0.079169 0.720998 0.734792 -0.633793
O29   O     O_3   0.881465 0.318457 0.336012 -0.635471
O30   O     O_3   0.279143 0.920620 0.266449 -0.634251
O31   O     O_3   0.680726 0.119415 0.663602 -0.635673
O32   O     O_3   0.081684 0.281962 0.279487 -0.631950
O33   O     O_3   0.871678 0.671720 0.658814 -0.632818
O34   O     O_3   0.714333 0.077624 0.260903 -0.654903
O35   O     O_R   0.500000 0.954520 0.634210 -0.500346
O36   O     O_3   0.318498 0.883131 0.664946 -0.639186
O37   O     O_3   0.863670 0.656741 0.340730 -0.665674
O38   O     O_3   0.198550 0.402006 0.683818 -0.654164
O39   O     O_3   0.095197 0.575103 0.416059 -0.661333
O40   O     O_3   0.905566 0.423676 0.585518 -0.663449
O41   O     O_3   0.568133 0.898708 0.419179 -0.677994
O42   O     O_3   0.434034 0.102679 0.582671 -0.637600
O43   O     O_3   0.898581 0.567030 0.417164 -0.638581
O44   O     O_3   0.100767 0.430860 0.582862 -0.648512
O45   O     O_3   0.576991 0.093458 0.414486 -0.665060
O46   O     O_R   0.500000 0.045480 0.365790 -0.514723
O47   O     O_3   0.422905 0.906230 0.584460 -0.662170
O48   O     O_3   0.595123 0.075186 0.916035 -0.661440
O49   O     O_3   0.405628 0.923621 0.085525 -0.663345
O50   O     O_3   0.068173 0.398738 0.919158 -0.677964
O51   O     O_3   0.933994 0.602645 0.082673 -0.637632
O52   O     O_3   0.398523 0.066964 0.917170 -0.638542
O53   O     O_3   0.600834 0.930950 0.082839 -0.648366
O54   O     O_3   0.076962 0.593491 0.914492 -0.665025
O55   O     O_3   0.922949 0.406191 0.084449 -0.662152
O56   O     O_R   0.954520 0.500000 0.634210 -0.515464
O57   O     O_R   0.045480 0.500000 0.365790 -0.499542
O58   O     O_R   0.500000 0.045480 0.634210 -0.514779
O59   O     O_R   0.500000 0.954520 0.365790 -0.504267
O60   O     O_R   0.045480 0.500000 0.634210 -0.502040
O61   O     O_3   0.000000 0.500000 0.750000 -0.482876
O62   O     O_R   0.954520 0.500000 0.365790 -0.515268
O63   O     O_R   0.063990 0.609460 0.219650 -0.539764
O64   O     O_R   0.936010 0.390540 0.780350 -0.492665
O65   O     O_R   0.609460 0.936010 0.219650 -0.447321
O66   O     O_R   0.390540 0.063990 0.780350 -0.505711
O67   O     O_R   0.936010 0.390540 0.219650 -0.519150
O68   O     O_R   0.063990 0.609460 0.780350 -0.540091
O69   O     O_R   0.390540 0.063990 0.219650 -0.535718
O70   O     O_R   0.609460 0.936010 0.780350 -0.535369
O71   O     O_R   0.936010 0.609460 0.780350 -0.534768
O72   O     O_3   0.500000 0.000000 0.250000 -0.482854
O73   O     O_R   0.063990 0.390540 0.219650 -0.534645
O74   O     O_R   0.390540 0.936010 0.780350 -0.539786
O75   O     O_R   0.609460 0.063990 0.219650 -0.495454
O76   O     O_R   0.063990 0.390540 0.780350 -0.511842
O77   O     O_R   0.936010 0.609460 0.219650 -0.505875
O78   O     O_R   0.609460 0.063990 0.780350 -0.519355
O79   O     O_R   0.390540 0.936010 0.219650 -0.539482
O80   O     O_R   0.563990 0.109460 0.719650 -0.539766
O81   O     O_R   0.436010 0.890540 0.280350 -0.492922
O82   O     O_R   0.109460 0.436010 0.719650 -0.447341
O83   O     O_3   0.500000 1.000000 0.750000 -0.472163
O84   O     O_R   0.890540 0.563990 0.280350 -0.505775
O85   O     O_R   0.436010 0.890540 0.719650 -0.519154
O86   O     O_R   0.563990 0.109460 0.280350 -0.540102
O87   O     O_R   0.890540 0.563990 0.719650 -0.535693
O88   O     O_R   0.109460 0.436010 0.280350 -0.535388
O89   O     O_R   0.436010 0.109460 0.280350 -0.534759
O90   O     O_R   0.563990 0.890540 0.719650 -0.534633
O91   O     O_R   0.890540 0.436010 0.280350 -0.539775
O92   O     O_R   0.109460 0.563990 0.719650 -0.495376
O93   O     O_R   0.563990 0.890540 0.280350 -0.511870
O94   O     O_R   0.000000 0.454520 0.134210 -0.500327
O95   O     O_R   0.436010 0.109460 0.719650 -0.505802
O96   O     O_R   0.109460 0.563990 0.280350 -0.519296
O97   O     O_R   0.890540 0.436010 0.719650 -0.539445
O98   O     O_3   0.798348 0.530179 0.465778 -0.628960
O99   O     O_3   0.201777 0.477606 0.543089 -0.632205
O100  O     O_3   0.552708 0.197224 0.462529 -0.636651
O101  O     O_3   0.459267 0.801399 0.545344 -0.639177
O102  O     O_3   0.199461 0.537435 0.455594 -0.639676
O103  O     O_3   0.802160 0.449611 0.537151 -0.636180
O104  O     O_3   0.520407 0.798273 0.458721 -0.622632
O105  O     O_R   0.000000 0.545480 0.865790 -0.514729
O106  O     O_3   0.472341 0.202291 0.533823 -0.630340
O107  O     O_3   0.298322 0.030026 0.965781 -0.628965
O108  O     O_3   0.701797 0.977806 0.043078 -0.632257
O109  O     O_3   0.052628 0.697246 0.962534 -0.636614
O110  O     O_3   0.959364 0.301378 0.045336 -0.639181
O111  O     O_3   0.699424 0.037634 0.955584 -0.639707
O112  O     O_3   0.302202 0.949463 0.037155 -0.636237
O113  O     O_3   0.020495 0.298281 0.958708 -0.622629
O114  O     O_3   0.972256 0.702276 0.033825 -0.630358
O115  O     O_3   0.295526 0.339830 0.223385 -0.463149
O116  O     O_R   0.454520 1.000000 0.134210 -0.515484
O117  O     O_3   0.752522 0.707895 0.840482 -0.464972
O118  O     O_3   0.341191 0.702579 0.237922 -0.518095
O119  O     O_3   0.697777 0.257076 0.835013 -0.465201
O120  O     O_3   0.760140 0.713329 0.155041 -0.519761
O121  O     O_3   0.175025 0.217134 0.810818 -0.470871
O122  O     O_3   0.658174 0.298369 0.239369 -0.465531
O123  O     O_3   0.301895 0.741572 0.835225 -0.461217
O124  O     O_3   0.701690 0.341674 0.761453 -0.465427
O125  O     O_3   0.257165 0.699450 0.164100 -0.461338
O126  O     O_3   0.660101 0.704453 0.776699 -0.463133
O127  O     O_R   0.545480 1.000000 0.865790 -0.499566
O128  O     O_3   0.291638 0.247630 0.159548 -0.465093
O129  O     O_3   0.297647 0.658726 0.760572 -0.518081
O130  O     O_3   0.742065 0.303114 0.165383 -0.465114
O131  O     O_3   0.281711 0.238513 0.840320 -0.522686
O132  O     O_3   0.779967 0.820646 0.183798 -0.518627
O133  O     O_3   0.795542 0.839846 0.723450 -0.463127
O134  O     O_3   0.252571 0.207944 0.340501 -0.464981
O135  O     O_3   0.841216 0.202522 0.738482 -0.518166
O136  O     O_3   0.198172 0.756687 0.335269 -0.465200
O137  O     O_3   0.260259 0.213470 0.655027 -0.519772
O138  O     O_R   0.000000 0.545480 0.134210 -0.514770
O139  O     O_3   0.675103 0.717207 0.310932 -0.470827
O140  O     O_3   0.158168 0.798376 0.739455 -0.465520
O141  O     O_3   0.801833 0.241634 0.335264 -0.461231
O142  O     O_3   0.201738 0.841626 0.262015 -0.465339
O143  O     O_3   0.757542 0.199053 0.664348 -0.461329
O144  O     O_3   0.160115 0.204468 0.276768 -0.463134
O145  O     O_3   0.791690 0.747680 0.659566 -0.465080
O146  O     O_3   0.797637 0.158733 0.260660 -0.518093
O147  O     O_3   0.242008 0.803172 0.665420 -0.465089
O148  O     O_3   0.781820 0.738630 0.340279 -0.522666
Zn1   Zn    Zn3+2 0.064970 0.500000 0.293390 0.972838
Zn2   Zn    Zn3+2 0.435030 0.000000 0.206610 0.966861
Zn3   Zn    Zn3+2 1.000000 0.435030 0.793390 1.019348
Zn4   Zn    Zn3+2 0.000000 0.564970 0.206610 0.992273
Zn5   Zn    Zn3+2 0.435030 0.000000 0.793390 0.991899
Zn6   Zn    Zn3+2 0.564970 0.000000 0.206610 1.036574
Zn7   Zn    Zn3+2 1.000000 0.564970 0.793390 0.964803
Zn8   Zn    Zn3+2 1.000000 0.435030 0.206610 0.973013
Zn9   Zn    Zn3+2 0.935030 0.500000 0.706610 0.966857
Zn10  Zn    Zn3+2 0.500000 0.935030 0.293390 1.019324
Zn11  Zn    Zn3+2 0.500000 0.064970 0.706610 0.992278
Zn12  Zn    Zn3+2 0.935030 0.500000 0.293390 0.991886
Zn13  Zn    Zn3+2 0.064970 0.500000 0.706610 1.036566
Zn14  Zn    Zn3+2 0.500000 0.064970 0.293390 0.964805
Zn15  Zn    Zn3+2 0.500000 0.935030 0.706610 0.973011
Zn16  Zn    Zn3+2 0.564970 0.000000 0.793390 0.972833

loop_
_geom_bond_atom_site_label_1
_geom_bond_atom_site_label_2
_ccdc_geom_bond_type
C106  H126  S    
C89   H77   S    
C122  O3    S    
O13   Zn6   S    
C149  C172  A    
C17   O115  S    
C121  H10   S    
H63   O50   S    
O1    Zn12  S    
C38   O136  S    
C34   O133  S    
C208  O93   A    
O66   Zn5   S    
C137  C184  A    
H19   O6    S    
C155  O103  S    
C105  O133  S    
C119  H4    S    
H53   O40   S    
C77   C133  A    
C43   O142  S    
C99   H108  S    
C13   C112  S    
C147  C164  A    
H28   O15   S    
O85   Zn15  S    
C76   C131  A    
C109  H137  S    
C173  C179  A    
C194  O59   A    
C27   O125  S    
C172  C199  A    
C39   C74   A    
H26   O12   S    
H56   O43   S    
C127  C207  S    
C58   O9    S    
C10   O74   A    
O95   Zn11  S    
C120  H9    S    
O105  Zn7   S    
C18   O117  S    
C149  C167  A    
C44   O143  S    
C25   C60   A    
C120  O147  S    
C117  H156  S    
C172  C175  A    
C33   C69   A    
C109  H136  S    
C29   C64   A    
C69   C135  A    
C122  H16   S    
C155  C158  A    
C49   O147  S    
C93   H89   S    
C128  C206  S    
C32   C57   A    
C17   C52   A    
H66   O53   S    
O46   Zn14  S    
O72   Zn14  S    
C19   O118  S    
C188  C205  A    
C45   O144  S    
C56   C123  A    
C119  O146  S    
C23   C176  A    
C72   C127  A    
C92   H85   S    
C70   C129  A    
C100  O129  S    
C93   H88   S    
C43   C78   A    
C158  O98   S    
O2    Zn3   S    
H22   O9    S    
C36   O134  S    
C150  C168  A    
C71   O22   S    
O57   Zn1   S    
C61   C127  A    
C118  O145  S    
C74   O26   S    
C48   O146  S    
C11   O75   A    
H34   O21   S    
C89   H79   S    
C157  C160  A    
C9    O73   A    
C121  H12   S    
C53   O5    S    
C151  O54   S    
C138  O41   S    
O70   Zn16  S    
H52   O39   S    
O93   Zn10  S    
C91   H81   S    
H51   O38   S    
C26   C61   A    
C81   O32   S    
C45   C81   A    
C83   O34   S    
C8    O87   A    
C88   H74   S    
C195  O56   A    
C22   C58   A    
C70   O21   S    
C103  O131  S    
C137  O40   S    
C89   O118  S    
C50   C85   A    
C73   C128  A    
C29   O128  S    
C88   O117  S    
C32   O131  S    
O65   Zn6   S    
C41   C76   A    
C136  C153  A    
C95   O123  S    
C74   C134  A    
H41   O28   S    
H35   O111  S    
C153  O102  S    
C117  H158  S    
C85   C123  A    
C87   H72   S    
C76   O28   S    
C79   C81   A    
O83   Zn5   S    
H46   O112  S    
H36   O22   S    
C110  H142  S    
C28   C63   A    
C147  C179  A    
C139  C157  A    
C122  H14   S    
O24   Zn5   S    
C94   H92   S    
C87   H70   S    
C71   C130  A    
H44   O31   S    
C22   O121  S    
O72   Zn6   S    
C54   C101  A    
C115  H151  S    
H117  O103  S    
C166  O114  S    
C104  H121  S    
O60   Zn13  S    
H128  O104  S    
C144  O47   S    
C23   C59   A    
C24   C36   A    
C102  H114  S    
C49   C84   A    
C87   O115  S    
C96   H97   S    
C142  O45   S    
C114  H148  S    
C111  H145  S    
C136  O39   S    
O71   Zn7   S    
C137  C155  A    
C9    C79   S    
C99   H109  S    
C114  O141  S    
C196  O62   A    
C161  O101  S    
C25   C187  A    
C140  C158  A    
C148  O51   S    
C141  C159  A    
C67   O19   S    
C31   C46   A    
C102  O130  S    
C65   O17   S    
C15   C113  S    
C6    O89   A    
C98   O126  S    
H67   O54   S    
C110  O139  S    
C52   C79   A    
H61   O48   S    
C18   C53   A    
H50   O37   S    
C63   C129  A    
C97   H102  S    
H40   O27   S    
O81   Zn10  S    
C181  C203  A    
C115  O142  S    
C12   O82   A    
C47   O145  S    
C69   O20   S    
C173  C200  A    
C88   H76   S    
C41   O140  S    
H64   O51   S    
C85   O37   S    
C105  H123  S    
C7    C129  S    
C103  H116  S    
C121  O148  S    
O79   Zn2   S    
C67   C134  A    
C25   O123  S    
C183  C186  A    
H58   O44   S    
C33   O132  S    
C72   O23   S    
O96   Zn1   S    
C118  H3    S    
C116  O143  S    
C138  C188  A    
C15   O80   A    
C27   C62   A    
O63   Zn4   S    
C110  H140  S    
C2    C38   A    
O72   Zn2   S    
H48   O34   S    
C208  O65   A    
C95   H93   S    
C141  O44   S    
C182  C188  A    
C37   C198  A    
C94   H90   S    
C109  O137  S    
H150  O107  S    
C61   O12   S    
C162  C168  A    
C152  C173  A    
C19   C54   A    
C107  O135  S    
C64   C130  A    
C156  C161  A    
C7    O90   A    
C111  H144  S    
C32   C67   A    
H32   O19   S    
C86   C124  A    
C183  C205  A    
C117  O144  S    
C51   C165  A    
C92   O120  S    
O64   Zn3   S    
C12   O76   A    
O61   Zn7   S    
H2    O108  S    
H43   O30   S    
C19   C132  A    
C194  C205  S    
C174  C178  A    
C148  C178  A    
C16   O81   A    
C106  H129  S    
C108  H134  S    
C169  O109  S    
C64   O16   S    
O92   Zn13  S    
C36   C71   A    
C114  H146  S    
C1    C17   A    
C151  C169  A    
C9    O88   A    
C3    C134  S    
H62   O49   S    
C99   H107  S    
H20   O7    S    
H17   O4    S    
O83   Zn15  S    
C56   O8    S    
C1    C45   A    
C44   C143  A    
C46   C176  S    
H60   O47   S    
C35   C41   A    
H54   O41   S    
C115  H149  S    
H45   O32   S    
O90   Zn15  S    
C80   C113  A    
C1    C24   S    
C177  C199  A    
C98   H103  S    
C145  O48   S    
C171  C177  A    
C192  O127  A    
C103  H119  S    
C139  O42   S    
C104  O132  S    
C150  O53   S    
O35   Zn15  S    
C33   C68   A    
C189  O138  A    
C48   C176  A    
C116  H153  S    
C105  H125  S    
C144  C161  A    
C60   O11   S    
C148  C166  A    
C108  H133  S    
C39   O137  S    
C189  O94   A    
C80   O31   S    
C96   O124  S    
C5    O68   A    
C106  O134  S    
C120  H7    S    
C182  C204  A    
H24   O110  S    
C11   C125  S    
C15   O78   A    
C18   C112  A    
C180  C202  A    
C54   O6    S    
C96   H99   S    
C75   C135  A    
C57   C165  S    
C138  C156  A    
H38   O25   S    
C190  O105  A    
C92   H86   S    
C106  H127  S    
H68   O114  S    
C93   H87   S    
C42   C46   A    
C26   O124  S    
H73   O99   S    
C14   O84   A    
C24   C29   A    
C175  C197  A    
C107  H132  S    
C7    O70   A    
H23   O10   S    
C164  C170  A    
O69   Zn2   S    
C179  C201  A    
C147  O50   S    
O94   Zn8   S    
C118  H159  S    
C2    C132  S    
C13   C28   A    
C2    C27   A    
C141  C180  A    
C139  C186  A    
C196  O57   A    
C34   C70   A    
H31   O18   S    
C6    C130  S    
O87   Zn9   S    
C3    O95   A    
O97   Zn9   S    
C142  C183  A    
C89   H78   S    
O78   Zn16  S    
O127  Zn16  S    
C84   C126  A    
C121  H11   S    
C20   C143  A    
C91   H80   S    
C50   O148  S    
C83   C125  A    
C51   C86   A    
C157  O106  S    
O116  Zn2   S    
C77   O29   S    
H37   O23   S    
C44   C80   A    
C149  O52   S    
O62   Zn12  S    
C109  H138  S    
C140  O43   S    
O75   Zn6   S    
C207  O64   A    
C63   O15   S    
C66   O18   S    
O1    Zn4   S    
C156  O104  S    
H65   O52   S    
C150  C171  A    
C49   C187  A    
C194  O46   A    
C146  C175  A    
C5    O92   A    
C117  H157  S    
C55   O7    S    
C196  C203  S    
H84   O100  S    
O61   Zn13  S    
H106  O102  S    
O74   Zn5   S    
C122  H15   S    
C86   O38   S    
C108  H135  S    
C59   C125  A    
O68   Zn7   S    
C159  O99   S    
H59   O45   S    
C181  C184  A    
C143  C198  S    
C178  C200  A    
O82   Zn13  S    
H42   O29   S    
C14   O77   A    
C30   O129  S    
C104  H122  S    
C21   C56   A    
C48   C83   A    
C164  O113  S    
O86   Zn14  S    
H33   O20   S    
H29   O16   S    
C82   C90   A    
C40   C75   A    
C102  H115  S    
C185  C203  A    
C59   O10   S    
O1    Zn8   S    
C13   C34   A    
C107  H130  S    
O56   Zn9   S    
H55   O42   S    
O84   Zn12  S    
C98   H105  S    
C174  C201  A    
C146  O49   S    
O61   Zn3   S    
C5    C131  S    
O77   Zn4   S    
H30   O17   S    
C35   C187  S    
C40   C68   A    
C37   C72   A    
C53   C90   A    
C62   O14   S    
C40   O139  S    
C111  O140  S    
C100  H110  S    
C31   C66   A    
C62   C128  A    
C91   H82   S    
C97   H101  S    
C16   O79   A    
C136  C185  A    
C193  O35   A    
O83   Zn11  S    
C82   O33   S    
H1    O98   S    
C195  C202  S    
C168  O108  S    
O76   Zn3   S    
C193  C204  S    
C30   C35   A    
C99   O128  S    
C8    O71   A    
C43   C132  A    
C68   C154  S    
C166  C169  A    
C192  C199  S    
C145  C162  A    
C4    O67   A    
C47   C112  A    
C39   C57   A    
C10   O85   A    
C152  O55   S    
C152  C170  A    
C47   C82   A    
C96   H98   S    
C22   C165  A    
C78   C101  A    
C103  H118  S    
C21   C154  A    
C94   H91   S    
C97   O125  S    
C108  O136  S    
C37   O135  S    
O89   Zn14  S    
O67   Zn8   S    
C52   O4    S    
C11   O86   A    
C75   O27   S    
C110  H141  S    
C115  H152  S    
C73   O25   S    
C20   C55   A    
C26   C198  A    
C65   C131  A    
C190  O2    A    
C206  O63   A    
C144  C182  A    
C184  C202  A    
C100  H111  S    
C102  H113  S    
C162  O111  S    
H25   O11   S    
C180  C185  A    
C207  O97   A    
C87   H71   S    
C55   C113  A    
C114  H147  S    
H39   O26   S    
C153  C159  A    
C163  C167  A    
C191  O116  A    
C195  O60   A    
C66   C133  A    
C104  H120  S    
C16   C101  S    
C31   O130  S    
C12   C124  S    
C193  O58   A    
C95   H96   S    
C186  C204  A    
O1    Zn1   S    
C163  O112  S    
O138  Zn4   S    
C100  H112  S    
C160  O100  S    
C119  H6    S    
C189  C200  S    
O80   Zn11  S    
C3    O66   A    
C6    O69   A    
C119  H5    S    
C78   O30   S    
C98   H104  S    
C30   C65   A    
C206  O96   A    
C8    C90   S    
C145  C177  A    
C88   H75   S    
O83   Zn16  S    
C116  H155  S    
H47   O33   S    
C116  H154  S    
H13   O109  S    
C105  H124  S    
C14   C123  S    
C28   O126  S    
C170  O110  S    
C94   O122  S    
C191  C197  S    
C142  C160  A    
H49   O36   S    
H57   O113  S    
C192  O24   A    
C190  C201  S    
C120  H8    S    
C146  C163  A    
C58   C124  A    
C140  C181  A    
H69   O55   S    
O72   Zn10  S    
H139  O106  S    
C60   C126  A    
C171  C197  A    
C20   O119  S    
C10   C126  S    
O61   Zn9   S    
H21   O8    S    
O88   Zn1   S    
C191  O13   A    
C50   C154  A    
H95   O101  S    
C92   H83   S    
C167  O107  S    
C97   H100  S    
C95   H94   S    
C84   O36   S    
C23   O122  S    
C107  H131  S    
O91   Zn12  S    
O59   Zn10  S    
O73   Zn8   S    
H18   O5    S    
C118  H160  S    
O58   Zn11  S    
C151  C174  A    
C42   C77   A    
C4    C133  S    
C4    O91   A    
C111  H143  S    
C42   O141  S    
C93   O121  S    
C21   O120  S    
C51   O3    S    
H27   O14   S    
C91   O119  S    
C135  C208  S    
C38   C73   A    
