data_mof_unit_55043.cif
_audit_creation_date              2012-12-10T17:02:53-0500
_audit_creation_method            fapswitch 2.2
_symmetry_space_group_name_H-M    P1
_symmetry_Int_Tables_number       1
_space_group_crystal_system       triclinic
_cell_length_a                    18.870146
_cell_length_b                    19.054192
_cell_length_c                    18.352671
_cell_angle_alpha                 108.565426
_cell_angle_beta                  108.666345
_cell_angle_gamma                 109.910803
_cell_volume                      5157.23913394

loop_
_atom_site_label
_atom_site_type_symbol
_atom_type_description
_atom_site_fract_x
_atom_site_fract_y
_atom_site_fract_z
_atom_type_partial_charge
C1    C     C_R   0.385752 0.383139 0.506453 0.767621
C2    C     C_3   0.811914 0.502811 0.809543 -0.054210
C3    C     C_3   0.848725 0.580069 0.792076 0.143865
C4    C     C_3   0.747719 0.512957 0.842242 -0.613761
C5    C     C_R   0.393830 0.383132 0.678853 0.137575
C6    C     C_R   0.392789 0.375762 0.752926 0.307053
C7    C     C_R   0.317743 0.317891 0.743507 -0.199394
C8    C     C_R   0.247382 0.262888 0.661702 -0.219027
C9    C     C_R   0.251097 0.257411 0.584179 0.042000
C10   C     C_R   0.322598 0.321909 0.590987 -0.029401
C11   C     C_R   0.183934 0.188235 0.500782 -0.135042
C12   C     C_R   0.617248 0.498547 0.619869 0.787851
C13   C     C_R   0.178825 0.189046 0.422087 -0.087087
C14   C     C_R   0.240099 0.261839 0.429159 -0.008394
C15   C     C_R   0.316630 0.321453 0.510180 -0.100317
C16   C     C_R   0.113249 0.121193 0.335854 0.272131
C17   C     C_R   0.096886 0.135816 0.263311 0.261313
C18   C     C_R   0.150280 0.213865 0.273406 0.362744
C19   C     C_R   0.223216 0.274415 0.354627 -0.327982
C20   C     C_R   0.219639 0.471386 0.381139 -0.274638
C21   C     C_R   0.147176 0.468220 0.388705 0.244159
C22   C     C_R   0.094597 0.490245 0.337570 0.300305
C23   C     C_R   0.611175 0.617428 0.490854 0.851785
C24   C     C_R   0.110311 0.505117 0.272878 -0.239611
C25   C     C_R   0.175703 0.495817 0.256195 -0.009481
C26   C     C_R   0.236422 0.488000 0.316824 0.039049
C27   C     C_R   0.182125 0.495035 0.181091 -0.133246
C28   C     C_R   0.253734 0.494614 0.170968 0.003956
C29   C     C_R   0.323304 0.506647 0.242030 -0.094259
C30   C     C_R   0.312247 0.497381 0.311866 -0.114814
C31   C     C_R   0.258442 0.483063 0.092366 0.337991
C32   C     C_R   0.339401 0.508549 0.094550 0.104454
C33   C     C_R   0.412367 0.534625 0.171660 0.397127
C34   C     C_R   0.380279 0.499019 0.380242 0.782974
C35   C     C_R   0.402824 0.529059 0.242184 -0.235379
C36   C     C_R   0.589881 0.766498 0.474286 0.256886
C37   C     C_R   0.586677 0.836226 0.466518 -0.242102
C38   C     C_R   0.659925 0.906411 0.489655 -0.288020
C39   C     C_R   0.738167 0.906987 0.515756 0.450878
C40   C     C_R   0.740359 0.830252 0.505352 -0.014027
C41   C     C_R   0.665888 0.758955 0.487827 -0.022165
C42   C     C_R   0.815951 0.824403 0.514853 -0.112613
C43   C     C_R   0.817862 0.749437 0.509937 -0.083259
C44   C     C_R   0.739189 0.674654 0.469392 -0.046529
C45   C     C_3   0.683976 0.410686 0.654124 0.040118
C46   C     C_R   0.669086 0.682148 0.477350 -0.122168
C47   C     C_R   0.894449 0.744115 0.536826 0.352296
C48   C     C_R   0.890980 0.665882 0.494237 0.180118
C49   C     C_R   0.811005 0.593893 0.433496 -0.297488
C50   C     C_R   0.734981 0.596563 0.421606 0.235826
C51   C     C_R   0.997240 0.382746 0.876150 0.864842
C52   C     C_R   0.878922 0.501355 0.878323 0.814470
C53   C     C_R   0.000500 0.618047 0.119785 0.826527
C54   C     C_R   0.116058 0.498485 0.115710 0.886973
C55   C     C_R   0.995400 0.877334 0.381408 0.834300
C56   C     C_3   0.760359 0.415180 0.724695 0.201402
C57   C     C_R   0.117974 0.118018 0.498553 0.772003
C58   C     C_R   0.997084 0.115214 0.619000 0.926880
C59   C     C_R   0.881917 0.884607 0.504901 0.935183
C60   C     C_R   0.040484 0.403839 0.731367 0.260794
C61   C     C_R   0.069753 0.411608 0.671404 -0.179050
C62   C     C_R   0.083349 0.350202 0.624413 -0.189295
C63   C     C_R   0.060051 0.275971 0.629462 -0.156777
C64   C     C_R   0.028387 0.263391 0.687339 0.007578
C65   C     C_R   0.024391 0.330449 0.745274 0.023548
C66   C     C_R   0.002690 0.184866 0.688242 -0.153734
C67   C     C_3   0.774600 0.574533 0.717254 0.046331
C68   C     C_R   0.993208 0.177498 0.759763 -0.043861
C69   C     C_R   0.004610 0.249573 0.826689 -0.000209
C70   C     C_R   0.007056 0.320079 0.813584 -0.164272
C71   C     C_R   0.975636 0.101954 0.768690 0.416789
C72   C     C_R   0.982518 0.104294 0.848660 0.365328
C73   C     C_R   0.005744 0.180132 0.918145 -0.295891
C74   C     C_R   0.016339 0.251015 0.907434 -0.165013
C75   C     C_R   0.164690 0.763588 0.286566 0.116476
C76   C     C_R   0.237809 0.834577 0.364795 0.246898
C77   C     C_R   0.231185 0.904241 0.409653 0.239560
C78   C     C_3   0.674794 0.513348 0.773078 0.198282
C79   C     C_R   0.151421 0.899200 0.382570 -0.283271
C80   C     C_R   0.074520 0.821635 0.318815 -0.003056
C81   C     C_R   0.079939 0.755089 0.263000 -0.003839
C82   C     C_R   0.993720 0.810447 0.312388 -0.113925
C83   C     C_R   0.914812 0.735137 0.243483 0.028026
C84   C     C_R   0.919692 0.676527 0.177308 -0.010634
C85   C     C_R   0.000828 0.684378 0.188134 -0.121565
C86   C     C_R   0.830485 0.713847 0.235762 0.187468
C87   C     C_R   0.758397 0.636133 0.167682 -0.205815
C88   C     C_R   0.762757 0.585036 0.098311 0.289523
C89   C     C_3   0.685974 0.499081 0.688874 -0.099494
C90   C     C_R   0.841998 0.609466 0.100522 -0.232881
Cu1   Cu    Cu3+1 0.500360 0.438220 0.438540 0.936478
Cu2   Cu    Cu3+1 0.499640 0.561780 0.561460 0.912372
Cu3   Cu    Cu3+1 0.935530 0.438290 0.997340 0.930287
Cu4   Cu    Cu3+1 0.059130 0.561800 0.997250 0.924910
Cu5   Cu    Cu3+1 0.937870 0.000030 0.437890 0.979299
Cu6   Cu    Cu3+1 0.062130 0.000000 0.562130 0.994241
H1    H     H_    0.689187 0.395791 0.593474 0.211043
H2    H     H_    0.782176 0.571807 0.906262 0.181053
H3    H     H_    0.772321 0.633566 0.749029 0.110459
H4    H     H_    0.871222 0.637698 0.853647 0.102468
H5    H     H_    0.313543 0.313829 0.799600 0.154186
H6    H     H_    0.190540 0.223153 0.661196 0.167518
H7    H     H_    0.265082 0.332638 0.359175 0.160421
H8    H     H_    0.260793 0.458055 0.424426 0.156264
H9    H     H_    0.071846 0.525564 0.236929 0.157513
H10   H     H_    0.459787 0.546141 0.298739 0.188851
H11   H     H_    0.807612 0.535436 0.394280 0.164870
H12   H     H_    0.733689 0.365042 0.742578 0.145279
H13   H     H_    0.527463 0.838823 0.448732 0.157798
H14   H     H_    0.656279 0.962347 0.491190 0.141368
H15   H     H_    0.014780 0.184308 0.981035 0.183044
H16   H     H_    0.081969 0.466164 0.660569 0.143645
H17   H     H_    0.109936 0.358990 0.581833 0.153175
H18   H     H_    0.068983 0.229130 0.587831 0.131418
H19   H     H_    0.036556 0.307920 0.964899 0.210813
H20   H     H_    0.151184 0.956367 0.417504 0.157811
H21   H     H_    0.696603 0.619306 0.165408 0.151198
H22   H     H_    0.841455 0.573290 0.041580 0.150768
H23   H     H_    0.614229 0.459226 0.755588 0.164800
H24   H     H_    0.718430 0.458965 0.853856 0.184813
O1    O     O_R   0.410140 0.357660 0.448100 -0.577823
O2    O     O_R   0.049980 0.462000 0.907580 -0.528639
O3    O     O_R   0.854480 0.447890 0.906670 -0.615056
O4    O     O_R   0.958860 0.552200 0.906600 -0.561561
O5    O     O_R   0.944670 0.538090 0.087010 -0.607850
O6    O     O_R   0.049050 0.642400 0.086940 -0.568299
O7    O     O_R   0.035800 0.447890 0.088000 -0.600802
O8    O     O_R   0.140170 0.552200 0.087920 -0.560617
O9    O     O_R   0.948030 0.909890 0.357850 -0.535394
O10   O     O_R   0.052970 0.909860 0.462770 -0.604275
O11   O     O_R   0.037700 0.090200 0.447550 -0.550801
O12   O     O_R   0.409530 0.462000 0.551910 -0.592441
O13   O     O_R   0.142640 0.090170 0.552470 -0.608546
O14   O     O_R   0.947030 0.090160 0.537260 -0.586030
O15   O     O_R   0.051970 0.090130 0.642170 -0.569116
O16   O     O_R   0.857360 0.909860 0.447560 -0.581266
O17   O     O_R   0.962300 0.909830 0.552480 -0.510637
O18   O     O_R   0.590960 0.447830 0.538760 -0.605587
O19   O     O_R   0.590350 0.552170 0.642570 -0.556956
O20   O     O_R   0.590470 0.538000 0.448090 -0.566997
O21   O     O_R   0.589860 0.642340 0.551900 -0.559073
O22   O     O_R   0.409650 0.447830 0.357430 -0.580565
O23   O     O_R   0.409040 0.552170 0.461240 -0.588548
O24   O     O_R   0.945600 0.357690 0.907660 -0.597075
O25   O     O_3   0.131172 0.228382 0.202229 -0.714145
H25   H     H_    0.174554 0.286556 0.220219 0.327977
N1    N     N_2   0.465954 0.455162 0.697326 -0.436165
H26   H     H_    0.496230 0.445512 0.661094 0.242266
C91   C     C_3   0.467709 0.535909 0.733732 -0.489268
H27   H     H_    0.522137 0.586714 0.737755 0.256453
H28   H     H_    0.476183 0.554696 0.800887 0.203418
H29   H     H_    0.406909 0.531498 0.692471 0.197031
N2    N     N_2   0.468479 0.425965 0.836944 -0.432050
H30   H     H_    0.525903 0.457847 0.838627 0.291143
C92   C     C_3   0.460646 0.472990 0.910570 -0.683944
H31   H     H_    0.525460 0.519473 0.967946 0.249448
H32   H     H_    0.424882 0.429190 0.929679 0.232291
H33   H     H_    0.427579 0.508377 0.894008 0.224884
O26   O     O_3   0.068913 0.038516 0.318333 -0.716848
H34   H     H_    0.109989 0.028372 0.356770 0.302134
N3    N     N_2   0.026685 0.071020 0.179032 -0.382144
H35   H     H_    0.974800 0.030702 0.180357 0.278057
C93   C     C_3   0.050522 0.025521 0.120408 -0.611614
H36   H     H_    0.077769 0.990295 0.146987 0.220340
H37   H     H_    0.098420 0.070120 0.111204 0.254303
H38   H     H_    0.992733 0.979243 0.055370 0.214261
N4    N     N_2   0.602693 0.340692 0.631409 -0.466440
H39   H     H_    0.549706 0.348474 0.610147 0.240919
C94   C     C_3   0.583596 0.255862 0.575881 -0.683012
H40   H     H_    0.525702 0.208131 0.570796 0.229798
H41   H     H_    0.637767 0.244710 0.603506 0.240208
H42   H     H_    0.570532 0.246780 0.509116 0.226427
O27   O     O_3   0.493960 0.564190 0.180481 -0.765297
H43   H     H_    0.492751 0.565062 0.126504 0.347281
N5    N     N_2   0.126335 0.441192 0.446540 -0.459402
H44   H     H_    0.178601 0.453683 0.500038 0.249612
C95   C     C_3   0.057583 0.354124 0.402406 -0.687786
H45   H     H_    0.034234 0.341967 0.447653 0.224074
H46   H     H_    0.081000 0.309429 0.380382 0.235682
H47   H     H_    0.002095 0.341775 0.344880 0.242682
N6    N     N_2   0.029020 0.501553 0.353931 -0.427023
H48   H     H_    0.029190 0.501403 0.410097 0.279710
C96   C     C_3   0.943512 0.455063 0.279539 -0.675598
H49   H     H_    0.898241 0.466250 0.301810 0.225815
H50   H     H_    0.921191 0.385769 0.248733 0.218747
H51   H     H_    0.942138 0.477209 0.230317 0.242094
O28   O     O_3   0.183175 0.443798 0.014741 -0.750910
H52   H     H_    0.193426 0.428368 0.963922 0.329981
N7    N     N_2   0.348794 0.511242 0.021368 -0.459196
H53   H     H_    0.314152 0.453506 0.964905 0.244466
C97   C     C_3   0.344221 0.580639 0.007745 -0.710650
H54   H     H_    0.279504 0.573967 0.991576 0.240182
H55   H     H_    0.356716 0.580515 0.952608 0.219120
H56   H     H_    0.393602 0.642422 0.067590 0.238374
N8    N     N_2   0.515584 0.706405 0.468248 -0.410225
H57   H     H_    0.462641 0.677102 0.407539 0.233924
C98   C     C_3   0.497408 0.742243 0.538426 -0.581092
H58   H     H_    0.438689 0.694069 0.531125 0.231254
H59   H     H_    0.485291 0.795048 0.537254 0.184357
H60   H     H_    0.552061 0.766206 0.603210 0.232858
O29   O     O_3   0.813020 0.982899 0.554789 -0.707184
H61   H     H_    0.799828 0.029805 0.559470 0.315522
O30   O     O_3   0.967915 0.811979 0.611645 -0.702464
H62   H     H_    0.007312 0.792124 0.635847 0.320024
N9    N     N_2   0.967083 0.661418 0.503548 -0.416388
H63   H     H_    0.020473 0.717932 0.525347 0.260912
C99   C     C_3   0.985156 0.610932 0.543480 -0.720974
H64   H     H_    0.046198 0.613026 0.548732 0.229297
H65   H     H_    0.933237 0.543488 0.502535 0.233013
H66   H     H_    0.991987 0.636570 0.610355 0.226050
N10   N     N_2   0.656715 0.526182 0.348420 -0.383464
H67   H     H_    0.650665 0.468170 0.341375 0.244426
C100  C     C_3   0.639841 0.529837 0.267561 -0.656945
H68   H     H_    0.574708 0.477121 0.215148 0.251981
H69   H     H_    0.687763 0.522957 0.247406 0.202679
H70   H     H_    0.643226 0.591453 0.275920 0.267392
N11   N     N_2   0.021834 0.467482 0.770262 -0.409158
H71   H     H_    0.968432 0.462009 0.725119 0.263290
C101  C     C_3   0.093599 0.553993 0.819902 -0.615243
H72   H     H_    0.079806 0.595509 0.864434 0.258345
H73   H     H_    0.104011 0.579670 0.775506 0.175548
H74   H     H_    0.153410 0.556534 0.860751 0.217867
O31   O     O_3   0.813254 0.398829 0.690629 -0.793941
H75   H     H_    0.838377 0.370653 0.719443 0.312729
O32   O     O_3   0.951235 0.026707 0.699029 -0.694325
H76   H     H_    0.938095 0.979592 0.713429 0.380691
O33   O     O_3   0.968460 0.032333 0.858063 -0.745737
H77   H     H_    0.976094 0.045072 0.917716 0.333519
N12   N     N_2   0.687058 0.511366 0.024020 -0.424079
H78   H     H_    0.695772 0.482905 0.972166 0.251345
C102  C     C_3   0.635655 0.449940 0.042011 -0.704146
H79   H     H_    0.581715 0.393557 0.979241 0.243874
H80   H     H_    0.607216 0.477083 0.079558 0.231620
H81   H     H_    0.675391 0.428887 0.078945 0.225290
N13   N     N_2   0.178882 0.703179 0.233171 -0.406371
H82   H     H_    0.188915 0.663343 0.257072 0.218502
C103  C     C_3   0.238316 0.736408 0.202289 -0.555739
H83   H     H_    0.206555 0.702354 0.129848 0.246412
H84   H     H_    0.294975 0.727963 0.228040 0.188927
H85   H     H_    0.260580 0.804762 0.221647 0.203493
N14   N     N_2   0.318046 0.835597 0.398142 -0.423627
H86   H     H_    0.316082 0.777914 0.384352 0.246195
C104  C     C_3   0.390943 0.899279 0.402407 -0.660594
H87   H     H_    0.413981 0.867835 0.360680 0.196296
H88   H     H_    0.443913 0.938333 0.471088 0.239765
H89   H     H_    0.374386 0.941775 0.379453 0.234292
N15   N     N_2   0.304612 0.979372 0.484129 -0.415814
H90   H     H_    0.303098 0.034564 0.490446 0.242934
C105  C     C_3   0.325866 0.975512 0.565275 -0.642890
H91   H     H_    0.385884 0.034671 0.618943 0.216484
H92   H     H_    0.336578 0.920657 0.559836 0.244283
H93   H     H_    0.273234 0.969568 0.582086 0.221726
N16   N     N_2   0.791068 0.581588 0.646122 -0.413715
H94   H     H_    0.771861 0.619503 0.625236 0.251206
C106  C     C_3   0.786229 0.513690 0.576784 -0.677967
H95   H     H_    0.720860 0.475441 0.519538 0.236854
H96   H     H_    0.805411 0.472132 0.597854 0.252840
H97   H     H_    0.831373 0.542258 0.555228 0.230214
N17   N     N_2   0.814021 0.768598 0.292737 -0.414046
H98   H     H_    0.789928 0.742351 0.326520 0.228222
C107  C     C_3   0.760615 0.798069 0.249305 -0.572528
H99   H     H_    0.752923 0.843660 0.296937 0.232525
H100  H     H_    0.695022 0.744536 0.199180 0.186596
H101  H     H_    0.790354 0.830307 0.217524 0.230796
N18   N     N_2   0.923207 0.591585 0.778853 -0.367088
H102  H     H_    0.913739 0.545474 0.723566 0.299674
C108  C     C_3   0.982000 0.677295 0.801999 -0.690734
H103  H     H_    0.036470 0.678189 0.790445 0.207877
H104  H     H_    0.008374 0.720871 0.872498 0.226266
H105  H     H_    0.949170 0.700531 0.761599 0.252507
O34   O     O_3   0.668764 0.587208 0.808567 -0.715421
H106  H     H_    0.727213 0.637507 0.845240 0.325044

loop_
_geom_bond_atom_site_label_1
_geom_bond_atom_site_label_2
_ccdc_geom_bond_type
N15   C105  S    
C66   C68   A    
O30   H62   S    
C106  H96   S    
C92   H31   S    
Cu3   Cu4   S    
C3    N18   S    
C4    H2    S    
C92   H32   S    
C71   O32   S    
C73   C74   A    
Cu5   Cu6   S    
C2    C56   S    
C43   C44   A    
C1    O12   A    
C49   C50   A    
C13   C16   A    
C97   H55   S    
N3    H35   S    
C27   C54   S    
C91   H27   S    
C7    C8    A    
C49   H11   S    
O27   H43   S    
C58   O14   A    
N10   H67   S    
O33   H77   S    
C105  H91   S    
C37   C38   A    
Cu2   O12   S    
C5    N1    S    
C90   H22   S    
Cu6   O10   S    
C36   C37   A    
C93   H37   S    
C78   H23   S    
C87   H21   S    
C22   N6    S    
C2    C3    S    
C10   C15   A    
C96   H50   S    
O25   H25   S    
N16   H94   S    
C108  H105  S    
C11   C13   A    
C16   C17   A    
C59   O17   A    
C104  H87   S    
N8    C98   S    
C103  H84   S    
C59   O16   A    
C67   C89   S    
C103  H83   S    
N7    C97   S    
N14   H86   S    
O29   H61   S    
C98   H59   S    
Cu2   O23   S    
C56   H12   S    
N1    H26   S    
C33   C35   A    
C68   C69   A    
C63   H18   S    
C19   H7    S    
C3    H4    S    
C58   C66   S    
C34   O22   A    
O26   H34   S    
C45   C56   S    
C8    C9    A    
C104  H88   S    
C72   O33   S    
C48   N9    S    
N13   C103  S    
C99   H66   S    
N13   H82   S    
C75   N13   S    
C1    C15   S    
C51   C70   S    
C13   C14   A    
C38   H14   S    
C29   C30   A    
C33   O27   S    
N18   H102  S    
Cu1   O20   S    
N11   C101  S    
C37   H13   S    
C67   H3    S    
C72   C73   A    
Cu1   O22   S    
C104  H89   S    
C40   C42   A    
C88   N12   S    
C106  H97   S    
N4    H39   S    
C23   C46   S    
C21   C22   A    
C16   O26   S    
Cu5   O11   S    
C94   H41   S    
C91   H28   S    
C57   O13   A    
C36   C41   A    
C69   C70   A    
C84   C90   A    
N3    C93   S    
C8    H6    S    
C44   C46   A    
C73   H15   S    
Cu6   O15   S    
Cu3   O5    S    
Cu4   O6    S    
C78   C89   S    
C84   C85   A    
C38   C39   A    
C34   O23   A    
C105  H92   S    
C28   C31   A    
C30   C34   S    
C99   H64   S    
C6    N2    S    
C47   C48   A    
C12   C89   S    
C93   H38   S    
C77   C79   A    
C24   C25   A    
O31   H75   S    
N5    C95   S    
C53   O6    A    
N6    C96   S    
Cu1   Cu2   S    
C107  H100  S    
C86   C87   A    
C18   C19   A    
C61   H16   S    
C21   N5    S    
C25   C26   A    
N6    H48   S    
C54   O8    A    
C98   H58   S    
Cu5   O14   S    
N8    H57   S    
N4    C94   S    
C60   C61   A    
N14   C104  S    
C64   C66   A    
C65   C70   A    
C98   H60   S    
C2    C4    S    
C75   C76   A    
Cu3   O7    S    
C96   H49   S    
C4    C78   S    
N12   H78   S    
C2    C52   S    
C106  H95   S    
C101  H73   S    
Cu1   O18   S    
N18   C108  S    
C23   O20   A    
C4    H24   S    
C83   C84   A    
C100  H68   S    
C41   C46   A    
C95   H47   S    
C62   C63   A    
O32   H76   S    
C12   O19   A    
C47   O30   S    
C69   C74   A    
C102  H80   S    
C94   H40   S    
C78   O34   S    
C76   C77   A    
C55   C82   S    
Cu2   O21   S    
C9    C11   A    
Cu6   O13   S    
Cu3   O24   S    
C17   N3    S    
C62   H17   S    
Cu4   O2    S    
C80   C82   A    
C40   C41   A    
N10   C100  S    
C88   C90   A    
C50   N10   S    
C82   C83   A    
Cu4   O8    S    
C45   N4    S    
C7    H5    S    
C94   H42   S    
C12   O18   A    
C79   C80   A    
C91   H29   S    
N2    C92   S    
C42   C43   A    
N17   H98   S    
C102  H79   S    
C45   C89   S    
N16   C106  S    
C9    C10   A    
C100  H70   S    
C44   C50   A    
N7    H53   S    
C101  H72   S    
N9    H63   S    
C28   C29   A    
C105  H93   S    
N1    C91   S    
C18   O25   S    
C14   C19   A    
Cu6   O17   S    
C31   C32   A    
C3    C67   S    
Cu3   O3    S    
C99   H65   S    
C80   C81   A    
N17   C107  S    
C42   C59   S    
C60   C65   A    
C56   O31   S    
C53   C85   S    
N15   H90   S    
Cu5   O9    S    
C26   C30   A    
C6    C7    A    
C20   H8    S    
C75   C81   A    
C58   O15   A    
C25   C27   A    
C54   O7    A    
C29   C35   A    
C107  H101  S    
C17   C18   A    
C96   H51   S    
C108  H103  S    
C32   C33   A    
C55   O9    A    
C76   N14   S    
N11   H71   S    
C100  H69   S    
C5    C10   A    
N12   C102  S    
C35   H10   S    
C45   H1    S    
C60   N11   S    
C64   C65   A    
C101  H74   S    
C79   H20   S    
Cu2   O19   S    
C108  H104  S    
C5    C6    A    
C20   C26   A    
C68   C71   A    
C48   C49   A    
C74   H19   S    
C52   O4    A    
Cu5   O16   S    
C52   O3    A    
C95   H46   S    
C32   N7    S    
C57   O11   A    
N5    H44   S    
C22   C24   A    
C39   O29   S    
C61   C62   A    
C97   H54   S    
C53   O5    A    
C1    O1    A    
C86   N17   S    
C36   N8    S    
C93   H36   S    
C102  H81   S    
C67   N16   S    
C63   C64   A    
C39   C40   A    
C71   C72   A    
C83   C86   A    
C20   C21   A    
O28   H52   S    
C87   C88   A    
C95   H45   S    
Cu1   O1    S    
C103  H85   S    
C31   O28   S    
C27   C28   A    
C107  H99   S    
C51   O2    A    
C51   O24   A    
C14   C15   A    
C23   O21   A    
C55   O10   A    
C24   H9    S    
C77   N15   S    
N2    H30   S    
C11   C57   S    
N9    C99   S    
C43   C47   A    
C81   C85   A    
C97   H56   S    
O34   H106  S    
C92   H33   S    
Cu4   O4    S    
