data_mof_unit_8194.cif
_audit_creation_date              2012-12-11T15:08:56-0500
_audit_creation_method            fapswitch 2.2
_symmetry_space_group_name_H-M    P1
_symmetry_Int_Tables_number       1
_space_group_crystal_system       triclinic
_cell_length_a                    19.390029
_cell_length_b                    11.335309
_cell_length_c                    18.678831
_cell_angle_alpha                 89.999753
_cell_angle_beta                  89.492863
_cell_angle_gamma                 90.00003
_cell_volume                      4105.29624936

loop_
_atom_site_label
_atom_site_type_symbol
_atom_type_description
_atom_site_fract_x
_atom_site_fract_y
_atom_site_fract_z
_atom_type_partial_charge
C1    C     C_R   0.272253 0.043455 0.854073 0.530656
C2    C     C_R   0.727747 0.043456 0.145927 0.530655
C3    C     C_R   0.772253 0.543455 0.854073 0.530655
C4    C     C_R   0.227747 0.543456 0.145927 0.530657
C5    C     C_3   0.520126 0.722981 0.964440 -0.112892
C6    C     C_3   0.479874 0.722980 0.035561 -0.112892
C7    C     C_3   0.020126 0.222981 0.964440 -0.112893
C8    C     C_3   0.979874 0.222980 0.035561 -0.112892
C9    C     C_3   0.312106 0.528448 0.042952 -0.236601
C10   C     C_3   0.687894 0.528448 0.957048 -0.236601
C11   C     C_3   0.812106 0.028448 0.042952 -0.236601
C12   C     C_3   0.187894 0.028448 0.957048 -0.236602
C13   C     C_3   0.321439 0.553890 0.962514 -0.233050
C14   C     C_3   0.678561 0.553891 0.037486 -0.233049
C15   C     C_3   0.821439 0.053890 0.962514 -0.233050
C16   C     C_3   0.178561 0.053891 0.037486 -0.233049
C17   C     C_3   0.179859 0.522776 0.026454 -0.205892
C18   C     C_3   0.820141 0.522776 0.973546 -0.205892
C19   C     C_3   0.679859 0.022776 0.026454 -0.205891
C20   C     C_3   0.320141 0.022776 0.973546 -0.205892
C21   C     C_3   0.240405 0.706991 0.056728 -0.258286
C22   C     C_3   0.759595 0.706991 0.943272 -0.258285
C23   C     C_3   0.740405 0.206991 0.056728 -0.258286
C24   C     C_3   0.259595 0.206991 0.943272 -0.258285
C25   C     C_3   0.241183 0.574260 0.070189 0.066503
C26   C     C_3   0.758817 0.574260 0.929811 0.066503
C27   C     C_3   0.741183 0.074260 0.070189 0.066503
C28   C     C_3   0.258817 0.074260 0.929811 0.066503
C29   C     C_3   0.254810 0.610157 0.932117 0.056623
C30   C     C_3   0.745190 0.610157 0.067882 0.056622
C31   C     C_3   0.754810 0.110157 0.932117 0.056622
C32   C     C_3   0.245190 0.110157 0.067882 0.056623
C33   C     C_3   0.195015 0.524472 0.945415 -0.256603
C34   C     C_3   0.804984 0.524472 0.054586 -0.256601
C35   C     C_3   0.695015 0.024472 0.945414 -0.256603
C36   C     C_3   0.304984 0.024472 0.054586 -0.256602
C37   C     C_3   0.238239 0.725207 0.974808 -0.221014
C38   C     C_3   0.761761 0.725207 0.025192 -0.221016
C39   C     C_3   0.738239 0.225207 0.974808 -0.221014
C40   C     C_3   0.261761 0.225207 0.025191 -0.221016
C41   C     C_3   0.498173 0.697849 0.459847 -0.230495
C42   C     C_3   0.501825 0.697848 0.540152 -0.230493
C43   C     C_3   0.998174 0.197852 0.459848 -0.230496
C44   C     C_3   0.001829 0.197853 0.540153 -0.230501
C45   C     C_R   0.444823 0.817213 0.862467 0.538799
C46   C     C_R   0.555177 0.817213 0.137533 0.538798
C47   C     C_R   0.944823 0.317213 0.862467 0.538798
C48   C     C_R   0.055177 0.317213 0.137533 0.538799
C49   C     C_3   0.565054 0.894067 0.468723 -0.210637
C50   C     C_3   0.434944 0.894069 0.531276 -0.210636
C51   C     C_3   0.065055 0.394075 0.468723 -0.210635
C52   C     C_3   0.934943 0.394064 0.531273 -0.210657
C53   C     C_3   0.441028 0.890865 0.448330 -0.271096
C54   C     C_3   0.558970 0.890863 0.551669 -0.271098
C55   C     C_3   0.941031 0.390871 0.448328 -0.271097
C56   C     C_3   0.058969 0.390874 0.551669 -0.271090
C57   C     C_3   0.507328 0.826268 0.429976 0.066679
C58   C     C_3   0.492669 0.826268 0.570024 0.066683
C59   C     C_3   0.007330 0.326271 0.429976 0.066683
C60   C     C_3   0.992671 0.326271 0.570023 0.066676
C61   C     C_3   0.184218 0.668502 0.455951 -0.255551
C62   C     C_3   0.815783 0.668495 0.544049 -0.255545
C63   C     C_3   0.684219 0.168496 0.455954 -0.255563
C64   C     C_3   0.315781 0.168504 0.544049 -0.255553
C65   C     C_3   0.185826 0.673546 0.536437 -0.241051
C66   C     C_3   0.814175 0.673538 0.463563 -0.241048
C67   C     C_3   0.685822 0.173524 0.536440 -0.241065
C68   C     C_3   0.314174 0.173546 0.463563 -0.241048
C69   C     C_3   0.238295 0.470263 0.480579 -0.226097
C70   C     C_3   0.761700 0.470255 0.519425 -0.226082
C71   C     C_3   0.738290 0.970249 0.480573 -0.226093
C72   C     C_3   0.261705 0.970264 0.519423 -0.226096
C73   C     C_3   0.311008 0.630510 0.435969 -0.257095
C74   C     C_3   0.688992 0.630510 0.564031 -0.257099
C75   C     C_3   0.811009 0.130497 0.435975 -0.257107
C76   C     C_3   0.188991 0.130511 0.564030 -0.257098
C77   C     C_3   0.239719 0.577683 0.429348 0.045806
C78   C     C_3   0.760281 0.577679 0.570652 0.045806
C79   C     C_3   0.739719 0.077677 0.429348 0.045814
C80   C     C_3   0.260281 0.077685 0.570652 0.045807
C81   C     C_3   0.259089 0.632038 0.563359 0.081086
C82   C     C_3   0.740913 0.632029 0.436641 0.081081
C83   C     C_3   0.759083 0.132011 0.563363 0.081090
C84   C     C_3   0.240911 0.132038 0.436640 0.081088
C85   C     C_3   0.264966 0.497135 0.556557 0.029342
C86   C     C_3   0.735035 0.497127 0.443445 0.029336
C87   C     C_3   0.764962 0.997110 0.556553 0.029313
C88   C     C_3   0.235036 0.997134 0.443444 0.029340
C89   C     C_R   0.261940 0.641987 0.854961 0.529736
C90   C     C_R   0.738060 0.641988 0.145039 0.529737
C91   C     C_R   0.761940 0.141987 0.854961 0.529736
C92   C     C_R   0.238060 0.141988 0.145039 0.529735
C93   C     C_3   0.315645 0.680271 0.512128 -0.291689
C94   C     C_3   0.684356 0.680263 0.487870 -0.291683
C95   C     C_3   0.815642 0.180248 0.512137 -0.291671
C96   C     C_3   0.184354 0.180268 0.487870 -0.291683
C97   C     C_R   0.274930 0.040300 0.644581 0.537059
C98   C     C_R   0.725070 0.040301 0.355418 0.537065
C99   C     C_R   0.774932 0.540294 0.644580 0.537066
C100  C     C_R   0.225069 0.540298 0.355420 0.537061
C101  C     C_R   0.471997 0.822736 0.647141 0.534787
C102  C     C_R   0.528002 0.822736 0.352859 0.534786
C103  C     C_R   0.971996 0.322736 0.647140 0.534791
C104  C     C_R   0.028003 0.322736 0.352859 0.534788
C105  C     C_R   0.270583 0.674561 0.636725 0.559284
C106  C     C_R   0.729419 0.674553 0.363275 0.559277
C107  C     C_R   0.770574 0.174530 0.636729 0.559314
C108  C     C_R   0.229417 0.174562 0.363275 0.559282
C109  C     C_3   0.479400 0.915947 0.035797 -0.110053
C110  C     C_3   0.520599 0.915948 0.964202 -0.110052
C111  C     C_3   0.979400 0.415947 0.035797 -0.110053
C112  C     C_3   0.020599 0.415948 0.964202 -0.110052
C113  C     C_3   0.431379 0.818438 0.006727 -0.158010
C114  C     C_3   0.568621 0.818439 0.993272 -0.158011
C115  C     C_3   0.931379 0.318438 0.006727 -0.158010
C116  C     C_3   0.068621 0.318439 0.993272 -0.158011
C117  C     C_3   0.472560 0.820048 0.935988 0.057126
C118  C     C_3   0.527440 0.820049 0.064012 0.057126
C119  C     C_3   0.972560 0.320048 0.935988 0.057126
C120  C     C_3   0.027440 0.320049 0.064012 0.057126
Cr1   Cr    Cr6+3 0.229620 0.836040 0.749110 0.984387
Cr2   Cr    Cr6+3 0.770380 0.836040 0.250890 0.984389
Cr3   Cr    Cr6+3 0.729620 0.336040 0.749110 0.984390
Cr4   Cr    Cr6+3 0.270380 0.336040 0.250890 0.984387
Cr5   Cr    Cr6+3 0.387630 0.990680 0.750730 0.986484
Cr6   Cr    Cr6+3 0.612370 0.990680 0.249270 0.986485
Cr7   Cr    Cr6+3 0.887630 0.490680 0.750730 0.986486
Cr8   Cr    Cr6+3 0.112370 0.490680 0.249270 0.986484
Cr9   Cr    Cr6+3 0.386020 0.676590 0.749210 0.976928
Cr10  Cr    Cr6+3 0.613980 0.676590 0.250790 0.976930
Cr11  Cr    Cr6+3 0.886020 0.176590 0.749210 0.976929
Cr12  Cr    Cr6+3 0.113980 0.176590 0.250790 0.976927
H1    H     H_    0.376330 0.805639 0.017482 0.091869
H2    H     H_    0.623670 0.805641 0.982517 0.091870
H3    H     H_    0.876330 0.305639 0.017482 0.091869
H4    H     H_    0.123670 0.305641 0.982517 0.091870
H5    H     H_    0.194755 0.750043 0.082095 0.125675
H6    H     H_    0.805245 0.750043 0.917904 0.125675
H7    H     H_    0.694755 0.250043 0.082095 0.125675
H8    H     H_    0.305245 0.250043 0.917904 0.125676
H9    H     H_    0.286825 0.746284 0.080983 0.100729
H10   H     H_    0.713175 0.746283 0.919016 0.100730
H11   H     H_    0.786825 0.246284 0.080983 0.100729
H12   H     H_    0.213175 0.246283 0.919016 0.100730
H13   H     H_    0.273292 0.794680 0.958267 0.109419
H14   H     H_    0.726708 0.794681 0.041732 0.109418
H15   H     H_    0.773292 0.294680 0.958267 0.109419
H16   H     H_    0.226708 0.294681 0.041732 0.109418
H17   H     H_    0.184811 0.751555 0.961238 0.130150
H18   H     H_    0.815190 0.751555 0.038761 0.130150
H19   H     H_    0.684810 0.251555 0.961238 0.130151
H20   H     H_    0.315190 0.251555 0.038761 0.130150
H21   H     H_    0.148403 0.553305 0.916036 0.123332
H22   H     H_    0.851597 0.553306 0.083964 0.123332
H23   H     H_    0.648403 0.053305 0.916036 0.123332
H24   H     H_    0.351597 0.053305 0.083964 0.123332
H25   H     H_    0.533844 0.629479 0.439601 0.135268
H26   H     H_    0.466154 0.629478 0.560399 0.135267
H27   H     H_    0.033843 0.129480 0.439601 0.135268
H28   H     H_    0.966160 0.129481 0.560400 0.135268
H29   H     H_    0.447889 0.663316 0.442512 0.112672
H30   H     H_    0.552109 0.663315 0.557486 0.112671
H31   H     H_    0.947888 0.163322 0.442516 0.112674
H32   H     H_    0.052115 0.163325 0.557486 0.112676
H33   H     H_    0.611610 0.854161 0.447479 0.102933
H34   H     H_    0.388387 0.854169 0.552523 0.102929
H35   H     H_    0.111612 0.354178 0.447477 0.102929
H36   H     H_    0.888394 0.354133 0.552502 0.102934
H37   H     H_    0.603142 0.843761 0.574946 0.121365
H38   H     H_    0.396855 0.843766 0.425052 0.121373
H39   H     H_    0.103144 0.343782 0.574949 0.121366
H40   H     H_    0.896859 0.343774 0.425047 0.121369
H41   H     H_    0.464369 0.996442 0.065747 0.112927
H42   H     H_    0.535630 0.996443 0.934253 0.112927
H43   H     H_    0.964369 0.496442 0.065746 0.112927
H44   H     H_    0.035630 0.496443 0.934253 0.112927
H45   H     H_    0.442429 0.981688 0.426023 0.106202
H46   H     H_    0.557570 0.981685 0.573977 0.106201
H47   H     H_    0.942434 0.481696 0.426026 0.106210
H48   H     H_    0.057564 0.481698 0.573974 0.106211
H49   H     H_    0.435066 0.987799 0.548292 0.129919
H50   H     H_    0.564934 0.987797 0.451706 0.129922
H51   H     H_    0.935043 0.487782 0.548298 0.129926
H52   H     H_    0.064932 0.487804 0.451706 0.129919
H53   H     H_    0.130650 0.646338 0.440724 0.130901
H54   H     H_    0.869352 0.646331 0.559275 0.130896
H55   H     H_    0.630651 0.146342 0.440723 0.130908
H56   H     H_    0.369350 0.146340 0.559276 0.130902
H57   H     H_    0.195200 0.756660 0.433774 0.156776
H58   H     H_    0.804804 0.756653 0.566227 0.156794
H59   H     H_    0.695204 0.256657 0.433785 0.156777
H60   H     H_    0.304799 0.256662 0.566225 0.156778
H61   H     H_    0.167948 0.761014 0.554314 0.124458
H62   H     H_    0.832052 0.761007 0.445686 0.124457
H63   H     H_    0.667945 0.260990 0.554322 0.124472
H64   H     H_    0.332053 0.261013 0.445684 0.124459
H65   H     H_    0.145057 0.614997 0.558054 0.120798
H66   H     H_    0.854945 0.614991 0.441946 0.120797
H67   H     H_    0.645052 0.114972 0.558052 0.120790
H68   H     H_    0.354943 0.114997 0.441947 0.120796
H69   H     H_    0.684925 0.952116 0.488752 0.127147
H70   H     H_    0.315071 0.952127 0.511244 0.127148
H71   H     H_    0.184930 0.452124 0.488760 0.127149
H72   H     H_    0.815064 0.452102 0.511256 0.127140
H73   H     H_    0.319742 0.700032 0.395136 0.135093
H74   H     H_    0.680260 0.700036 0.604861 0.135109
H75   H     H_    0.819748 0.200025 0.395147 0.135092
H76   H     H_    0.180256 0.200034 0.604861 0.135093
H77   H     H_    0.535484 0.642056 0.935079 0.121869
H78   H     H_    0.464517 0.642055 0.064921 0.121869
H79   H     H_    0.035484 0.142056 0.935079 0.121869
H80   H     H_    0.964517 0.142055 0.064921 0.121869
H81   H     H_    0.307324 0.772012 0.505172 0.131233
H82   H     H_    0.692676 0.772003 0.494821 0.131235
H83   H     H_    0.807317 0.271991 0.505182 0.131230
H84   H     H_    0.192671 0.272009 0.494823 0.131224
H85   H     H_    0.366125 0.662941 0.534417 0.116898
H86   H     H_    0.633875 0.662931 0.465582 0.116895
H87   H     H_    0.866121 0.162914 0.534430 0.116900
H88   H     H_    0.133874 0.162929 0.465581 0.116899
H89   H     H_    0.266037 0.397396 0.456159 0.107302
H90   H     H_    0.733946 0.397398 0.543844 0.107305
H91   H     H_    0.766031 0.897384 0.456149 0.107312
H92   H     H_    0.233965 0.897397 0.543844 0.107303
H93   H     H_    0.320092 0.469311 0.558545 0.133495
H94   H     H_    0.679909 0.469304 0.441454 0.133493
H95   H     H_    0.820088 0.969285 0.558536 0.133487
H96   H     H_    0.179910 0.969307 0.441455 0.133496
H97   H     H_    0.317825 0.434089 0.053133 0.130613
H98   H     H_    0.682175 0.434089 0.946868 0.130612
H99   H     H_    0.817825 0.934089 0.053133 0.130613
H100  H     H_    0.182174 0.934089 0.946868 0.130612
H101  H     H_    0.353950 0.571688 0.073470 0.108992
H102  H     H_    0.646050 0.571688 0.926530 0.108992
H103  H     H_    0.853950 0.071688 0.073470 0.108992
H104  H     H_    0.146049 0.071688 0.926530 0.108992
H105  H     H_    0.365876 0.614290 0.954405 0.138445
H106  H     H_    0.634124 0.614290 0.045595 0.138445
H107  H     H_    0.865876 0.114290 0.954404 0.138445
H108  H     H_    0.134124 0.114290 0.045595 0.138445
H109  H     H_    0.333678 0.470436 0.933732 0.115929
H110  H     H_    0.666322 0.470437 0.066269 0.115930
H111  H     H_    0.833678 0.970436 0.933732 0.115929
H112  H     H_    0.166322 0.970437 0.066269 0.115929
H113  H     H_    0.664976 0.937298 0.047635 0.100505
H114  H     H_    0.335024 0.937298 0.952366 0.100505
H115  H     H_    0.164975 0.437298 0.047635 0.100505
H116  H     H_    0.835024 0.437298 0.952366 0.100505
H117  H     H_    0.708967 0.936079 0.925674 0.108074
H118  H     H_    0.291032 0.936079 0.074327 0.108074
H119  H     H_    0.208967 0.436079 0.925674 0.108074
H120  H     H_    0.791032 0.436079 0.074327 0.108074
O1    O     O_R   0.214130 0.708570 0.829890 -0.525775
O2    O     O_R   0.785870 0.708570 0.170110 -0.525775
O3    O     O_R   0.714130 0.208570 0.829890 -0.525778
O4    O     O_R   0.285870 0.208570 0.170110 -0.525776
O5    O     O_R   0.446360 0.919990 0.675230 -0.508523
O6    O     O_R   0.553640 0.919990 0.324770 -0.508522
O7    O     O_R   0.946360 0.419990 0.675230 -0.508522
O8    O     O_R   0.053640 0.419990 0.324770 -0.508525
O9    O     O_R   0.457170 0.717300 0.668380 -0.534048
O10   O     O_R   0.542830 0.717300 0.331620 -0.534047
O11   O     O_R   0.957170 0.217300 0.668380 -0.534046
O12   O     O_R   0.042830 0.217300 0.331620 -0.534048
O13   O     O_R   0.320870 0.624890 0.673130 -0.514189
O14   O     O_R   0.679130 0.624890 0.326870 -0.514189
O15   O     O_R   0.820870 0.124890 0.673130 -0.514200
O16   O     O_R   0.179130 0.124890 0.326870 -0.514191
O17   O     O_3   0.334430 0.834430 0.749680 -0.290592
O18   O     O_3   0.665570 0.834430 0.250320 -0.290588
O19   O     O_3   0.834430 0.334430 0.749680 -0.290583
O20   O     O_3   0.165570 0.334430 0.250320 -0.290593
O21   O     O_R   0.236050 0.959150 0.825270 -0.512269
O22   O     O_R   0.763950 0.959150 0.174730 -0.512270
O23   O     O_R   0.736050 0.459150 0.825270 -0.512269
O24   O     O_R   0.263950 0.459150 0.174730 -0.512269
O25   O     O_R   0.332100 0.076650 0.832310 -0.535062
O26   O     O_R   0.667900 0.076650 0.167690 -0.535062
O27   O     O_R   0.832100 0.576650 0.832310 -0.535063
O28   O     O_R   0.167900 0.576650 0.167690 -0.535061
O29   O     O_R   0.446500 0.918620 0.826240 -0.503589
O30   O     O_R   0.553500 0.918620 0.173760 -0.503590
O31   O     O_R   0.946500 0.418620 0.826240 -0.503590
O32   O     O_R   0.053500 0.418620 0.173760 -0.503589
O33   O     O_R   0.457310 0.715830 0.831280 -0.524579
O34   O     O_R   0.542690 0.715830 0.168720 -0.524580
O35   O     O_R   0.957310 0.215830 0.831280 -0.524579
O36   O     O_R   0.042690 0.215830 0.168720 -0.524579
O37   O     O_R   0.321000 0.623520 0.824130 -0.524009
O38   O     O_R   0.679000 0.623520 0.175870 -0.524009
O39   O     O_R   0.821000 0.123520 0.824130 -0.524004
O40   O     O_R   0.179000 0.123520 0.175870 -0.524010
O41   O     O_R   0.213990 0.710040 0.667000 -0.532845
O42   O     O_R   0.786010 0.710040 0.333000 -0.532847
O43   O     O_R   0.713990 0.210040 0.667000 -0.532859
O44   O     O_R   0.286010 0.210040 0.333000 -0.532846
O45   O     O_R   0.235920 0.960520 0.674260 -0.520323
O46   O     O_R   0.764080 0.960520 0.325740 -0.520323
O47   O     O_R   0.735920 0.460520 0.674260 -0.520319
O48   O     O_R   0.264080 0.460520 0.325740 -0.520323
O49   O     O_R   0.331960 0.078120 0.669410 -0.537493
O50   O     O_R   0.668040 0.078120 0.330590 -0.537492
O51   O     O_R   0.831960 0.578120 0.669410 -0.537498
O52   O     O_R   0.168040 0.578120 0.330590 -0.537492
H121  H     H_    0.632771 0.077250 0.035955 0.138524
H122  H     H_    0.367228 0.077250 0.964045 0.138524
H123  H     H_    0.132771 0.577250 0.035955 0.138524
H124  H     H_    0.867228 0.577250 0.964045 0.138524
N1    N     N_2   0.725412 0.933539 0.611616 -0.553439
H125  H     H_    0.677204 0.966298 0.623178 0.255226
C121  C     C_3   0.760441 0.892638 0.675399 -0.277383
H126  H     H_    0.737858 0.807377 0.692772 0.134699
H127  H     H_    0.752556 0.956039 0.719997 0.183607
H128  H     H_    0.816531 0.879462 0.666026 0.147614
N2    N     N_2   0.274591 0.933575 0.388381 -0.553422
H129  H     H_    0.322797 0.966341 0.376816 0.255238
C122  C     C_3   0.239568 0.892645 0.324603 -0.277375
H130  H     H_    0.262193 0.807421 0.307215 0.134673
H131  H     H_    0.247412 0.956072 0.280011 0.183668
H132  H     H_    0.183483 0.879384 0.333989 0.147586
N3    N     N_2   0.225413 0.433575 0.611621 -0.553419
H133  H     H_    0.177206 0.466341 0.623187 0.255238
C123  C     C_3   0.260438 0.392643 0.675397 -0.277371
H134  H     H_    0.237818 0.307412 0.692781 0.134677
H135  H     H_    0.252589 0.456063 0.719993 0.183660
H136  H     H_    0.316523 0.379394 0.666011 0.147586
N4    N     N_2   0.774590 0.433564 0.388384 -0.553425
H137  H     H_    0.822794 0.466335 0.376817 0.255240
C124  C     C_3   0.739566 0.392634 0.324606 -0.277383
H138  H     H_    0.762190 0.307410 0.307218 0.134681
H139  H     H_    0.747410 0.456061 0.280013 0.183660
H140  H     H_    0.683481 0.379374 0.333993 0.147585
H141  H     H_    0.350618 0.560757 0.427315 0.118233
H142  H     H_    0.649380 0.560760 0.572689 0.118232
H143  H     H_    0.850618 0.060742 0.427318 0.118234
H144  H     H_    0.149381 0.060757 0.572686 0.118234

loop_
_geom_bond_atom_site_label_1
_geom_bond_atom_site_label_2
_ccdc_geom_bond_type
C90   O38   A    
C82   C94   S    
C55   C59   S    
C124  H139  S    
C73   C93   S    
C42   C58   S    
C29   C89   S    
C48   O32   A    
C75   C95   S    
C48   C120  S    
C24   H8    S    
C57   C102  S    
Cr6   O26   S    
C91   O39   A    
C59   C104  S    
Cr8   O8    S    
Cr2   O22   S    
C5    C6    S    
Cr10  O18   S    
C109  H41   S    
Cr11  O15   S    
C22   C38   S    
C29   C33   S    
C30   C38   S    
C77   C100  S    
C9    C13   S    
C75   H75   S    
C12   C16   S    
C101  O5    A    
C95   H87   S    
C102  O10   A    
C21   H5    S    
C60   C103  S    
N1    C121  S    
C113  H1    S    
C61   H57   S    
C54   H37   S    
C23   H11   S    
C66   H62   S    
C109  C118  S    
C15   H111  S    
C11   H103  S    
C94   H82   S    
C50   C53   S    
Cr6   O6    S    
C9    H101  S    
C123  H134  S    
C46   O34   A    
C7    C119  S    
C71   H91   S    
C62   H58   S    
C62   C66   S    
C13   H105  S    
C20   C28   S    
C96   H88   S    
C54   H46   S    
C100  O52   A    
C122  H132  S    
C43   C44   S    
C1    O25   A    
C2    O22   A    
C3    O27   A    
C11   C27   S    
C58   C101  S    
C85   N3    S    
C53   H38   S    
C56   H39   S    
C10   C14   S    
C4    O28   A    
C55   H40   S    
C11   H99   S    
Cr6   O18   S    
C3    C26   S    
Cr3   O47   S    
C84   C88   S    
C31   C91   S    
C53   H45   S    
Cr12  O20   S    
Cr1   O1    S    
C96   H84   S    
Cr11  O39   S    
C17   C25   S    
Cr9   O33   S    
C19   C35   S    
C76   C96   S    
C32   C92   S    
C91   O3    A    
C69   H89   S    
C98   O50   A    
C99   O47   A    
C21   H9    S    
C61   C65   S    
N3    H133  S    
C5    C117  S    
C78   C99   S    
C73   C77   S    
C104  O12   A    
C75   C79   S    
C76   H76   S    
C72   H92   S    
C87   N1    S    
C67   C83   S    
C15   H107  S    
C80   C97   S    
Cr1   O41   S    
C69   C77   S    
C111  C112  S    
Cr10  O34   S    
Cr3   O43   S    
C71   C79   S    
C4    C25   S    
C7    C8    S    
C32   C36   S    
C44   C60   S    
C43   H27   S    
C33   H21   S    
C105  O13   A    
C39   H19   S    
C10   H98   S    
C49   C57   S    
C40   H20   S    
C93   H85   S    
C108  O16   A    
C38   H14   S    
C52   C60   S    
C84   C108  S    
C14   H110  S    
C61   C77   S    
C110  C114  S    
C43   C59   S    
C62   H54   S    
Cr5   O49   S    
C90   O2    A    
Cr7   O19   S    
Cr8   O20   S    
C22   H10   S    
C11   C15   S    
Cr3   O23   S    
Cr11  O11   S    
C110  H42   S    
C81   C105  S    
C30   C34   S    
C74   H142  S    
N4    C124  S    
C88   N2    S    
C116  C120  S    
C123  H135  S    
C20   C36   S    
C7    C116  S    
C36   H118  S    
C92   O40   A    
C61   H53   S    
C114  H2    S    
Cr11  O19   S    
C64   H56   S    
C66   H66   S    
C47   O31   A    
C113  C117  S    
C16   H112  S    
C89   O37   A    
C112  H44   S    
Cr5   O29   S    
C115  C119  S    
C121  H127  S    
C74   C78   S    
C46   O30   A    
Cr7   O7    S    
C85   H93   S    
Cr8   O32   S    
Cr1   O17   S    
C112  C116  S    
C69   C85   S    
C72   H70   S    
C56   H48   S    
Cr3   O19   S    
C21   C25   S    
Cr4   O20   S    
C20   H122  S    
C55   H47   S    
C62   C78   S    
C76   C80   S    
C2    O26   A    
C7    H79   S    
C42   H30   S    
C3    O23   A    
C16   C32   S    
C5    H77   S    
C63   H55   S    
C72   C80   S    
C88   H96   S    
C115  H3    S    
C82   C106  S    
C97   O49   A    
C16   H108  S    
Cr7   O27   S    
Cr4   O44   S    
Cr8   O28   S    
C81   C85   S    
C98   O46   A    
C83   C87   S    
C41   H29   S    
C41   C42   S    
C19   H121  S    
C18   C26   S    
C30   C90   S    
C9    C25   S    
C8    C120  S    
C12   C28   S    
C13   C29   S    
C105  O41   A    
C67   H67   S    
C54   C58   S    
C107  O43   A    
C17   H115  S    
C45   C117  S    
C45   O33   A    
C46   C118  S    
C71   H69   S    
C104  O8    A    
C122  H131  S    
C73   H73   S    
C64   H60   S    
C51   H35   S    
C50   H34   S    
C1    C28   S    
Cr1   O45   S    
C2    C27   S    
Cr2   O42   S    
C102  O6    A    
Cr3   O3    S    
Cr4   O48   S    
C52   C55   S    
Cr12  O12   S    
N2    H129  S    
C70   H72   S    
C64   C80   S    
C42   H26   S    
C17   C33   S    
Cr9   O9    S    
C110  C117  S    
C38   H18   S    
C65   H61   S    
C34   H22   S    
C106  O14   A    
C10   H102  S    
C40   H16   S    
C93   H81   S    
C68   C84   S    
C24   C28   S    
C97   O45   A    
C51   H52   S    
C14   H106  S    
C53   C57   S    
C82   C86   S    
C75   H143  S    
C56   C60   S    
C50   C58   S    
C49   H33   S    
C65   C81   S    
Cr6   O50   S    
C68   H64   S    
C15   C31   S    
Cr10  O10   S    
C41   H25   S    
C92   O4    A    
C87   H95   S    
C44   H28   S    
C31   C35   S    
C64   C68   S    
Cr9   O13   S    
C36   H24   S    
C103  O7    A    
C37   H17   S    
Cr2   O2    S    
C112  C119  S    
C116  H4    S    
C22   H6    S    
C41   C57   S    
N4    H137  S    
C47   O35   A    
C109  C110  S    
C48   O36   A    
Cr5   O25   S    
C24   H12   S    
C63   H59   S    
Cr6   O30   S    
C70   H90   S    
Cr1   O21   S    
Cr2   O18   S    
Cr10  O14   S    
C18   H116  S    
C21   C37   S    
C22   C26   S    
C29   C37   S    
C74   C94   S    
C44   H32   S    
C43   H31   S    
C121  H126  S    
C101  O9    A    
C5    C114  S    
C70   C78   S    
C95   H83   S    
C124  H138  S    
C79   C98   S    
C52   H51   S    
C35   H117  S    
C86   N4    S    
Cr4   O4    S    
C108  O44   A    
C63   C79   S    
N1    H125  S    
C111  H43   S    
C23   H7    S    
Cr7   O51   S    
Cr8   O52   S    
C66   C82   S    
C49   C54   S    
Cr5   O5    S    
C94   H86   S    
C9    H97   S    
C51   C56   S    
C84   C96   S    
Cr7   O31   S    
C33   H119  S    
C8    C115  S    
C13   H109  S    
C76   H144  S    
C83   C107  S    
N3    C123  S    
Cr12  O40   S    
C23   C27   S    
C100  O48   A    
C19   C27   S    
C1    O21   A    
C109  C113  S    
C10   C26   S    
C47   C119  S    
Cr9   O37   S    
C89   O1    A    
C14   C30   S    
C67   H63   S    
C106  O42   A    
C72   C88   S    
C12   H100  S    
C63   C67   S    
N2    C122  S    
C45   O29   A    
C4    O24   A    
C73   H141  S    
Cr5   O17   S    
C111  C120  S    
Cr2   O46   S    
C6    C113  S    
Cr12  O16   S    
C81   C93   S    
C83   C95   S    
C17   H123  S    
C18   H124  S    
C18   C34   S    
C114  C118  S    
C65   H65   S    
C69   H71   S    
C107  O15   A    
C86   H94   S    
C124  H140  S    
C71   C87   S    
C50   H49   S    
C51   C59   S    
C70   C86   S    
C99   O51   A    
C19   H113  S    
C74   H74   S    
C12   H104  S    
C111  C115  S    
C6    H78   S    
C68   H68   S    
C123  H136  S    
C8    H80   S    
C52   H36   S    
Cr11  O35   S    
Cr4   O24   S    
Cr12  O36   S    
C23   C39   S    
C20   H114  S    
C24   C40   S    
C31   C39   S    
C32   C40   S    
C122  H130  S    
Cr9   O17   S    
C49   H50   S    
C121  H128  S    
C39   H15   S    
Cr10  O38   S    
C103  O11   A    
C34   H120  S    
C37   H13   S    
C6    C118  S    
C35   H23   S    
