data_mof_unit_8622.cif
_audit_creation_date              2012-10-26T19:10:49-0400
_audit_creation_method            fapswitch 2.2
_symmetry_space_group_name_H-M    P1
_symmetry_Int_Tables_number       1
_space_group_crystal_system       triclinic
_cell_length_a                    10.975897
_cell_length_b                    9.679809
_cell_length_c                    23.587782
_cell_angle_alpha                 90.108137
_cell_angle_beta                  89.879735
_cell_angle_gamma                 89.129395
_cell_volume                      2505.77470758

loop_
_atom_site_label
_atom_site_type_symbol
_atom_type_description
_atom_site_fract_x
_atom_site_fract_y
_atom_site_fract_z
_atom_type_partial_charge
C1    C     C_R   0.260072 0.500872 0.498990 0.597626
C2    C     C_R   0.623170 0.468656 0.118306 0.418861
C3    C     C_R   0.580451 0.374891 0.242090 0.156926
C4    C     C_R   0.501234 0.499319 0.391236 0.544334
C5    C     C_R   0.582832 0.389823 0.301235 0.202969
C6    C     C_R   0.510300 0.494131 0.328201 -0.004950
C7    C     C_R   0.440994 0.585518 0.294027 0.086887
C8    C     C_R   0.449608 0.579339 0.234617 0.263935
C9    C     C_R   0.516592 0.470793 0.208511 0.194620
C10   C     C_R   0.442904 0.386604 0.759781 0.319653
C11   C     C_R   0.430941 0.400227 0.701224 0.252136
C12   C     C_R   0.287564 0.457950 0.972179 0.084574
C13   C     C_R   0.499559 0.499880 0.671490 -0.098799
C14   C     C_R   0.568136 0.596935 0.702895 0.237003
C15   C     C_R   0.562993 0.597414 0.762186 0.319468
C16   C     C_R   0.738953 0.499186 0.502092 0.591320
C17   C     C_R   0.505079 0.488265 0.791138 0.117382
C18   C     C_3   0.067344 0.642977 0.524953 0.312273
C19   C     C_3   0.072399 0.375091 0.535617 0.338822
C20   C     C_3   0.926400 0.630280 0.532560 -0.023582
C21   C     C_3   0.929663 0.371651 0.536262 -0.029330
C22   C     C_3   0.069675 0.488686 0.434823 0.143155
C23   C     C_R   0.290398 0.439518 0.031605 0.303588
C24   C     C_3   0.120373 0.501856 0.497730 0.155357
C25   C     C_3   0.877290 0.497642 0.502994 0.055425
C26   C     C_3   0.924019 0.486059 0.438952 0.429597
C27   C     C_3   0.629095 0.082158 0.498624 0.291226
C28   C     C_3   0.629010 0.913205 0.500420 0.319906
C29   C     C_3   0.440994 0.085552 0.554716 0.505017
C30   C     C_3   0.430530 0.918033 0.551986 0.492509
C31   C     C_3   0.425008 0.083064 0.453924 0.179354
C32   C     C_3   0.433271 0.918857 0.451217 0.188919
C33   C     C_R   0.500167 0.500202 0.608631 0.514466
C34   C     C_R   0.403051 0.439957 0.060527 0.040237
C35   C     C_R   0.616805 0.459983 0.878995 0.395539
C36   C     C_R   0.400887 0.491168 0.881710 0.405768
C37   C     C_R   0.398377 0.469236 0.940964 0.011428
C38   C     C_R   0.511393 0.457342 0.969756 -0.084856
C39   C     C_R   0.622707 0.456007 0.938834 -0.006937
C40   C     C_R   0.513220 0.449282 0.029646 -0.123738
C41   C     C_R   0.625439 0.452236 0.058924 -0.004831
C42   C     C_R   0.735982 0.444904 0.028021 0.298668
C43   C     C_R   0.735090 0.448825 0.968849 0.138612
C44   C     C_R   0.409032 0.433319 0.120298 0.442388
Cu1   Cu    Cu3+1 0.499860 0.642410 0.500030 1.119501
Cu2   Cu    Cu3+1 0.499860 0.357590 0.500030 1.074065
H1    H     H_    0.883256 0.716922 0.509912 0.154951
H2    H     H_    0.174273 0.779797 0.477146 0.305807
H3    H     H_    0.055006 0.855077 0.509075 0.204978
H4    H     H_    0.071441 0.206618 0.478840 0.240969
H5    H     H_    0.096249 0.163347 0.544640 0.207172
H6    H     H_    0.099708 0.756456 0.592566 0.319912
H7    H     H_    0.105561 0.311301 0.613966 0.347809
H8    H     H_    0.892718 0.746445 0.604816 0.226978
H9    H     H_    0.943311 0.588572 0.619411 0.337861
H10   H     H_    0.893136 0.258206 0.608466 0.228251
H11   H     H_    0.791234 0.387736 0.597845 0.242336
H12   H     H_    0.899227 0.279272 0.513148 0.152779
H13   H     H_    0.203633 0.608031 0.398525 0.236378
H14   H     H_    0.078614 0.593502 0.358182 0.268810
H15   H     H_    0.213213 0.365432 0.404674 0.232403
H16   H     H_    0.089259 0.357483 0.365125 0.247823
H17   H     H_    0.899830 0.682604 0.418858 0.342635
H18   H     H_    0.887511 0.364103 0.375117 0.366689
H19   H     H_    0.794126 0.112796 0.542643 0.180691
H20   H     H_    0.678014 0.221223 0.565841 0.320193
H21   H     H_    0.785438 0.885385 0.548527 0.174604
H22   H     H_    0.668057 0.911260 0.589155 0.313375
H23   H     H_    0.327180 0.110475 0.461853 0.155242
H24   H     H_    0.112229 0.418676 0.037838 0.390589
H25   H     H_    0.657419 0.103556 0.409916 0.300533
H26   H     H_    0.784824 0.110189 0.448495 0.211387
H27   H     H_    0.677985 0.890989 0.411944 0.276757
H28   H     H_    0.791338 0.877859 0.456133 0.164930
H29   H     H_    0.461831 0.100364 0.638353 0.357056
H30   H     H_    0.416128 0.879456 0.634428 0.324243
H31   H     H_    0.378891 0.142452 0.377629 0.306426
H32   H     H_    0.425069 0.907736 0.369405 0.329008
H33   H     H_    0.289848 0.124742 0.597889 0.313953
H34   H     H_    0.338777 0.880762 0.450919 0.137200
H35   H     H_    0.261975 0.905641 0.582340 0.308351
H36   H     H_    0.838514 0.357941 0.084094 0.358792
H37   H     H_    0.860704 0.534316 0.916205 0.281335
H38   H     H_    0.859837 0.356135 0.916457 0.279628
H39   H     H_    0.610542 0.169689 0.231854 0.267265
H40   H     H_    0.736541 0.267594 0.226079 0.283058
H41   H     H_    0.682013 0.345024 0.366348 0.379398
H42   H     H_    0.269032 0.651187 0.306081 0.249129
H43   H     H_    0.369984 0.777335 0.301049 0.276731
H44   H     H_    0.423581 0.683559 0.164885 0.346330
H45   H     H_    0.154496 0.559494 0.927616 0.295841
H46   H     H_    0.424524 0.258978 0.822938 0.335185
H47   H     H_    0.167298 0.384397 0.913851 0.288314
H48   H     H_    0.318922 0.361179 0.640368 0.374958
H49   H     H_    0.672674 0.655033 0.641487 0.353857
H50   H     H_    0.591148 0.707571 0.830090 0.338276
N1    N     N_R   0.507910 0.480953 0.852257 -0.416553
N2    N     N_3   0.108643 0.606203 0.399911 -0.629297
N3    N     N_3   0.118273 0.361973 0.407266 -0.626406
N4    N     N_3   0.700564 0.126505 0.548227 -0.598777
N5    N     N_3   0.693429 0.861811 0.551708 -0.503625
N6    N     N_3   0.692289 0.137277 0.448238 -0.506311
N7    N     N_3   0.699283 0.854287 0.451908 -0.501031
N8    N     N_3   0.851555 0.445734 0.941032 -0.527556
N9    N     N_3   0.644324 0.261810 0.215438 -0.556017
N10   N     N_3   0.355780 0.680597 0.319163 -0.600206
N11   N     N_R   0.516635 0.455380 0.147662 -0.406021
N12   N     N_3   0.500250 0.143650 0.501250 -0.166200
N13   N     N_3   0.500250 0.856350 0.501250 -0.160736
N14   N     N_3   0.170729 0.461581 0.944840 -0.598978
N15   N     N_3   0.084572 0.764980 0.488258 -0.640261
N16   N     N_3   0.117713 0.239259 0.514877 -0.546780
N17   N     N_3   0.886011 0.643507 0.592031 -0.614237
N18   N     N_3   0.883226 0.360409 0.594749 -0.611864
O1    O     O_R   0.317570 0.620260 0.500030 -0.477091
O2    O     O_2   0.298080 0.522396 0.853014 -0.469256
O3    O     O_2   0.308208 0.408862 0.151305 -0.376299
O4    O     O_2   0.725244 0.502858 0.146509 -0.437327
O5    O     O_3   0.349613 0.314426 0.674785 -0.635445
O6    O     O_3   0.641347 0.693692 0.677547 -0.591358
O7    O     O_3   0.619744 0.703986 0.790301 -0.586474
O8    O     O_3   0.126726 0.665568 0.577237 -0.613039
O9    O     O_3   0.117238 0.396028 0.591110 -0.613980
O10   O     O_3   0.869189 0.592294 0.406081 -0.672967
O11   O     O_3   0.882932 0.359429 0.417103 -0.693142
O12   O     O_R   0.317570 0.379740 0.500030 -0.444127
O13   O     O_3   0.183987 0.426398 0.062806 -0.591886
O14   O     O_3   0.508172 0.121996 0.603488 -0.652691
O15   O     O_3   0.474632 0.861245 0.603083 -0.626293
O16   O     O_3   0.454137 0.139697 0.401008 -0.656927
O17   O     O_3   0.481272 0.874293 0.399264 -0.660144
O18   O     O_3   0.324632 0.147137 0.560248 -0.659783
O19   O     O_3   0.306798 0.881027 0.547191 -0.715896
O20   O     O_3   0.847583 0.428871 0.054182 -0.606824
O21   O     O_3   0.656889 0.299477 0.330924 -0.677597
O22   O     O_3   0.388448 0.679427 0.203506 -0.659658
O23   O     O_R   0.499840 0.620290 0.417900 -0.420063
O24   O     O_3   0.388107 0.274805 0.785120 -0.595677
O25   O     O_R   0.499840 0.379710 0.417900 -0.453775
O26   O     O_R   0.682190 0.620260 0.500010 -0.446003
O27   O     O_R   0.682190 0.379740 0.500010 -0.504775
O28   O     O_R   0.499920 0.620230 0.582140 -0.414933
O29   O     O_R   0.499920 0.379770 0.582140 -0.462888
O30   O     O_2   0.718053 0.443198 0.847150 -0.476486

loop_
_geom_bond_atom_site_label_1
_geom_bond_atom_site_label_2
_ccdc_geom_bond_type
H24   O13   S    
H5    N16   S    
C22   N2    S    
C8    O22   S    
C41   C42   A    
C11   O5    S    
C12   N14   S    
H17   O10   S    
C2    O4    S    
C7    C8    A    
C16   O26   A    
C19   N16   S    
C3    N9    S    
C12   C23   A    
C19   O9    S    
C37   C38   A    
H50   O7    S    
C34   C40   A    
C44   O3    S    
H45   N14   S    
C36   C37   A    
C19   C21   S    
C31   O16   S    
H14   N2    S    
C5    C6    A    
Cu1   N13   S    
C29   O18   S    
C20   C25   S    
C10   C17   A    
H8    N17   S    
C2    N11   A    
H42   N10   S    
C5    O21   S    
H29   O14   S    
C31   N12   S    
H20   N4    S    
C12   C37   A    
C43   N8    S    
C4    O23   A    
H6    O8    S    
C28   N5    S    
C8    C9    A    
Cu2   N12   S    
H43   N10   S    
C29   N12   S    
C36   N1    A    
C18   C20   S    
C35   O30   S    
H3    N15   S    
C30   O19   S    
H46   O24   S    
C13   C14   A    
H15   N3    S    
C26   O10   S    
H39   N9    S    
H4    N16   S    
Cu2   O27   S    
C27   N4    S    
C32   N13   S    
C30   N13   S    
H41   O21   S    
C34   C44   A    
C1    O12   A    
C4    C6    S    
H7    O9    S    
C39   C43   A    
H9    N17   S    
C25   C26   S    
Cu1   Cu2   S    
Cu1   O26   S    
C33   O29   A    
C26   O11   S    
H36   O20   S    
C35   C39   A    
H32   O17   S    
C13   C33   S    
C29   C30   S    
C3    C9    A    
C32   H34   S    
H44   O22   S    
H48   O5    S    
Cu1   O1    S    
C31   C32   S    
C31   H23   S    
C23   C34   A    
H30   O15   S    
Cu1   O23   S    
C7    N10   S    
H22   N5    S    
Cu2   O29   S    
C18   O8    S    
C40   C41   A    
H25   N6    S    
C14   O6    S    
Cu1   O28   S    
H38   N8    S    
C18   C24   S    
H40   N9    S    
C42   C43   A    
C18   N15   S    
C36   O2    S    
H37   N8    S    
H21   N5    S    
C23   O13   S    
C44   N11   A    
C16   C25   S    
C15   C17   A    
C21   C25   S    
C28   N13   S    
C22   N3    S    
C15   O7    S    
Cu2   O12   S    
H19   N4    S    
C21   N18   S    
C3    C5    A    
H35   O19   S    
C6    C7    A    
H49   O6    S    
C9    N11   S    
C30   O15   S    
C1    O1    A    
H47   N14   S    
C27   N6    S    
C42   O20   S    
C16   O27   A    
C21   H12   S    
C33   O28   A    
C38   C40   A    
C11   C13   A    
C28   N7    S    
C38   C39   A    
H11   N18   S    
H26   N6    S    
C27   N12   S    
H33   O18   S    
C19   C24   S    
C22   C24   S    
H31   O16   S    
C20   N17   S    
C20   H1    S    
C10   C11   A    
H16   N3    S    
H27   N7    S    
H2    N15   S    
C1    C24   S    
H18   O11   S    
C22   C26   S    
C29   O14   S    
C27   C28   S    
C2    C41   A    
H13   N2    S    
H10   N18   S    
C14   C15   A    
H28   N7    S    
C10   O24   S    
C35   N1    A    
C17   N1    S    
C32   O17   S    
Cu2   O25   S    
C4    O25   A    
