data_mof_unit_47944.cif
_audit_creation_date              2013-03-05T15:59:50-0500
_audit_creation_method            fapswitch 2.2
_symmetry_space_group_name_H-M    P1
_symmetry_Int_Tables_number       1
_space_group_crystal_system       triclinic
_cell_length_a                    8.302102
_cell_length_b                    13.065473
_cell_length_c                    18.786106
_cell_angle_alpha                 97.46537
_cell_angle_beta                  92.819703
_cell_angle_gamma                 99.54825
_cell_volume                      1987.25968422

loop_
_atom_site_label
_atom_site_type_symbol
_atom_site_description
_atom_site_fract_x
_atom_site_fract_y
_atom_site_fract_z
_atom_type_partial_charge
P1    P     P_3+3 0.034960 0.407000 0.339750 0.526223
O1    O     O_2   0.866600 0.438960 0.328790 -0.414591
O2    O     O_3   0.119240 0.440770 0.416170 -0.270794
O3    O     O_3   0.654630 0.636910 0.371550 -0.320744
O4    O     O_2   0.792066 0.585762 0.249047 -0.420461
O5    O     O_3   0.016820 0.269926 0.330050 -0.569156
O6    O     O_3   0.576053 0.707560 0.240321 -0.538811
H1    H     H_    0.814285 0.785856 0.269698 0.142735
C1    C     C_3   0.667968 0.884179 0.221720 -0.170109
H2    H     H_    0.755177 0.955689 0.243597 0.105963
P2    P     P_3+3 0.674960 0.749840 0.554930 0.492023
P3    P     P_3+3 0.126866 0.825534 0.397576 0.556689
O7    O     O_2   0.849480 0.765610 0.533810 -0.342726
O8    O     O_3   0.077620 0.693060 0.406790 -0.299160
O9    O     O_2   0.986359 0.877692 0.429149 -0.343079
O10   O     O_3   0.746459 0.770831 0.646222 -0.626682
O11   O     O_3   0.109748 0.834336 0.305375 -0.543225
C2    C     C_3   0.213456 0.771888 0.270915 0.317522
H3    H     H_    0.171534 0.687796 0.275389 0.131745
H4    H     H_    0.340823 0.797000 0.295301 0.065800
C3    C     C_3   0.215539 0.785025 0.191212 -0.441692
H5    H     H_    0.235502 0.869786 0.185816 0.263289
C4    C     C_3   0.201402 0.784916 0.635275 0.299036
H6    H     H_    0.318972 0.788263 0.609740 0.017213
H7    H     H_    0.098764 0.753687 0.594556 0.157970
C5    C     C_3   0.185177 0.894379 0.668126 -0.140788
H8    H     H_    0.265923 0.920858 0.718118 0.165952
H9    H     H_    0.056935 0.897034 0.681608 0.135404
Ba1   Ba    Ba6+2 0.851480 0.550950 0.465800 1.709300
C6    C     C_3   0.855776 0.215992 0.322351 0.655869
H10   H     H_    0.776456 0.260787 0.354156 0.111577
C7    C     C_3   0.856204 0.112863 0.352859 -0.940929
H11   H     H_    0.935577 0.064982 0.322734 0.286003
H12   H     H_    0.730055 0.067768 0.351043 0.198656
H13   H     H_    0.908304 0.128535 0.409332 0.259529
C8    C     C_3   0.626496 0.763441 0.695882 0.614110
H14   H     H_    0.506231 0.724207 0.670432 0.040964
C9    C     C_3   0.618016 0.874615 0.731743 -0.257734
H15   H     H_    0.542927 0.912761 0.696406 0.085947
H16   H     H_    0.743878 0.921621 0.738051 0.139831
P4    P     P_3+3 0.154750 0.593090 0.660260 0.582219
O12   O     O_2   0.323100 0.561070 0.671250 -0.342293
O13   O     O_3   0.070470 0.559320 0.583840 -0.331862
O14   O     O_3   0.535090 0.363180 0.628460 -0.317775
O15   O     O_3   0.203165 0.726225 0.690924 -0.553518
P5    P     P_3+3 0.067837 0.172368 0.595067 0.594320
O16   O     O_3   0.609990 0.369010 0.464390 -0.330746
O17   O     O_3   0.112090 0.307030 0.593210 -0.300316
O18   O     O_2   0.180517 0.128967 0.540901 -0.265112
O19   O     O_3   0.143753 0.147414 0.678346 -0.473138
Ba2   Ba    Ba6+2 0.338350 0.449140 0.534210 1.752954
P6    P     P_3+3 0.623783 0.599483 0.277699 0.521916
C10   C     C_3   0.686038 0.798772 0.268640 0.284983
H17   H     H_    0.656994 0.825990 0.324371 0.050979
H18   H     H_    0.542972 0.903592 0.223490 0.127343
O20   O     O_3   0.579720 0.631080 0.535620 -0.325355
C11   C     C_3   0.424678 0.264632 0.316681 0.220655
H19   H     H_    0.312817 0.281647 0.341931 0.144571
H20   H     H_    0.516904 0.337518 0.321109 0.014618
C12   C     C_3   0.378791 0.224173 0.236512 -0.095081
H21   H     H_    0.298653 0.273928 0.214218 0.055451
H22   H     H_    0.490582 0.232534 0.206424 0.088312
P7    P     P_3+3 0.518482 0.233257 0.443360 0.486239
O21   O     O_2   0.340230 0.234420 0.466230 -0.327962
O22   O     O_3   0.492250 0.190761 0.350490 -0.595159
H23   H     H_    0.319176 0.750866 0.168739 0.226939
C13   C     C_3   0.048098 0.186009 0.731556 0.294251
H24   H     H_    0.056477 0.272353 0.733554 0.089079
H25   H     H_    0.919098 0.145671 0.720346 -0.023119
C14   C     C_3   0.110779 0.162405 0.804544 -0.402547
H26   H     H_    0.077171 0.076935 0.807002 0.189876
H27   H     H_    0.246206 0.183817 0.810204 0.256117
P8    P     P_3+3 0.556619 0.385514 0.723024 0.541699
C15   C     C_3   0.619887 0.206132 0.745927 0.383291
H28   H     H_    0.742380 0.253843 0.762099 -0.019830
O23   O     O_2   0.421859 0.446160 0.749551 -0.340773
O24   O     O_3   0.494013 0.265135 0.752395 -0.498287
H29   H     H_    0.618293 0.167303 0.689595 0.119553
H30   H     H_    0.696546 0.081759 0.795942 0.222381
C16   C     C_3   0.592212 0.124477 0.796333 -0.882422
H31   H     H_    0.476280 0.069173 0.779200 0.274847
H32   H     H_    0.584908 0.162958 0.852118 0.256261
N1    N     N_R   0.217857 0.510663 0.950109 -0.047086
N2    N     N_R   0.272249 0.509096 0.018225 -0.057827
C17   C     C_2   0.324584 0.480873 0.293540 -0.313954
C18   C     C_3   0.457031 0.487032 0.241545 0.125978
C19   C     C_2   0.391599 0.495543 0.165457 -0.176811
C20   C     C_2   0.228475 0.484586 0.146862 0.041123
C21   C     C_2   0.112107 0.467978 0.205242 -0.299256
C22   C     C_1   0.167510 0.459152 0.271674 0.221954
N3    N     N_R   0.003644 0.465494 0.049323 -0.078070
N4    N     N_R   0.949308 0.466662 0.981174 -0.080126
C23   C     C_R   0.054731 0.489322 0.929679 0.174893
C24   C     C_R   0.166690 0.486636 0.069751 0.138837
C25   C     C_R   0.095317 0.529577 0.800515 -0.180862
C26   C     C_R   0.031962 0.531692 0.729150 0.278080
C27   C     C_R   0.762957 0.454413 0.759846 0.228351
C28   C     C_R   0.824810 0.450925 0.830495 -0.258070
C29   C     C_R   0.991651 0.490358 0.852763 0.035009
C30   C     C_R   0.864763 0.500709 0.712121 -0.293743
H33   H     H_    0.479869 0.506173 0.125130 0.159259
H34   H     H_    0.981272 0.457269 0.191924 0.179242
H35   H     H_    0.223101 0.560909 0.815644 0.203351
H36   H     H_    0.743613 0.415147 0.867156 0.151277
H37   H     H_    0.364422 0.475888 0.348673 0.168235
H38   H     H_    0.812396 0.513215 0.660797 0.178745
C31   C     C_R   0.760562 0.179137 0.531192 0.013731
C32   C     C_R   0.426708 0.813774 0.472207 0.017973
C33   C     C_R   0.397912 0.987062 0.447651 -0.143145
C34   C     C_R   0.334757 0.880643 0.442227 0.136754
C35   C     C_R   0.575823 0.851602 0.513343 0.035772
C36   C     C_R   0.638555 0.962120 0.521169 -0.008295
C37   C     C_R   0.548503 0.029849 0.486747 -0.030828
C38   C     C_R   0.611106 0.139181 0.492854 0.117252
C39   C     C_R   0.853035 0.114516 0.562444 0.029449
C40   C     C_R   0.789984 0.007073 0.559685 -0.214663
H39   H     H_    0.325673 0.035748 0.422433 0.208632
H40   H     H_    0.861305 0.959136 0.585976 0.195317
N5    N     N_R   0.229956 0.962673 0.615782 0.241761
O25   O     O_R   0.369963 0.026088 0.623811 -0.414541
O26   O     O_R   0.147201 0.942042 0.553945 -0.404796
N6    N     N_2   0.792353 0.195783 0.247243 -0.159758
H41   H     H_    0.682915 0.144049 0.238986 0.166684
C41   C     C_3   0.904063 0.173151 0.192890 -0.732839
H42   H     H_    0.953516 0.101450 0.201026 0.296639
H43   H     H_    0.837836 0.160069 0.138797 0.247441
H44   H     H_    0.005460 0.240316 0.194105 0.231911
N7    N     N_R   0.678570 0.703422 0.750675 0.233802
O27   O     O_R   0.569247 0.649699 0.784748 -0.351339
O28   O     O_R   0.829769 0.724316 0.777668 -0.377627
N8    N     N_R   0.552162 0.874467 0.802680 0.279407
O29   O     O_R   0.646593 0.913825 0.860456 -0.315602
O30   O     O_R   0.402253 0.830400 0.809110 -0.329455
N9    N     N_R   0.294627 0.115090 0.222994 0.272810
O31   O     O_R   0.265360 0.068952 0.156904 -0.391969
O32   O     O_R   0.235019 0.066486 0.274685 -0.380647
N10   N     N_R   0.701123 0.852474 0.147160 0.283847
O33   O     O_R   0.817099 0.908534 0.117779 -0.368909
O34   O     O_R   0.604892 0.775167 0.107465 -0.339991
N11   N     N_2   0.042412 0.221382 0.862797 -0.113889
H45   H     H_    0.916373 0.208847 0.859703 0.192993
C42   C     C_3   0.112405 0.215538 0.933861 -0.765224
H46   H     H_    0.090659 0.133155 0.945170 0.270795
H47   H     H_    0.054408 0.263791 0.974767 0.234753
H48   H     H_    0.246048 0.246405 0.938301 0.249764
N12   N     N_R   0.828574 0.285995 0.530802 0.248039
O35   O     O_R   0.916855 0.313000 0.479130 -0.353317
O36   O     O_R   0.822494 0.353846 0.586696 -0.435108
N13   N     N_R   0.371489 0.704103 0.456790 0.246501
O37   O     O_R   0.365465 0.660213 0.390717 -0.454888
O38   O     O_R   0.285774 0.655848 0.502195 -0.361167
N14   N     N_2   0.064745 0.731776 0.151237 -0.093980
H49   H     H_    0.960714 0.750364 0.173409 0.249054
C43   C     C_3   0.061348 0.736865 0.074748 -0.609608
H50   H     H_    0.946089 0.689044 0.047900 0.245092
H51   H     H_    0.166359 0.705597 0.051173 0.234623
H52   H     H_    0.067243 0.819203 0.064503 0.280036

loop_
_geom_bond_atom_site_label_1
_geom_bond_atom_site_label_2
_geom_bond_distance
_ccdc_geom_bond_type
C6    C7    1.531694 S    
C19   C20   1.361144 D    
P7    O22   1.752241 S    
C14   N11   1.449353 S    
P1    C22   1.851212 S    
C4    O15   1.375390 S    
C21   H34   1.084325 S    
C2    C3    1.529710 S    
P4    O12   1.535949 D    
C35   C36   1.437268 A    
N7    O27   1.299517 A    
P3    C34   1.867949 S    
C27   C28   1.408427 A    
C33   H39   1.079660 S    
C10   H17   1.112334 S    
P8    C27   1.852937 S    
N10   O34   1.300978 A    
P5    O18   1.533571 D    
C5    H8    1.108060 S    
P5    C39   1.857969 S    
O3    P6    1.761584 S    
O1    Ba1   2.809925 S    
O7    Ba1   2.930021 S    
C8    H14   1.099007 S    
N11   C42   1.445911 S    
O6    P6    1.749285 S    
C2    H3    1.111469 S    
N13   O38   1.296957 A    
O16   P7    1.794578 S    
C6    H10   1.099503 S    
C3    H23   1.109918 S    
C25   C29   1.426251 A    
C11   H20   1.109634 S    
P4    C26   1.867046 S    
C39   C40   1.407827 A    
N1    C23   1.361956 A    
C12   H22   1.107612 S    
P1    O1    1.535611 D    
C3    N14   1.448465 S    
O2    Ba1   2.966478 S    
C19   H33   1.085568 S    
P7    C38   1.872661 S    
C1    N10   1.460919 S    
O17   Ba2   2.790523 S    
C6    N6    1.456642 S    
C40   H40   1.077705 S    
C15   O24   1.398758 S    
P3    O11   1.751155 S    
C4    H6    1.105484 S    
N14   C43   1.446194 S    
O4    P6    1.551053 D    
C14   H26   1.112791 S    
C1    H18   1.109441 S    
C1    H2    1.101162 S    
C23   C29   1.515043 S    
C43   H51   1.110054 S    
O3    Ba1   2.812147 S    
C33   C37   1.409288 A    
O12   Ba2   2.810276 S    
C15   C16   1.513364 S    
C3    H5    1.110895 S    
Ba1   O13   2.776525 S    
P4    O13   1.542549 S    
C42   H48   1.111006 S    
C8    N7    1.462816 S    
C17   H37   1.085055 S    
C36   C37   1.442496 A    
C25   H35   1.081590 S    
N12   O36   1.291953 A    
N5    O26   1.293394 A    
P5    O17   1.741985 S    
C15   H28   1.106873 S    
N12   O35   1.295060 A    
P7    O21   1.563053 D    
P2    C35   1.903996 S    
C13   H24   1.114280 S    
C7    H13   1.106160 S    
N11   H45   1.029472 S    
C43   H52   1.110856 S    
C16   H32   1.110940 S    
N3    N4    1.339142 A    
C31   N12   1.417612 S    
O2    Ba2   2.777133 S    
C18   C19   1.528268 S    
C11   C12   1.537091 S    
O16   Ba2   2.935952 S    
C17   C18   1.505464 S    
H30   C16   1.105338 S    
C12   H21   1.107904 S    
P1    O2    1.542545 S    
C7    H12   1.109821 S    
C4    C5    1.512348 S    
C31   C38   1.389349 A    
P2    O10   1.758533 S    
N1    N2    1.339716 A    
P3    O9    1.550399 D    
N5    O25   1.300410 A    
P1    Ba1   3.407796 S    
O11   C2    1.405967 S    
N2    C24   1.364934 A    
C5    N5    1.433613 S    
C31   C39   1.395150 A    
C43   H50   1.110266 S    
C41   H44   1.107737 S    
O14   Ba2   2.811583 S    
O5    C6    1.395345 S    
Ba1   O16   2.840476 S    
P8    O23   1.540855 D    
C42   H47   1.109529 S    
C1    C10   1.530609 S    
O6    C10   1.401231 S    
O8    Ba1   2.790038 S    
N6    C41   1.447715 S    
N8    O29   1.301768 A    
C21   C22   1.334495 D    
C12   N9    1.463592 S    
C36   C40   1.415669 A    
C27   C30   1.389220 A    
C41   H43   1.110352 S    
C37   C38   1.424453 A    
O19   C13   1.401461 S    
P4    O15   1.733223 S    
P1    O5    1.756808 S    
C5    H9    1.111485 S    
Ba2   O21   2.930367 S    
Ba2   O20   2.839910 S    
C11   O22   1.397685 S    
C16   H31   1.109251 S    
N8    O30   1.300060 A    
N7    O28   1.301952 A    
H1    C10   1.104939 S    
N9    O32   1.301691 A    
C17   C22   1.320618 D    
N9    O31   1.300455 A    
Ba1   O20   2.936800 S    
N10   O33   1.300609 A    
P5    O19   1.747816 S    
C30   H38   1.081026 S    
C32   C35   1.406295 A    
C13   C14   1.529341 S    
C7    H11   1.107846 S    
C8    C9    1.533945 S    
P3    O8    1.744402 S    
N13   O37   1.292862 A    
C9    N8    1.465208 S    
N3    C24   1.361311 A    
C9    H16   1.113144 S    
P2    O7    1.509270 D    
O13   Ba2   2.967321 S    
C11   H19   1.105131 S    
C9    H15   1.107261 S    
C28   H36   1.082625 S    
C26   C30   1.388984 A    
P6    C18   1.873455 S    
N4    C23   1.364280 A    
C32   C34   1.403597 A    
C2    H4    1.110782 S    
C4    H7    1.103239 S    
O14   P8    1.757783 S    
Ba1   Ba2   4.634228 S    
C32   N13   1.417190 S    
C20   C21   1.509888 S    
P2    Ba1   3.475362 S    
C28   C29   1.417487 A    
C15   H29   1.111014 S    
C25   C26   1.421224 A    
C20   C24   1.517849 S    
P8    O24   1.740932 S    
C42   H46   1.111319 S    
C14   H27   1.108981 S    
N14   H49   1.028156 S    
C13   H25   1.109420 S    
N6    H41   1.030329 S    
C33   C34   1.390908 A    
P4    Ba2   3.408369 S    
O10   C8    1.398043 S    
P2    O20   1.607144 S    
C41   H42   1.108225 S    
