data_mof_unit_5463.cif
_audit_creation_date              2012-12-10T16:56:32-0500
_audit_creation_method            fapswitch 2.2
_symmetry_space_group_name_H-M    P1
_symmetry_Int_Tables_number       1
_space_group_crystal_system       triclinic
_cell_length_a                    7.771365
_cell_length_b                    8.572117
_cell_length_c                    15.706013
_cell_angle_alpha                 90.804181
_cell_angle_beta                  85.880816
_cell_angle_gamma                 93.65977
_cell_volume                      1041.41033203

loop_
_atom_site_label
_atom_site_type_symbol
_atom_type_description
_atom_site_fract_x
_atom_site_fract_y
_atom_site_fract_z
_atom_type_partial_charge
C1    C     C_R   0.545791 0.794732 0.497802 0.962876
C2    C     C_R   0.454209 0.205268 0.502198 0.962876
C3    C     C_R   0.502137 0.499869 0.661951 0.899466
C4    C     C_R   0.497863 0.500130 0.338049 0.899467
C5    C     C_2   0.569883 0.958238 0.496550 -0.371012
C6    C     C_2   0.430117 0.041761 0.503449 -0.371012
C7    C     C_3   0.429986 0.627453 0.029968 0.643495
C8    C     C_3   0.570014 0.372547 0.970032 0.643495
C9    C     C_3   0.595951 0.628223 0.970141 -0.325181
C10   C     C_3   0.404049 0.371777 0.029859 -0.325181
C11   C     C_1   0.506293 0.499324 0.750714 -0.168103
C12   C     C_1   0.493707 0.500676 0.249286 -0.168103
C13   C     C_3   0.335790 0.502097 0.975963 -0.321245
C14   C     C_3   0.664210 0.497903 0.024037 -0.321245
C15   C     C_3   0.503162 0.500403 0.917000 0.058707
C16   C     C_3   0.496837 0.499597 0.083000 0.058706
C17   C     C_1   0.506502 0.499401 0.826031 0.014886
C18   C     C_1   0.493498 0.500599 0.173969 0.014887
H1    H     H_    0.671862 0.732850 0.943734 0.154975
H2    H     H_    0.328138 0.267150 0.056266 0.154975
H3    H     H_    0.796753 0.494844 0.045795 0.162725
H4    H     H_    0.203247 0.505156 0.954205 0.162725
H5    H     H_    0.701871 0.009340 0.489972 0.181592
H6    H     H_    0.298129 0.990660 0.510028 0.181592
H7    H     H_    0.013408 0.382036 0.436445 0.193918
H8    H     H_    0.986592 0.617964 0.563555 0.193918
N1    N     N_2   0.950320 0.457950 0.477300 -0.170356
N2    N     N_2   0.049680 0.542050 0.522700 -0.170356
O1    O     O_R   0.389250 0.738570 0.505570 -0.612896
O2    O     O_R   0.610750 0.261430 0.494430 -0.612896
O3    O     O_R   0.678390 0.711630 0.491020 -0.630151
O4    O     O_R   0.321610 0.288370 0.508980 -0.630151
O5    O     O_R   0.355460 0.513480 0.630490 -0.611846
O6    O     O_R   0.644540 0.486520 0.369510 -0.611846
O7    O     O_R   0.644600 0.486540 0.615950 -0.617568
O8    O     O_R   0.355400 0.513460 0.384050 -0.617568
Zn1   Zn    Zn3+2 0.306940 0.517990 0.509710 0.956032
Zn2   Zn    Zn3+2 0.693060 0.482010 0.490290 0.956032
O9    O     O_3   0.358252 0.760214 0.068779 -0.605997
C19   C     C_3   0.299111 0.854049 0.005420 -0.326587
H9    H     H_    0.189871 0.792906 0.973937 0.164280
H10   H     H_    0.405054 0.891199 0.957155 0.176478
H11   H     H_    0.250488 0.961411 0.036278 0.191512
O10   O     O_3   0.641748 0.239786 0.931221 -0.605997
C20   C     C_3   0.700889 0.145951 0.994580 -0.326587
H12   H     H_    0.594947 0.108801 0.042845 0.176477
H13   H     H_    0.810129 0.207094 0.026062 0.164280
H14   H     H_    0.749511 0.038589 0.963722 0.191512

loop_
_geom_bond_atom_site_label_1
_geom_bond_atom_site_label_2
_ccdc_geom_bond_type
C7    C13   S    
C9    C14   S    
C4    O8    A    
H7    N1    S    
H8    N2    S    
C5    H5    S    
O3    Zn2   S    
C3    O7    A    
O5    Zn1   S    
C2    O2    A    
C6    H6    S    
C19   H11   S    
C19   H10   S    
C9    C15   S    
C16   C18   S    
C10   C16   S    
C20   H12   S    
C2    C6    S    
N2    Zn1   S    
C1    C5    S    
C14   H3    S    
C1    O1    A    
O8    Zn1   S    
O6    Zn2   S    
C13   H4    S    
C8    C15   S    
C14   C16   S    
C20   H13   S    
C13   C15   S    
C5    C6    D    
C4    O6    A    
C4    C12   S    
C3    O5    A    
N1    Zn2   S    
O1    Zn1   S    
C7    C9    S    
C1    O3    A    
O7    Zn2   S    
C3    C11   S    
O10   C20   S    
O2    Zn2   S    
C2    O4    A    
C20   H14   S    
C12   C18   T    
O9    C19   S    
C15   C17   S    
C7    O9    S    
C19   H9    S    
C8    C14   S    
O4    Zn1   S    
C9    H1    S    
C8    C10   S    
C7    C16   S    
C8    O10   S    
C10   H2    S    
N1    N2    D    
C10   C13   S    
C11   C17   T    
