data_mof_unit_45345.cif
_audit_creation_date              2012-12-10T17:21:19-0500
_audit_creation_method            fapswitch 2.2
_symmetry_space_group_name_H-M    P1
_symmetry_Int_Tables_number       1
_space_group_crystal_system       triclinic
_cell_length_a                    9.615958
_cell_length_b                    10.795977
_cell_length_c                    13.878835
_cell_angle_alpha                 92.186321
_cell_angle_beta                  84.851934
_cell_angle_gamma                 90.170741
_cell_volume                      1433.95589471

loop_
_atom_site_label
_atom_site_type_symbol
_atom_type_description
_atom_site_fract_x
_atom_site_fract_y
_atom_site_fract_z
_atom_type_partial_charge
C1    C     C_R   0.500378 0.737353 0.499607 0.876090
C2    C     C_1   0.463718 0.500600 0.786071 -0.168920
C3    C     C_R   0.358190 0.876184 0.661621 -0.156085
C4    C     C_R   0.286952 0.943082 0.738541 -0.128986
C5    C     C_R   0.284302 0.071863 0.739120 -0.131479
C6    C     C_R   0.353317 0.134512 0.662947 -0.150380
C7    C     C_R   0.425084 0.068523 0.583707 0.106694
C8    C     C_R   0.427131 0.937569 0.582479 0.042000
C9    C     C_R   0.500789 0.871828 0.503368 -0.228290
C10   C     C_R   0.575563 0.935819 0.428271 0.391042
C11   C     C_R   0.574870 0.064148 0.432061 -0.295869
C12   C     C_R   0.477331 0.500397 0.682829 0.780777
C13   C     C_R   0.498756 0.129875 0.507059 -0.140018
C14   C     C_R   0.872171 0.334985 0.372285 -0.133819
C15   C     C_R   0.951860 0.253389 0.310606 -0.176338
C16   C     C_R   0.095085 0.253006 0.310819 -0.190389
C17   C     C_R   0.159549 0.334249 0.372686 -0.134845
C18   C     C_R   0.082530 0.418539 0.437512 0.210814
C19   C     C_R   0.933084 0.418748 0.437412 0.218260
C20   C     C_R   0.918765 0.577563 0.559358 -0.020429
C21   C     C_R   0.066531 0.577546 0.559331 -0.043259
C22   C     C_R   0.499467 0.263150 0.502758 0.774311
C23   C     C_R   0.522637 0.497642 0.317155 0.849833
C24   C     C_1   0.536114 0.494461 0.213844 -0.097928
C25   C     C_2   0.557077 0.490236 0.023124 -0.148874
C26   C     C_2   0.442409 0.501378 0.976739 -0.157494
C27   C     C_1   0.453041 0.500880 0.872991 0.008587
C28   C     C_1   0.546618 0.492223 0.126893 0.034262
Cu1   Cu    Cu3+1 0.359340 0.500010 0.500010 0.949083
Cu2   Cu    Cu3+1 0.640660 0.499990 0.499990 0.986218
H1    H     H_    0.340148 0.511561 0.016406 0.163454
H2    H     H_    0.763541 0.328210 0.365283 0.183273
H3    H     H_    0.901810 0.190277 0.261954 0.186014
H4    H     H_    0.157122 0.189574 0.262321 0.161624
H5    H     H_    0.269929 0.326762 0.366038 0.191015
H6    H     H_    0.115508 0.641221 0.608006 0.135127
H7    H     H_    0.659366 0.480255 0.983471 0.161246
H8    H     H_    0.359972 0.776468 0.665930 0.129386
H9    H     H_    0.234638 0.894749 0.798395 0.139672
H10   H     H_    0.229885 0.123527 0.799375 0.140202
H11   H     H_    0.351368 0.234674 0.667640 0.144177
H12   H     H_    0.630984 0.114273 0.374614 0.164254
H13   H     H_    0.857682 0.641248 0.608049 0.136054
N1    N     N_R   0.852210 0.498790 0.499090 -0.194682
N2    N     N_R   0.148080 0.498710 0.499060 -0.199399
O1    O     O_R   0.381190 0.680360 0.500010 -0.576089
O2    O     O_R   0.618760 0.680340 0.500000 -0.535826
O3    O     O_R   0.364420 0.499990 0.637850 -0.589603
O4    O     O_R   0.601990 0.499960 0.637840 -0.575656
O5    O     O_R   0.381240 0.319660 0.500000 -0.605192
O6    O     O_R   0.618810 0.319640 0.499990 -0.596180
O7    O     O_R   0.398010 0.500040 0.362160 -0.591478
O8    O     O_R   0.635580 0.500010 0.362150 -0.563667
S1    S     S_3+6 0.663786 0.859472 0.325025 0.014978
O9    O     O_2   0.785150 0.787032 0.354570 -0.228145
O10   O     O_2   0.564915 0.772119 0.279221 -0.324653
O11   O     O_3   0.724533 0.961937 0.243065 -0.535251
H14   H     H_    0.641109 0.989798 0.212836 0.340772

loop_
_geom_bond_atom_site_label_1
_geom_bond_atom_site_label_2
_ccdc_geom_bond_type
C23   C24   S    
Cu1   Cu2   S    
C9    C10   A    
C4    H9    S    
C12   O3    A    
Cu1   O1    S    
C22   O5    A    
C25   C26   D    
C2    C12   S    
S1    O11   S    
C12   O4    A    
C26   C27   S    
C7    C8    A    
C21   H6    S    
C20   C21   A    
C25   C28   S    
C11   C13   A    
Cu2   N1    S    
C23   O7    A    
C2    C27   T    
C4    C5    A    
C20   N1    A    
Cu2   O6    S    
C15   H3    S    
C13   C22   S    
C23   O8    A    
C6    C7    A    
C21   N2    A    
Cu1   O5    S    
C5    C6    A    
C10   S1    S    
Cu2   O8    S    
S1    O10   D    
C1    O1    A    
C22   O6    A    
C10   C11   A    
Cu1   O3    S    
C15   C16   A    
C18   N2    A    
C24   C28   T    
Cu2   O2    S    
C7    C13   A    
C20   H13   S    
C1    C9    S    
C19   N1    A    
C11   H12   S    
C17   C18   A    
C3    C8    A    
C5    H10   S    
Cu1   N2    S    
C18   C19   A    
C14   C15   A    
C16   C17   A    
C17   H5    S    
C16   H4    S    
O11   H14   S    
S1    O9    D    
C26   H1    S    
C14   C19   A    
Cu2   O4    S    
C1    O2    A    
C3    C4    A    
C3    H8    S    
C14   H2    S    
C8    C9    A    
C6    H11   S    
Cu1   O7    S    
C25   H7    S    
