data_mof_unit_33402.cif
_audit_creation_date              2012-12-11T16:31:34-0500
_audit_creation_method            fapswitch 2.2
_symmetry_space_group_name_H-M    P1
_symmetry_Int_Tables_number       1
_space_group_crystal_system       triclinic
_cell_length_a                    6.949351
_cell_length_b                    18.346291
_cell_length_c                    20.1036
_cell_angle_alpha                 68.291277
_cell_angle_beta                  90.421042
_cell_angle_gamma                 90.707123
_cell_volume                      2381.12777964

loop_
_atom_site_label
_atom_site_type_symbol
_atom_type_description
_atom_site_fract_x
_atom_site_fract_y
_atom_site_fract_z
_atom_type_partial_charge
O1    O     O_R   0.488990 0.443920 0.942160 -0.538605
O2    O     O_R   0.823840 0.406530 0.087600 -0.537386
O3    O     O_R   0.999650 0.556080 0.057840 -0.537815
C1    C     C_R   0.655012 0.384055 0.115350 0.700524
O4    O     O_R   0.818390 0.434590 0.944530 -0.543087
O5    O     O_R   0.994160 0.584350 0.913750 -0.537174
C2    C     C_R   0.649018 0.420681 0.923935 0.717708
O6    O     O_R   0.494480 0.415650 0.086250 -0.532782
O7    O     O_3   0.662600 0.549100 0.990070 -0.367127
V1    V     V_3+5 0.935320 0.490890 0.001840 1.421702
O8    O     O_R   0.324240 0.593470 0.912400 -0.541140
C3    C     C_R   0.156093 0.614240 0.883365 0.711736
O9    O     O_R   0.329690 0.565410 0.055470 -0.535623
C4    C     C_R   0.161906 0.578913 0.076403 0.729685
V2    V     V_3+5 0.435990 0.509110 0.998160 1.425543
O10   O     O_3   0.158840 0.450900 0.009930 -0.366858
C5    C     C_3   0.090672 0.643948 0.292733 0.030340
C6    C     C_3   0.337740 0.740570 0.216808 -0.337156
C7    C     C_3   0.326297 0.790121 0.264707 -0.385514
H1    H     H_    0.379672 0.779336 0.161575 0.145141
H2    H     H_    0.452763 0.696131 0.237314 0.174982
H3    H     H_    0.443710 0.773972 0.305112 0.148787
H4    H     H_    0.353328 0.852474 0.230696 0.161757
C8    C     C_1   0.111645 0.871854 0.380972 -0.199411
C9    C     C_3   0.141830 0.699952 0.214884 0.204731
C10   C     C_3   0.081542 0.691229 0.345250 0.314436
C11   C     C_3   0.124837 0.781630 0.300437 0.273186
C12   C     C_3   0.978567 0.813113 0.237570 -0.373440
C13   C     C_3   0.984819 0.764030 0.189210 -0.393117
C14   C     C_1   0.117668 0.831407 0.344866 -0.075573
C15   C     C_1   0.149457 0.657306 0.164533 -0.032104
C16   C     C_1   0.155326 0.622217 0.123815 -0.166502
H5    H     H_    0.841303 0.736254 0.189575 0.146927
H6    H     H_    0.013924 0.803762 0.133009 0.158951
H7    H     H_    0.830053 0.813728 0.257354 0.150180
H8    H     H_    0.946104 0.618419 0.289780 0.115662
H9    H     H_    0.013943 0.875387 0.204594 0.156942
H10   H     H_    0.069313 0.530931 0.669041 0.109941
C17   C     C_R   0.195770 0.771497 0.878003 -0.128567
C18   C     C_R   0.215054 0.847160 0.878047 -0.124803
C19   C     C_R   0.204629 0.911587 0.814214 -0.123350
C20   C     C_R   0.173783 0.900778 0.749955 -0.139126
C21   C     C_R   0.153779 0.824554 0.748234 0.064932
C22   C     C_R   0.166126 0.758410 0.813383 0.064647
C23   C     C_R   0.118552 0.813990 0.683071 -0.170906
C24   C     C_R   0.097983 0.737198 0.682506 0.043566
C25   C     C_R   0.121449 0.669423 0.746930 0.048841
C26   C     C_R   0.149034 0.681063 0.813328 -0.174809
C27   C     C_R   0.057581 0.727318 0.617302 -0.138155
C28   C     C_R   0.042911 0.653504 0.613955 -0.171537
C29   C     C_R   0.075277 0.587526 0.674483 -0.097366
C30   C     C_R   0.119207 0.593492 0.740618 0.144242
H11   H     H_    0.204781 0.723642 0.929326 0.093214
H12   H     H_    0.238151 0.855790 0.927958 0.106551
H13   H     H_    0.219610 0.970297 0.814477 0.105472
H14   H     H_    0.164819 0.952902 0.701809 0.100623
H15   H     H_    0.036611 0.776693 0.567682 0.104754
H16   H     H_    0.010865 0.647465 0.563426 0.127073
H17   H     H_    0.840495 0.465341 0.313591 0.145346
C31   C     C_R   0.531664 0.230767 0.121352 -0.183106
C32   C     C_R   0.471926 0.157724 0.122194 -0.119841
C33   C     C_R   0.461161 0.093424 0.186724 0.228424
C34   C     C_R   0.509971 0.102730 0.250741 -0.155167
C35   C     C_R   0.570054 0.176383 0.251453 0.026353
C36   C     C_R   0.581445 0.241643 0.185409 0.070022
C37   C     C_R   0.621137 0.185313 0.316493 -0.166176
C38   C     C_R   0.682712 0.259725 0.315403 0.071936
C39   C     C_R   0.694070 0.325035 0.249271 0.059289
C40   C     C_R   0.644239 0.315864 0.184255 -0.166189
C41   C     C_R   0.730571 0.270940 0.379520 -0.139439
C42   C     C_R   0.787475 0.344462 0.378514 -0.090583
C43   C     C_R   0.797804 0.408237 0.314022 -0.057174
C44   C     C_R   0.752184 0.398955 0.249988 -0.129200
H18   H     H_    0.539434 0.278388 0.069787 0.108752
H19   H     H_    0.435367 0.151383 0.072123 0.110487
H20   H     H_    0.501423 0.051461 0.299733 0.114336
H21   H     H_    0.723007 0.223317 0.431095 0.097242
H22   H     H_    0.822802 0.352058 0.428110 0.123122
H23   H     H_    0.761487 0.450465 0.201278 0.108509
O11   O     O_R   0.770890 0.084490 0.414040 -0.536092
O12   O     O_R   0.445980 0.065450 0.555510 -0.538918
O13   O     O_R   0.270670 0.915620 0.586180 -0.535284
C45   C     C_R   0.615150 0.079758 0.575962 0.725395
O14   O     O_R   0.441480 0.093500 0.412450 -0.536942
O15   O     O_R   0.266140 0.943870 0.442100 -0.536164
C46   C     C_R   0.610565 0.116817 0.385316 0.693660
O16   O     O_R   0.775410 0.056240 0.558120 -0.537297
O17   O     O_3   0.602660 0.950990 0.510100 -0.367259
V3    V     V_3+5 0.329740 0.009100 0.498130 1.429885
O18   O     O_R   0.936120 0.934420 0.444240 -0.539697
C47   C     C_R   0.104230 0.919899 0.424299 0.723125
O19   O     O_R   0.940610 0.906370 0.587310 -0.539076
C48   C     C_R   0.109188 0.883530 0.614928 0.695215
V4    V     V_3+5 0.829110 0.990690 0.501470 1.426090
O20   O     O_3   0.106080 0.049010 0.489880 -0.366864
C49   C     C_3   0.834526 0.230395 0.721446 -0.399750
C50   C     C_3   0.521693 0.292097 0.669027 0.043639
C51   C     C_3   0.523816 0.339093 0.720128 -0.320398
H24   H     H_    0.917793 0.333265 0.746355 0.141866
H25   H     H_    0.905272 0.266065 0.670110 0.148460
H26   H     H_    0.603486 0.327056 0.619859 0.131276
H27   H     H_    0.596406 0.396845 0.692791 0.124492
H28   H     H_    0.374994 0.351893 0.732616 0.147641
C52   C     C_1   0.639253 0.375598 0.878063 -0.186927
C53   C     C_3   0.625390 0.211488 0.705506 0.286866
C54   C     C_3   0.838151 0.276896 0.772371 -0.340905
C55   C     C_3   0.630677 0.293115 0.791030 0.262246
C56   C     C_3   0.525435 0.213214 0.827306 -0.334125
C57   C     C_3   0.529186 0.164211 0.778637 -0.319699
C58   C     C_1   0.634379 0.338391 0.839095 -0.088725
C59   C     C_1   0.626426 0.164548 0.658702 -0.085430
C60   C     C_1   0.623969 0.126051 0.620822 -0.190522
H29   H     H_    0.610998 0.109389 0.806215 0.138280
H30   H     H_    0.380707 0.145549 0.770905 0.136592
H31   H     H_    0.595049 0.179506 0.879540 0.139030
H32   H     H_    0.917588 0.175300 0.745942 0.150404
H33   H     H_    0.917564 0.242749 0.822265 0.146759
H34   H     H_    0.373488 0.223186 0.838610 0.138203
C61   C     C_3   0.226489 0.659302 0.408506 -0.711162
H35   H     H_    0.226161 0.695326 0.442358 0.193315
H36   H     H_    0.187483 0.598470 0.444010 0.227936
H37   H     H_    0.375633 0.658347 0.389727 0.217515
C62   C     C_3   0.878042 0.679690 0.379476 -0.806714
H38   H     H_    0.762338 0.695503 0.338468 0.194466
H39   H     H_    0.853421 0.617100 0.413889 0.224569
H40   H     H_    0.861106 0.715225 0.413338 0.214021
I1    I     I_    0.267363 0.538673 0.327857 -0.536122
C63   C     C_3   0.175843 0.517740 0.799623 -0.770866
H41   H     H_    0.187688 0.468427 0.780401 0.183769
H42   H     H_    0.319967 0.524666 0.820540 0.212959
H43   H     H_    0.066133 0.499419 0.842317 0.220293
C64   C     C_3   0.400700 0.014218 0.188078 -0.842594
H44   H     H_    0.365300 0.015603 0.133652 0.205097
H45   H     H_    0.520077 0.972397 0.210239 0.206080
H46   H     H_    0.271657 0.993364 0.222471 0.214099
C65   C     C_3   0.315951 0.283736 0.644276 -0.823681
H47   H     H_    0.251537 0.342615 0.617665 0.214847
H48   H     H_    0.314893 0.253917 0.605258 0.224086
H49   H     H_    0.226219 0.249746 0.690812 0.218345

loop_
_geom_bond_atom_site_label_1
_geom_bond_atom_site_label_2
_ccdc_geom_bond_type
C9    C15   S    
C45   O16   A    
C49   C53   S    
C8    C47   S    
C20   C21   A    
C6    H2    S    
C19   C20   A    
O2    C1    A    
C59   C60   T    
C1    O6    A    
C23   C48   S    
C63   H41   S    
C50   C51   S    
O15   C47   A    
C62   H38   S    
C23   C24   A    
C32   H19   S    
C24   C27   A    
C10   C11   S    
O13   V3    S    
C5    C10   S    
C56   H31   S    
C12   C13   S    
O14   C46   A    
O5    C3    A    
C62   H39   S    
C34   H20   S    
C51   H28   S    
O16   V4    S    
C13   H5    S    
C27   H15   S    
C56   C57   S    
C6    C7    S    
C19   H13   S    
O11   C46   A    
C20   H14   S    
C39   C40   A    
O8    V2    S    
C25   C26   A    
C12   H7    S    
C64   H44   S    
C55   C56   S    
C41   C42   A    
O1    V2    S    
C5    H8    S    
C7    C11   S    
O7    V1    S    
C3    C26   S    
H17   C43   S    
O12   V3    S    
C37   C38   A    
C53   C59   S    
O13   C48   A    
O9    C4    A    
C41   H21   S    
C9    C13   S    
C32   C33   A    
C6    C9    S    
C65   H49   S    
C1    C40   S    
O12   C45   A    
O18   V4    S    
C61   H36   S    
C30   C63   S    
O17   V4    S    
C49   C54   S    
C38   C39   A    
C28   H16   S    
C33   C64   S    
C7    H3    S    
C10   C61   S    
C65   H48   S    
C17   C18   A    
O4    C2    A    
O15   V3    S    
C5    I1    S    
C62   H40   S    
H10   C29   S    
C39   C44   A    
C51   H27   S    
C13   H6    S    
C51   C55   S    
C29   C30   A    
C31   C32   A    
C35   C37   A    
V3    O20   S    
C7    H4    S    
C21   C22   A    
O5    V1    S    
C33   C34   A    
C56   H34   S    
C15   C16   T    
C61   H35   S    
O19   V4    S    
C28   C29   A    
C44   H23   S    
C21   C23   A    
C10   C62   S    
C25   C30   A    
O3    C4    A    
C57   H30   S    
C18   C19   A    
C31   C36   A    
O6    V2    S    
C18   H12   S    
C2    C52   S    
O9    V2    S    
C54   H33   S    
C55   C58   S    
O14   V3    S    
O11   V4    S    
O2    V1    S    
C63   H43   S    
C61   H37   S    
H24   C54   S    
C53   C57   S    
C24   C25   A    
O1    C2    A    
C4    C16   S    
C43   C44   A    
C63   H42   S    
C37   C46   S    
O8    C3    A    
C17   C22   A    
C57   H29   S    
C38   C41   A    
C5    C9    S    
C35   C36   A    
O7    V2    S    
C50   C53   S    
C42   C43   A    
O3    V1    S    
V1    O10   S    
C52   C58   T    
O18   C47   A    
C17   H11   S    
C12   H9    S    
C64   H46   S    
C36   C40   A    
C49   H25   S    
C31   H18   S    
O19   C48   A    
C6    H1    S    
V4    O20   S    
C8    C14   T    
C34   C35   A    
C22   C26   A    
O4    V1    S    
O17   V3    S    
C64   H45   S    
C27   C28   A    
C54   C55   S    
C11   C12   S    
C45   C60   S    
C49   H32   S    
C50   C65   S    
C42   H22   S    
C50   H26   S    
C65   H47   S    
V2    O10   S    
C11   C14   S    
