data_mof_unit_31518.cif
_audit_creation_date              2012-10-26T19:10:51-0400
_audit_creation_method            fapswitch 2.2
_symmetry_space_group_name_H-M    P1
_symmetry_Int_Tables_number       1
_space_group_crystal_system       triclinic
_cell_length_a                    10.763433
_cell_length_b                    9.416052
_cell_length_c                    23.504254
_cell_angle_alpha                 89.825628
_cell_angle_beta                  90.995375
_cell_angle_gamma                 90.122712
_cell_volume                      2381.75800201

loop_
_atom_site_label
_atom_site_type_symbol
_atom_type_description
_atom_site_fract_x
_atom_site_fract_y
_atom_site_fract_z
_atom_type_partial_charge
C1    C     C_R   0.259763 0.499790 0.500383 0.548974
C2    C     C_R   0.608905 0.497847 0.120115 0.451984
C3    C     C_R   0.502298 0.375385 0.238555 -0.092550
C4    C     C_R   0.499858 0.500276 0.390917 0.556005
C5    C     C_R   0.502606 0.373633 0.297790 -0.147663
C6    C     C_R   0.499869 0.501480 0.328261 -0.048350
C7    C     C_R   0.497018 0.631092 0.298441 -0.126940
C8    C     C_R   0.496794 0.633838 0.238899 0.315315
C9    C     C_R   0.499246 0.504478 0.208884 0.222712
C10   C     C_R   0.484806 0.366161 0.760788 0.314564
C11   C     C_R   0.484815 0.369206 0.701270 -0.125625
C12   C     C_R   0.269806 0.503892 0.969115 -0.100306
C13   C     C_R   0.494317 0.498549 0.671667 -0.020255
C14   C     C_R   0.502168 0.626023 0.702282 -0.094769
C15   C     C_R   0.501652 0.624039 0.761498 -0.070911
C16   C     C_R   0.739564 0.500044 0.505896 0.633527
C17   C     C_R   0.493250 0.495082 0.790982 0.220291
C18   C     C_3   0.078226 0.621805 0.541909 -0.211070
C19   C     C_3   0.075765 0.356519 0.528349 -0.209232
C20   C     C_3   0.935526 0.635800 0.538611 0.099552
C21   C     C_3   0.933192 0.358164 0.534879 0.125946
C22   C     C_3   0.064455 0.517665 0.443005 -0.266721
C23   C     C_R   0.270653 0.503904 0.028481 -0.103048
C24   C     C_3   0.122230 0.499237 0.503173 -0.032881
C25   C     C_3   0.878059 0.499992 0.508997 0.022110
C26   C     C_3   0.921508 0.505754 0.445846 -0.321204
C27   C     C_3   0.606210 0.083594 0.535042 -0.082007
C28   C     C_3   0.606771 0.916078 0.534475 -0.080644
C29   C     C_3   0.385312 0.083373 0.526248 -0.108436
C30   C     C_3   0.385627 0.915901 0.526542 -0.109858
C31   C     C_3   0.509041 0.083958 0.442900 -0.105274
C32   C     C_3   0.508241 0.916813 0.442861 -0.105942
C33   C     C_R   0.496922 0.499731 0.609067 0.622872
C34   C     C_R   0.383613 0.501856 0.059329 0.035627
C35   C     C_R   0.605485 0.496855 0.880860 0.453666
C36   C     C_R   0.383409 0.501058 0.879738 0.447320
C37   C     C_R   0.381896 0.501571 0.939392 0.034134
C38   C     C_R   0.495726 0.499369 0.969911 -0.028316
C39   C     C_R   0.608705 0.497286 0.940533 0.031460
C40   C     C_R   0.496586 0.499575 0.029948 -0.027857
C41   C     C_R   0.610412 0.497228 0.060463 0.033335
C42   C     C_R   0.722504 0.494933 0.030742 -0.108073
C43   C     C_R   0.721662 0.495133 0.971378 -0.105792
C44   C     C_R   0.386843 0.502437 0.119004 0.448060
Cu1   Cu    Cu3+1 0.499860 0.642410 0.500030 0.927531
Cu2   Cu    Cu3+1 0.499860 0.357590 0.500030 0.923353
H1    H     H_    0.181115 0.505519 0.946634 0.181397
H2    H     H_    0.895711 0.268488 0.508970 0.099370
H3    H     H_    0.090669 0.623185 0.425357 0.140248
H4    H     H_    0.100487 0.435097 0.413824 0.142645
H5    H     H_    0.879071 0.597912 0.422975 0.133185
H6    H     H_    0.890182 0.408719 0.422668 0.129074
H7    H     H_    0.602282 0.121288 0.579743 0.172784
H8    H     H_    0.604988 0.875305 0.578891 0.191382
H9    H     H_    0.182593 0.505744 0.050079 0.176365
H10   H     H_    0.695695 0.122187 0.517918 0.144928
H11   H     H_    0.695301 0.879877 0.515829 0.152827
H12   H     H_    0.478021 0.270452 0.677947 0.160126
H13   H     H_    0.374351 0.123411 0.570356 0.132808
H14   H     H_    0.375648 0.876040 0.570835 0.131632
H15   H     H_    0.429864 0.122601 0.416066 0.129775
H16   H     H_    0.428160 0.878986 0.416401 0.130399
H17   H     H_    0.595416 0.122877 0.422636 0.121269
H18   H     H_    0.593726 0.877622 0.422130 0.123460
H19   H     H_    0.302459 0.119870 0.501487 0.120587
H20   H     H_    0.302415 0.878780 0.502206 0.120427
H21   H     H_    0.811193 0.493238 0.053223 0.176836
H22   H     H_    0.809724 0.493375 0.949781 0.180158
H23   H     H_    0.509479 0.727219 0.680546 0.169540
H24   H     H_    0.504232 0.276046 0.215481 0.169843
H25   H     H_    0.504943 0.272224 0.319642 0.149156
H26   H     H_    0.494710 0.730224 0.321579 0.155652
H27   H     H_    0.926258 0.909278 0.580805 0.342383
H28   H     H_    0.730520 0.298893 0.658200 0.379096
H29   H     H_    0.596476 0.895828 0.134962 0.369805
H30   H     H_    0.574099 0.099017 0.865974 0.370368
H31   H     H_    0.508178 0.723040 0.784709 0.172848
H32   H     H_    0.119353 0.725168 0.528901 0.097176
H33   H     H_    0.100793 0.267522 0.499647 0.095544
H34   H     H_    0.112286 0.599786 0.585895 0.190609
H35   H     H_    0.124769 0.335613 0.569596 0.178776
H36   H     H_    0.915513 0.725936 0.509051 0.083214
N1    N     N_R   0.494010 0.496839 0.851932 -0.385571
N2    N     N_R   0.498317 0.502371 0.147930 -0.380027
N3    N     N_3   0.500250 0.143650 0.501250 -0.251133
N4    N     N_3   0.500250 0.856350 0.501250 -0.256271
O1    O     O_R   0.317570 0.620260 0.500030 -0.519389
O2    O     O_2   0.275488 0.504517 0.849679 -0.422895
O3    O     O_2   0.279708 0.503385 0.147982 -0.448488
O4    O     O_2   0.716844 0.494880 0.150170 -0.447997
O5    O     O_2   0.752762 0.628491 0.619034 -0.205393
O6    O     O_2   0.963139 0.674706 0.654723 -0.179678
O7    O     O_3   0.851207 0.873256 0.599933 -0.510311
O8    O     O_2   0.923390 0.159610 0.616451 -0.281433
O9    O     O_2   0.971186 0.397904 0.648978 -0.185943
O10   O     O_3   0.743247 0.338710 0.619688 -0.490002
O11   O     O_2   0.372780 0.810727 0.169480 -0.240870
O12   O     O_R   0.317570 0.379740 0.500030 -0.520611
O13   O     O_2   0.501712 0.919863 0.244434 -0.314229
O14   O     O_3   0.612231 0.809062 0.157878 -0.486172
O15   O     O_2   0.353668 0.194278 0.827647 -0.225979
O16   O     O_2   0.479618 0.080233 0.754977 -0.289318
O17   O     O_3   0.592816 0.185761 0.843745 -0.479537
O18   O     O_R   0.499840 0.620290 0.417900 -0.518452
O19   O     O_R   0.499840 0.379710 0.417900 -0.514943
O20   O     O_R   0.682190 0.620260 0.500010 -0.499580
O21   O     O_R   0.682190 0.379740 0.500010 -0.497252
O22   O     O_R   0.499920 0.620230 0.582140 -0.488960
O23   O     O_R   0.499920 0.379770 0.582140 -0.489608
O24   O     O_2   0.712621 0.495525 0.851883 -0.415903
S1    S     S_3+6 0.874166 0.697707 0.605610 0.058227
S2    S     S_3+6 0.894307 0.313722 0.607233 0.041809
S3    S     S_3+6 0.492725 0.799113 0.202841 0.036629
S4    S     S_3+6 0.474381 0.201016 0.796561 0.058975

loop_
_geom_bond_atom_site_label_1
_geom_bond_atom_site_label_2
_ccdc_geom_bond_type
C1    O1    A    
C31   N3    S    
C20   H36   S    
C41   C42   A    
C31   H15   S    
C2    N2    A    
H27   O7    S    
C7    C8    A    
C28   H11   S    
C36   O2    S    
O10   S2    S    
C12   C23   A    
C29   C30   S    
C34   C40   A    
C5    C6    A    
C36   C37   A    
Cu1   O1    S    
O9    S2    D    
C38   C39   A    
C20   C25   S    
C36   N1    A    
Cu2   O19   S    
C2    O4    S    
O5    S1    D    
C12   C37   A    
C27   N3    S    
C16   O21   A    
C29   H13   S    
C43   H22   S    
C30   H14   S    
C18   C24   S    
C30   N4    S    
C11   H12   S    
C29   N3    S    
C10   S4    S    
Cu1   O22   S    
C16   O20   A    
C22   H4    S    
C21   H2    S    
H30   O17   S    
Cu2   O12   S    
C13   C14   A    
O15   S4    D    
C33   O22   A    
C12   H1    S    
H28   O10   S    
C31   H17   S    
C3    H24   S    
C34   C44   A    
O16   S4    D    
C32   H18   S    
C4    C6    S    
C7    H26   S    
C28   H8    S    
C27   H10   S    
C8    C9    A    
C39   C43   A    
C3    C5    A    
C25   C26   S    
Cu1   Cu2   S    
C17   N1    S    
C35   C39   A    
C13   C33   S    
C37   C38   A    
C3    C9    A    
Cu1   O18   S    
C26   H6    S    
C20   S1    S    
C31   C32   S    
C18   H32   S    
C23   C34   A    
C32   N4    S    
Cu2   O21   S    
O17   S4    S    
C19   H33   S    
C30   H20   S    
C35   O24   S    
C8    S3    S    
O7    S1    S    
C22   H3    S    
C29   H19   S    
C40   C41   A    
C28   N4    S    
C42   H21   S    
C14   H23   S    
C22   C24   S    
C33   O23   A    
C42   C43   A    
O11   S3    D    
C10   C17   A    
C21   S2    S    
Cu1   O20   S    
C16   C25   S    
C15   C17   A    
C21   C25   S    
C35   N1    A    
C19   C21   S    
O14   S3    S    
C44   N2    A    
C1    O12   A    
O13   S3    D    
C27   H7    S    
O6    S1    D    
C23   H9    S    
C6    C7    A    
C4    O19   A    
Cu2   N3    S    
Cu1   N4    S    
C32   H16   S    
C5    H25   S    
C26   H5    S    
C38   C40   A    
C11   C13   A    
C15   H31   S    
C4    O18   A    
O8    S2    D    
H29   O14   S    
C19   C24   S    
C18   C20   S    
C10   C11   A    
C9    N2    S    
C1    C24   S    
C18   H34   S    
C22   C26   S    
Cu2   O23   S    
C27   C28   S    
C14   C15   A    
C2    C41   A    
C19   H35   S    
C44   O3    S    
