data_mof_unit_24953.cif
_audit_creation_date              2012-12-10T20:32:41-0500
_audit_creation_method            fapswitch 2.2
_symmetry_space_group_name_H-M    P1
_symmetry_Int_Tables_number       1
_space_group_crystal_system       triclinic
_cell_length_a                    11.503438
_cell_length_b                    10.666822
_cell_length_c                    9.973586
_cell_angle_alpha                 89.549019
_cell_angle_beta                  87.624403
_cell_angle_gamma                 90.34408
_cell_volume                      1222.69591914

loop_
_atom_site_label
_atom_site_type_symbol
_atom_type_description
_atom_site_fract_x
_atom_site_fract_y
_atom_site_fract_z
_atom_type_partial_charge
C1    C     C_R   0.503648 0.260702 0.499946 0.887276
C2    C     C_R   0.510292 0.128737 0.495286 -0.197586
C3    C     C_R   0.444719 0.067317 0.400315 -0.301875
C4    C     C_R   0.442176 0.937547 0.397089 0.455362
C5    C     C_R   0.501385 0.871597 0.495857 -0.207959
C6    C     C_R   0.577107 0.933557 0.578641 -0.048778
C7    C     C_3   0.586520 0.927714 0.728011 -0.136254
C8    C     C_3   0.606307 0.069933 0.722549 0.284754
C9    C     C_R   0.399755 0.493270 0.078190 0.075115
C10   C     C_R   0.601811 0.505768 0.066145 0.511259
C11   C     C_R   0.600354 0.510895 0.922413 -0.309758
C12   C     C_R   0.282273 0.501953 0.501054 0.897409
C13   C     C_R   0.396397 0.498086 0.937057 0.126689
C14   C     C_3   0.292606 0.404073 0.949976 0.191072
C15   C     C_3   0.315240 0.391566 0.099847 -0.548264
C16   C     C_R   0.497700 0.739383 0.499489 0.930022
C17   C     C_R   0.717809 0.502214 0.497670 0.874560
C18   C     C_1   0.161763 0.505815 0.498965 -0.227525
C19   C     C_1   0.059573 0.507875 0.494435 -0.005525
C20   C     C_1   0.940886 0.508097 0.492214 -0.011692
C21   C     C_1   0.838489 0.506150 0.493135 -0.190985
C22   C     C_R   0.585293 0.061758 0.575193 0.011665
H1    H     H_    0.389346 0.119593 0.334818 0.167114
H2    H     H_    0.243329 0.416597 0.172493 0.210325
H3    H     H_    0.360263 0.304481 0.130724 0.181851
H4    H     H_    0.501813 0.901068 0.778906 0.127424
H5    H     H_    0.540060 0.122098 0.783574 0.050267
H6    H     H_    0.680701 0.520735 0.863571 0.164515
N1    N     N_R   0.499240 0.499140 0.142800 -0.134293
N2    N     N_R   0.499240 0.499180 0.857150 -0.134187
O1    O     O_R   0.500010 0.316790 0.614690 -0.647022
O2    O     O_R   0.500000 0.316760 0.385350 -0.615461
O3    O     O_R   0.334450 0.500030 0.614670 -0.635418
O4    O     O_R   0.334440 0.500000 0.385330 -0.599900
O5    O     O_R   0.500000 0.683240 0.614650 -0.630685
O6    O     O_R   0.499990 0.683210 0.385310 -0.585515
O7    O     O_R   0.665560 0.500000 0.614670 -0.652490
O8    O     O_R   0.665550 0.499970 0.385330 -0.538704
Zn1   Zn    Zn3+2 0.500010 0.500020 0.653130 0.902240
Zn2   Zn    Zn3+2 0.499990 0.499980 0.346870 0.989872
C23   C     C_3   0.309837 0.273208 0.881655 -0.351075
C24   C     C_3   0.229176 0.240012 0.767890 -0.339685
C25   C     C_3   0.244212 0.103472 0.725635 -0.900661
H7    H     H_    0.189905 0.083983 0.638602 0.262557
H8    H     H_    0.336334 0.084387 0.696254 0.262163
H9    H     H_    0.216444 0.039351 0.809417 0.259748
H10   H     H_    0.136706 0.252401 0.800679 0.220476
H11   H     H_    0.249308 0.299635 0.679137 0.242890
H12   H     H_    0.401427 0.265222 0.844470 0.201414
H13   H     H_    0.296082 0.197758 0.958490 0.183601
O9    O     O_3   0.366134 0.876677 0.314885 -0.596939
C26   C     C_3   0.409333 0.885569 0.180397 0.125904
H14   H     H_    0.493497 0.835201 0.168412 0.149369
H15   H     H_    0.421965 0.984801 0.147018 0.111433
C27   C     C_3   0.322585 0.824999 0.089332 -0.831841
H16   H     H_    0.240715 0.879759 0.091140 0.249313
H17   H     H_    0.359548 0.822403 0.984717 0.193615
H18   H     H_    0.302445 0.727881 0.123958 0.267447
C28   C     C_3   0.688721 0.847947 0.775072 -0.273296
C29   C     C_3   0.693223 0.852060 0.928534 -0.369133
C30   C     C_3   0.802044 0.789098 0.978017 -0.838309
H19   H     H_    0.805339 0.690276 0.944806 0.267496
H20   H     H_    0.880967 0.839917 0.938680 0.260824
H21   H     H_    0.800558 0.790524 0.089393 0.265414
H22   H     H_    0.692132 0.950689 0.963698 0.247204
H23   H     H_    0.615426 0.802938 0.973443 0.204152
H24   H     H_    0.675899 0.749148 0.744616 0.207633
H25   H     H_    0.772678 0.880206 0.726914 0.241405
O10   O     O_3   0.723180 0.101765 0.747272 -0.607647
C31   C     C_3   0.741448 0.231672 0.732016 0.171078
H26   H     H_    0.683139 0.284481 0.802788 0.138549
H27   H     H_    0.727190 0.261182 0.626965 0.153050
C32   C     C_3   0.867125 0.262180 0.761642 -0.898096
H28   H     H_    0.927036 0.213048 0.689574 0.266904
H29   H     H_    0.882543 0.364642 0.751535 0.215152
H30   H     H_    0.885961 0.232004 0.865370 0.250638
O11   O     O_3   0.706524 0.506562 0.129972 -0.580094
C33   C     C_3   0.779125 0.409282 0.079855 0.076110
H31   H     H_    0.821842 0.438139 0.982844 0.127501
H32   H     H_    0.729880 0.320018 0.066683 0.132210
C34   C     C_3   0.874967 0.383461 0.176469 -0.787655
H33   H     H_    0.836921 0.344297 0.271980 0.253370
H34   H     H_    0.936433 0.313777 0.132171 0.191363
H35   H     H_    0.923608 0.471245 0.196043 0.261447
C35   C     C_3   0.169676 0.467350 0.945999 -0.416017
C36   C     C_3   0.145595 0.538837 0.818390 -0.315496
C37   C     C_3   0.036135 0.618213 0.833775 -0.924051
H36   H     H_    0.959557 0.557475 0.857756 0.256944
H37   H     H_    0.045623 0.688165 0.914522 0.268365
H38   H     H_    0.021633 0.669142 0.738496 0.267815
H39   H     H_    0.219564 0.602349 0.790659 0.254318
H40   H     H_    0.130938 0.468520 0.741496 0.236436
H41   H     H_    0.100324 0.396010 0.966994 0.197516
H42   H     H_    0.160007 0.537774 0.027685 0.208253

loop_
_geom_bond_atom_site_label_1
_geom_bond_atom_site_label_2
_ccdc_geom_bond_type
C27   H16   S    
C23   C24   S    
C3    H1    S    
C19   C20   S    
C33   C34   S    
C37   H36   S    
C34   H33   S    
C7    C8    S    
C35   C36   S    
C8    O10   S    
O3    Zn1   S    
C7    H4    S    
O4    Zn2   S    
C1    C2    S    
C36   H39   S    
C16   O5    A    
C5    C6    A    
C33   H32   S    
C15   H3    S    
C6    C22   A    
C1    O1    A    
C18   C19   T    
C32   H28   S    
C7    C28   S    
C30   H20   S    
C9    C13   A    
C5    C16   S    
C28   H24   S    
C35   H41   S    
C11   N2    A    
C2    C22   A    
C8    C22   S    
C31   H26   S    
C26   C27   S    
C9    N1    A    
C24   H10   S    
C29   H23   S    
C28   C29   S    
C13   C14   S    
C32   H29   S    
C30   H19   S    
C23   H12   S    
C34   H34   S    
C10   O11   S    
C26   H15   S    
C4    O9    S    
O9    C26   S    
C13   N2    A    
O6    Zn2   S    
C33   H31   S    
C24   H11   S    
O11   C33   S    
C1    O2    A    
C17   C21   S    
C29   C30   S    
C30   H21   S    
O5    Zn1   S    
C25   H7    S    
C28   H25   S    
C35   H42   S    
C31   C32   S    
C17   O7    A    
C25   H8    S    
C14   C23   S    
C15   H2    S    
C29   H22   S    
C27   H17   S    
C32   H30   S    
C37   H38   S    
C24   C25   S    
C12   O4    A    
C3    C4    A    
C23   H13   S    
C34   H35   S    
C26   H14   S    
C36   C37   S    
C14   C35   S    
C4    C5    A    
C6    C7    S    
C37   H37   S    
C2    C3    A    
C9    C15   S    
O7    Zn1   S    
C36   H40   S    
C16   O6    A    
O8    Zn2   S    
C10   N1    A    
C11   H6    S    
N1    Zn2   S    
O1    Zn1   S    
N2    Zn1   S    
C17   O8    A    
O2    Zn2   S    
O10   C31   S    
C25   H9    S    
C10   C11   A    
C20   C21   T    
C27   H18   S    
C12   C18   S    
C8    H5    S    
C14   C15   S    
C31   H27   S    
C12   O3    A    
