data_mof_unit_31129.cif
_audit_creation_date              2012-12-11T16:34:05-0500
_audit_creation_method            fapswitch 2.2
_symmetry_space_group_name_H-M    P1
_symmetry_Int_Tables_number       1
_space_group_crystal_system       triclinic
_cell_length_a                    8.258228
_cell_length_b                    17.452952
_cell_length_c                    27.000153
_cell_angle_alpha                 95.797837
_cell_angle_beta                  92.356484
_cell_angle_gamma                 83.837312
_cell_volume                      3847.46028451

loop_
_atom_site_label
_atom_site_type_symbol
_atom_type_description
_atom_site_fract_x
_atom_site_fract_y
_atom_site_fract_z
_atom_type_partial_charge
Ba1   Ba    Ba6+2 0.856110 0.463800 0.523550 1.721239
Ba2   Ba    Ba6+2 0.333710 0.536130 0.476450 1.724227
C1    C     C_3   0.619295 0.194588 0.659533 -0.372966
C2    C     C_R   0.960625 0.583226 0.182763 0.605438
C3    C     C_2   0.770957 0.562071 0.272852 -0.108666
C4    C     C_3   0.136101 0.288189 0.659795 0.268497
C5    C     C_3   0.743567 0.584178 0.327753 -0.123692
C6    C     C_1   0.982834 0.490762 0.344034 -0.010440
C7    C     C_2   0.021151 0.482578 0.296116 -0.105534
C8    C     C_2   0.910362 0.519493 0.257518 0.220422
C9    C     C_R   0.038327 0.509899 0.103954 -0.090524
C10   C     C_R   0.042697 0.441234 0.127650 -0.022869
C11   C     C_R   0.088721 0.370414 0.099998 -0.051994
C12   C     C_3   0.632282 0.271365 0.638714 0.311152
C13   C     C_R   0.997684 0.581204 0.131890 -0.064057
C14   C     C_2   0.854762 0.536384 0.361563 -0.216712
C15   C     C_2   0.354052 0.483758 0.641785 -0.287414
C16   C     C_3   0.088866 0.266774 0.710253 0.205714
C17   C     C_R   0.177499 0.433746 0.975035 -0.047757
C18   C     C_R   0.077895 0.571472 0.975400 0.053505
C19   C     C_R   0.145535 0.501136 0.949539 0.034902
C20   C     C_R   0.254732 0.366546 0.948800 -0.079791
C21   C     C_R   0.292548 0.363729 0.898590 0.420406
C22   C     C_R   0.259752 0.430650 0.872392 -0.108605
C23   C     C_3   0.498491 0.656502 0.627470 0.296522
C24   C     C_R   0.180616 0.498357 0.897730 -0.124145
C25   C     C_R   0.136395 0.563678 0.871396 -0.014726
C26   C     C_R   0.173612 0.561510 0.820534 0.583753
C27   C     C_R   0.307029 0.432869 0.822333 0.650236
C28   C     C_3   0.206459 0.301494 0.417325 0.410138
C29   C     C_2   0.457645 0.482844 0.730017 -0.057873
C30   C     C_3   0.500825 0.489074 0.676514 -0.066309
C31   C     C_1   0.210570 0.515005 0.657305 0.029734
C32   C     C_2   0.170677 0.514310 0.704604 -0.094292
C33   C     C_2   0.300306 0.496619 0.744120 0.225283
C34   C     C_3   0.472977 0.686962 0.681720 -0.362185
C35   C     C_R   0.129564 0.435411 0.025578 0.048448
C36   C     C_R   0.075878 0.507311 0.052438 -0.001971
C37   C     C_R   0.060993 0.576665 0.028308 0.009458
C38   C     C_R   0.132377 0.367489 0.050353 -0.090194
C39   C     C_R   0.000223 0.649661 0.109054 -0.113062
C40   C     C_3   0.221918 0.213597 0.406010 0.278141
C41   C     C_R   0.022832 0.633224 0.946854 -0.045301
C42   C     C_R   0.052946 0.629711 0.896251 -0.073933
C43   C     C_R   0.035171 0.648570 0.058394 0.368269
C44   C     C_R   0.418918 0.278738 0.524823 0.079346
C45   C     C_3   0.980690 0.729113 0.342590 0.347826
C46   C     C_R   0.555885 0.254891 0.496534 0.045728
C47   C     C_R   0.610491 0.175805 0.488714 -0.257701
C48   C     C_R   0.525385 0.120369 0.507863 -0.012463
C49   C     C_R   0.379090 0.143885 0.533092 0.304508
C50   C     C_R   0.323968 0.224260 0.540660 -0.075148
C51   C     C_R   0.592456 0.835785 0.508246 -0.062227
C52   C     C_3   0.993444 0.698818 0.581561 0.303279
C53   C     C_R   0.644290 0.756202 0.503888 0.050184
C54   C     C_R   0.882373 0.779387 0.460548 -0.012198
C55   C     C_R   0.831051 0.859190 0.464203 -0.079846
C56   C     C_3   0.944727 0.778334 0.299045 0.262769
C57   C     C_R   0.684457 0.887689 0.487839 0.018473
C58   C     C_1   0.631884 0.970140 0.493778 0.027612
C59   C     C_1   0.584887 0.038670 0.499740 0.109482
C60   C     C_R   0.785639 0.728530 0.478772 -0.305736
C61   C     C_3   0.974761 0.786048 0.594966 -0.373496
C62   C     C_3   0.723104 0.343654 0.370999 0.666750
C63   C     C_3   0.782551 0.294150 0.323365 0.202159
C64   C     C_3   0.493544 0.741215 0.331228 0.798516
C65   C     C_3   0.410050 0.801201 0.298681 0.327726
C66   C     C_R   0.999684 0.444786 0.178357 0.594826
H1    H     H_    0.730629 0.262583 0.611123 0.078584
H2    H     H_    0.513971 0.289428 0.620358 0.002318
H3    H     H_    0.587712 0.150770 0.628936 0.078474
H4    H     H_    0.380014 0.640535 0.611012 0.027146
H5    H     H_    0.589624 0.604749 0.625585 0.029147
H6    H     H_    0.389924 0.741570 0.683910 0.142523
H7    H     H_    0.417194 0.644328 0.701569 0.074161
H8    H     H_    0.591592 0.698307 0.700381 0.125501
H9    H     H_    0.522951 0.201506 0.687627 0.145646
H10   H     H_    0.023714 0.668963 0.327864 0.006135
H11   H     H_    0.864404 0.728765 0.361812 -0.085469
H12   H     H_    0.255207 0.197400 0.366519 0.087882
H13   H     H_    0.053975 0.775585 0.275894 0.027006
H14   H     H_    0.846225 0.754808 0.274932 0.117882
H15   H     H_    0.617230 0.725010 0.316333 -0.151252
H16   H     H_    0.081406 0.347935 0.655067 0.081599
H17   H     H_    0.389106 0.773146 0.260395 -0.033643
H18   H     H_    0.136496 0.451271 0.284741 0.124206
H19   H     H_    0.091965 0.316437 0.116799 0.127653
H20   H     H_    0.555192 0.473373 0.757620 0.098994
H21   H     H_    0.288504 0.314237 0.966493 0.104967
H22   H     H_    0.163202 0.310473 0.031806 0.075308
H23   H     H_    0.320017 0.187305 0.430108 -0.088025
H24   H     H_    0.688328 0.589560 0.246053 0.091909
H25   H     H_    0.977716 0.705018 0.131015 0.118717
H26   H     H_    0.270705 0.285964 0.659060 -0.008847
H27   H     H_    0.010005 0.679451 0.876549 0.128375
H28   H     H_    0.044977 0.528257 0.715211 0.122170
H29   H     H_    0.840001 0.549188 0.401378 0.084208
H30   H     H_    0.372891 0.467845 0.602513 0.139404
H31   H     H_    0.484012 0.857316 0.528675 0.085345
H32   H     H_    0.905939 0.898610 0.449762 0.087849
H33   H     H_    0.825951 0.667225 0.476267 0.053087
H34   H     H_    0.873214 0.679250 0.570840 0.004327
H35   H     H_    0.159559 0.211363 0.718271 0.092290
H36   H     H_    0.329645 0.320144 0.423555 -0.097559
H37   H     H_    0.134286 0.317490 0.451340 0.029380
H38   H     H_    0.093194 0.128133 0.407929 0.313538
H39   H     H_    0.886773 0.801506 0.625296 0.137013
H40   H     H_    0.929732 0.816478 0.562320 0.053423
H41   H     H_    0.666729 0.428656 0.330445 0.237689
H42   H     H_    0.737362 0.173820 0.677285 0.131608
H43   H     H_    0.795980 0.188484 0.340556 0.323891
H44   H     H_    0.034464 0.367201 0.746336 0.310560
H45   H     H_    0.076625 0.685004 0.549947 0.060272
H46   H     H_    0.991162 0.880927 0.326428 0.314069
H47   H     H_    0.590649 0.744264 0.397526 0.258233
H48   H     H_    0.448660 0.898140 0.275140 0.305688
H49   H     H_    0.290957 0.825126 0.314478 0.054087
H50   H     H_    0.294506 0.282858 0.844809 0.354334
H51   H     H_    0.948921 0.683998 0.962328 0.144641
H52   H     H_    0.038525 0.761095 0.065222 0.309563
H53   H     H_    0.203103 0.110990 0.569419 0.323205
H54   H     H_    0.716960 0.157365 0.466672 0.138734
H55   H     H_    0.312681 0.375424 0.508768 0.301025
H56   H     H_    0.094478 0.805818 0.607569 0.127554
H57   H     H_    0.957185 0.258197 0.709659 0.091394
H58   H     H_    0.829864 0.363332 0.392656 -0.008547
H59   H     H_    0.860787 0.327382 0.302878 0.052717
H60   H     H_    0.676544 0.280647 0.298324 0.048539
N1    N     N_R   0.957284 0.515442 0.205399 -0.421429
N2    N     N_R   0.258822 0.496723 0.796417 -0.432371
O1    O     O_2   0.910880 0.540430 0.617910 -0.466652
O2    O     O_2   0.222091 0.771872 0.464508 -0.444678
O3    O     O_3   0.103881 0.759297 0.373784 -0.573404
O4    O     O_3   0.142880 0.540370 0.557740 -0.489382
O5    O     O_3   0.562610 0.408580 0.475460 -0.434273
O6    O     O_2   0.365880 0.685750 0.523280 -0.462121
O7    O     O_3   0.556039 0.714661 0.602987 -0.644056
O8    O     O_2   0.433115 0.527348 0.323534 -0.439831
O9    O     O_3   0.401882 0.677186 0.328258 -0.627746
O10   O     O_2   0.998387 0.384908 0.198130 -0.592979
O11   O     O_2   0.392675 0.378345 0.801951 -0.523729
O12   O     O_3   0.635112 0.298543 0.397769 -0.639754
O13   O     O_2   0.932820 0.645790 0.207102 -0.636217
O14   O     O_2   0.133440 0.618259 0.798044 -0.594221
O15   O     O_3   0.675650 0.402220 0.588450 -0.456215
O16   O     O_2   0.836553 0.441970 0.672749 -0.514656
O17   O     O_3   0.056205 0.663737 0.623450 -0.628503
O18   O     O_3   0.667893 0.327016 0.677692 -0.586516
O19   O     O_2   0.823810 0.314230 0.476690 -0.448559
O20   O     O_3   0.086630 0.363340 0.564170 -0.455365
O21   O     O_2   0.989019 0.226730 0.529403 -0.449245
O22   O     O_3   0.074888 0.185221 0.415209 -0.677580
O23   O     O_3   0.077646 0.235184 0.622571 -0.652477
O24   O     O_3   0.619096 0.407940 0.358746 -0.711888
O25   O     O_3   0.874551 0.225752 0.334955 -0.670247
O26   O     O_3   0.123316 0.324345 0.747938 -0.717978
O27   O     O_3   0.891966 0.855051 0.316374 -0.669951
O28   O     O_3   0.501552 0.775013 0.380513 -0.678995
O29   O     O_3   0.508585 0.861300 0.296818 -0.677640
O30   O     O_3   0.357826 0.293364 0.876291 -0.680913
O31   O     O_3   0.059096 0.716952 0.039345 -0.738819
O32   O     O_3   0.294343 0.087035 0.548743 -0.722614
O33   O     O_3   0.377867 0.356145 0.537388 -0.725096
O34   O     O_2   0.278810 0.459550 0.382060 -0.394836
O35   O     O_3   0.046820 0.459570 0.442260 -0.514203
O36   O     O_3   0.514050 0.597710 0.411540 -0.436364
O37   O     O_3   0.131570 0.335959 0.376535 -0.627074
O38   O     O_3   0.627090 0.591350 0.524530 -0.477081
O39   O     O_3   0.103080 0.636600 0.435820 -0.485566
P1    P     P_3+3 0.078810 0.562990 0.610370 0.996761
P2    P     P_3+3 0.645380 0.325580 0.462150 1.078123
P3    P     P_3+3 0.120331 0.262169 0.564237 0.977214
P4    P     P_3+3 0.110900 0.436950 0.389630 1.005009
P5    P     P_3+3 0.078604 0.737665 0.434595 1.020456
P6    P     P_3+3 0.669863 0.416529 0.653671 0.984733
P7    P     P_3+3 0.550219 0.688466 0.538743 0.955649
P8    P     P_3+3 0.524343 0.595795 0.346700 1.001821

loop_
_geom_bond_atom_site_label_1
_geom_bond_atom_site_label_2
_ccdc_geom_bond_type
C19   C24   A    
O6    P7    D    
O1    P1    D    
C40   H12   S    
C62   O24   S    
H50   O30   S    
C45   H11   S    
C50   P3    S    
C2    O13   D    
C61   H56   S    
C51   C57   A    
C51   H31   S    
C10   C66   A    
C24   C25   A    
Ba2   O4    S    
C63   H59   S    
C17   C19   A    
C32   H28   S    
C28   O37   S    
Ba1   Ba2   S    
C35   C38   A    
C56   H14   S    
C16   H57   S    
C36   C37   A    
C14   H29   S    
C55   C57   A    
C52   C61   S    
H53   O32   S    
C1    H42   S    
O35   P4    S    
C52   H45   S    
C44   C50   A    
Ba1   P1    S    
C54   C55   A    
C5    P8    S    
C49   O32   S    
C32   C33   S    
C43   O31   S    
C22   C27   A    
C11   C38   A    
C29   C33   D    
C34   H8    S    
C64   H15   S    
Ba1   O15   S    
C25   C42   A    
O20   P3    S    
C64   O9    S    
O15   P6    S    
C6    C7    D    
C4    H26   S    
O39   P5    S    
Ba1   O19   S    
C26   O14   D    
O5    P2    S    
C40   O22   S    
C15   H30   S    
Ba2   O36   S    
C23   H5    S    
O17   P1    S    
C37   C43   A    
C60   H33   S    
C64   C65   S    
C57   C58   S    
C6    C14   D    
C45   O3    S    
C12   H2    S    
C15   C31   D    
C31   P1    S    
C48   C49   A    
C51   C53   A    
C4    C16   S    
C30   P6    S    
C44   C46   A    
C65   H17   S    
O18   P6    S    
H38   O22   S    
H47   O28   S    
C49   C50   A    
C4    O23   S    
C63   H60   S    
O34   P4    D    
C17   C20   A    
C4    H16   S    
C13   C39   A    
O7    P7    S    
C56   H13   S    
Ba2   O34   S    
C3    C5    S    
C18   C37   A    
C6    P4    S    
C12   O18   S    
Ba2   O39   S    
Ba1   O38   S    
C55   H32   S    
Ba1   P2    S    
Ba2   O6    S    
O21   P3    D    
C54   P5    S    
C58   C59   T    
C9    C36   A    
C1    H3    S    
C41   C42   A    
H46   O27   S    
C35   C36   A    
O9    P8    S    
C34   H7    S    
C7    H18   S    
C52   O17   S    
C46   P2    S    
H55   O33   S    
C29   C30   S    
Ba2   O35   S    
Ba1   O35   S    
C21   C22   A    
O3    P5    S    
C27   O11   D    
O16   P6    D    
C11   H19   S    
C31   C32   D    
Ba1   O20   S    
C23   H4    S    
O2    P5    D    
C18   C19   A    
H41   O24   S    
C65   H49   S    
C33   N2    S    
C1    C12   S    
C34   H6    S    
H52   O31   S    
H48   O29   S    
C53   C60   A    
C46   C47   A    
C9    C13   A    
C44   O33   S    
C28   H37   S    
H44   O26   S    
C15   C30   S    
C12   H1    S    
C54   C60   A    
C66   O10   D    
C17   C35   A    
C61   H39   S    
Ba1   O4    S    
C1    H9    S    
C21   O30   S    
Ba2   O38   S    
C64   O28   S    
C18   C41   A    
C16   O26   S    
C7    C8    S    
O38   P7    S    
C5    C14   S    
C29   H20   S    
O19   P2    D    
C52   H34   S    
O36   P8    S    
C22   C24   A    
Ba1   O1    S    
C56   O27   S    
C9    C10   A    
C2    N1    Am   
C62   H58   S    
Ba2   O5    S    
O37   P4    S    
C39   H25   S    
C62   C63   S    
C2    C13   A    
C8    N1    S    
C3    C8    D    
Ba2   P4    S    
C42   H27   S    
C45   C56   S    
C62   O12   S    
C47   H54   S    
O23   P3    S    
C20   H21   S    
C26   N2    Am   
C16   H35   S    
C66   N1    Am   
C53   P7    S    
C3    H24   S    
C23   C34   S    
C27   N2    Am   
C10   C11   A    
C63   O25   S    
C47   C48   A    
O4    P1    S    
C28   H36   S    
C25   C26   A    
C48   C59   S    
C39   C43   A    
C20   C21   A    
C28   C40   S    
C23   O7    S    
C65   O29   S    
C45   H10   S    
C38   H22   S    
C61   H40   S    
Ba1   O5    S    
O8    P8    D    
H43   O25   S    
C40   H23   S    
C41   H51   S    
O12   P2    S    
