data_mof_unit_22833.cif
_audit_creation_date              2012-12-10T20:04:51-0500
_audit_creation_method            fapswitch 2.2
_symmetry_space_group_name_H-M    P1
_symmetry_Int_Tables_number       1
_space_group_crystal_system       triclinic
_cell_length_a                    10.564314
_cell_length_b                    19.234644
_cell_length_c                    18.465838
_cell_angle_alpha                 89.453446
_cell_angle_beta                  106.044828
_cell_angle_gamma                 89.729122
_cell_volume                      3605.83644061

loop_
_atom_site_label
_atom_site_type_symbol
_atom_type_description
_atom_site_fract_x
_atom_site_fract_y
_atom_site_fract_z
_atom_type_partial_charge
C1    C     C_R   0.495884 0.365621 0.499714 0.890526
C2    C     C_R   0.448586 0.928219 0.489591 0.137673
C3    C     C_R   0.558082 0.553845 0.733498 -0.231236
C4    C     C_R   0.417588 0.456123 0.262629 -0.240288
C5    C     C_R   0.557485 0.557438 0.809639 0.404356
C6    C     C_R   0.410544 0.455191 0.184771 0.419494
C7    C     C_R   0.499014 0.503635 0.841271 -0.072975
C8    C     C_R   0.495258 0.498978 0.157748 -0.028028
C9    C     C_R   0.440624 0.448741 0.794825 -0.424692
C10   C     C_R   0.580414 0.542884 0.209278 -0.489926
C11   C     C_R   0.440700 0.447802 0.718677 0.625873
C12   C     C_R   0.500688 0.634461 0.499728 0.907313
C13   C     C_R   0.579678 0.544342 0.285721 0.629118
C14   C     C_R   0.379040 0.498858 0.941681 -0.241926
C15   C     C_R   0.615160 0.505231 0.056155 -0.231181
C16   C     C_R   0.256062 0.502120 0.467096 0.829884
C17   C     C_R   0.744017 0.497755 0.532910 0.844151
C18   C     C_R   0.377752 0.498078 0.017546 -0.115333
C19   C     C_R   0.616161 0.507485 0.980250 -0.112428
C20   C     C_R   0.495938 0.500080 0.076198 0.194942
C21   C     C_R   0.498177 0.503833 0.922124 0.184734
C22   C     C_2   0.113470 0.499277 0.442242 0.214029
C23   C     C_R   0.492032 0.709736 0.497306 -0.093325
C24   C     C_2   0.886949 0.501240 0.557195 0.224811
C25   C     C_2   0.047123 0.523726 0.489043 0.306959
C26   C     C_2   0.951891 0.477060 0.509745 0.323837
C27   C     C_R   0.449766 0.744103 0.427439 -0.316464
C28   C     C_R   0.493835 0.253232 0.565154 -0.291249
C29   C     C_R   0.430125 0.815620 0.424297 0.490887
C30   C     C_R   0.473824 0.181394 0.563608 0.493931
C31   C     C_R   0.457907 0.853046 0.491717 -0.007823
C32   C     C_R   0.444607 0.147604 0.493741 0.010562
C33   C     C_R   0.500107 0.818837 0.561503 -0.247100
C34   C     C_R   0.479365 0.290735 0.497933 -0.094083
C35   C     C_R   0.427921 0.185487 0.426664 -0.260155
C36   C     C_R   0.517088 0.747272 0.564363 -0.199477
C37   C     C_R   0.444719 0.256725 0.428664 -0.191551
C38   C     C_3   0.874319 0.370108 0.459200 0.126615
C39   C     C_3   0.813331 0.318127 0.501996 -0.879513
C40   C     C_3   0.119211 0.632687 0.535453 0.153644
C41   C     C_3   0.168624 0.688299 0.491206 -0.924322
C42   C     C_3   0.527471 0.668611 0.840991 0.098397
C43   C     C_3   0.587817 0.727556 0.893274 -0.811745
C44   C     C_3   0.204753 0.404068 0.145004 0.070447
C45   C     C_R   0.364827 0.962189 0.524926 -0.234115
C46   C     C_3   0.112273 0.373839 0.074250 -0.817683
C47   C     C_3   0.253197 0.396579 0.646311 0.174154
C48   C     C_3   0.184620 0.345258 0.685944 -0.913030
C49   C     C_3   0.671286 0.654401 0.314624 0.119791
C50   C     C_3   0.806631 0.670427 0.304596 -0.887293
C51   C     C_3   0.971298 0.525233 0.681529 0.098933
C52   C     C_3   0.077233 0.569216 0.733265 -0.876498
C53   C     C_3   0.965070 0.482937 0.328417 0.104301
C54   C     C_3   0.914182 0.431017 0.265684 -0.855641
C55   C     C_3   0.248640 0.847964 0.332036 0.090913
C56   C     C_R   0.523248 0.037866 0.454021 -0.216879
C57   C     C_3   0.199735 0.888484 0.258394 -0.809360
C58   C     C_3   0.413889 0.164926 0.672984 0.076175
C59   C     C_3   0.410477 0.109133 0.731301 -0.812847
C60   C     C_R   0.360333 0.034322 0.524779 -0.110092
C61   C     C_R   0.526823 0.965994 0.453597 -0.103172
C62   C     C_R   0.441114 0.072164 0.490269 0.153736
H1    H     H_    0.398101 0.405871 0.818158 0.189552
H2    H     H_    0.403799 0.159547 0.372777 0.160362
H3    H     H_    0.549237 0.721348 0.618775 0.158596
H4    H     H_    0.431461 0.285022 0.376053 0.168399
H5    H     H_    0.303596 0.932865 0.552416 0.135885
H6    H     H_    0.586730 0.066778 0.427684 0.141502
H7    H     H_    0.295054 0.060571 0.551848 0.137184
H8    H     H_    0.592550 0.939759 0.426751 0.150012
H9    H     H_    0.604969 0.594485 0.709557 0.173371
H10   H     H_    0.358756 0.421117 0.285749 0.160003
H11   H     H_    0.918704 0.340335 0.421032 0.201333
H12   H     H_    0.646580 0.576228 0.189843 0.177996
H13   H     H_    0.796566 0.403824 0.422309 0.149316
H14   H     H_    0.734087 0.289150 0.461790 0.227178
H15   H     H_    0.889465 0.280514 0.533268 0.262825
H16   H     H_    0.771757 0.345568 0.542888 0.234606
H17   H     H_    0.203549 0.601163 0.569638 0.137077
H18   H     H_    0.075598 0.659307 0.576068 0.206942
H19   H     H_    0.214613 0.663578 0.450559 0.241068
H20   H     H_    0.085440 0.721883 0.459648 0.261634
H21   H     H_    0.241840 0.721229 0.530520 0.232405
H22   H     H_    0.433773 0.653363 0.853370 0.141030
H23   H     H_    0.286528 0.496588 0.898030 0.137337
H24   H     H_    0.505566 0.688090 0.781759 0.128357
H25   H     H_    0.680658 0.744750 0.881755 0.255848
H26   H     H_    0.517971 0.772214 0.884100 0.202233
H27   H     H_    0.609399 0.709831 0.952907 0.257319
H28   H     H_    0.166063 0.456458 0.153873 0.128121
H29   H     H_    0.203741 0.369043 0.193063 0.152032
H30   H     H_    0.146617 0.321113 0.064051 0.264975
H31   H     H_    0.011390 0.369997 0.081182 0.207990
H32   H     H_    0.109012 0.407796 0.024795 0.243769
H33   H     H_    0.227977 0.382323 0.585918 0.213753
H34   H     H_    0.708312 0.506856 0.099209 0.133355
H35   H     H_    0.212917 0.450059 0.648577 0.120562
H36   H     H_    0.197171 0.360863 0.745145 0.238148
H37   H     H_    0.077626 0.344407 0.656632 0.250733
H38   H     H_    0.225923 0.292191 0.685035 0.255143
H39   H     H_    0.656373 0.688299 0.359922 0.183677
H40   H     H_    0.592545 0.669170 0.262683 0.111538
H41   H     H_    0.828101 0.636764 0.260946 0.233796
H42   H     H_    0.810074 0.725660 0.287263 0.217572
H43   H     H_    0.883633 0.661433 0.358525 0.299507
H44   H     H_    0.008858 0.470597 0.685668 0.133928
H45   H     H_    0.283726 0.497038 0.030152 0.155926
H46   H     H_    0.881624 0.526936 0.701877 0.177100
H47   H     H_    0.043193 0.624072 0.731655 0.263438
H48   H     H_    0.098765 0.549075 0.791984 0.211915
H49   H     H_    0.168994 0.567128 0.715040 0.235710
H50   H     H_    0.009293 0.527357 0.304987 0.144054
H51   H     H_    0.879905 0.502017 0.347264 0.190717
H52   H     H_    0.866794 0.386653 0.286585 0.247377
H53   H     H_    0.840288 0.456654 0.218236 0.213254
H54   H     H_    0.996760 0.411292 0.245058 0.250223
H55   H     H_    0.206430 0.872768 0.374622 0.140493
H56   H     H_    0.709544 0.510776 0.966890 0.155532
H57   H     H_    0.212291 0.793595 0.322508 0.138423
H58   H     H_    0.238567 0.864563 0.214280 0.255068
H59   H     H_    0.090411 0.887871 0.239504 0.202688
H60   H     H_    0.233233 0.943240 0.266463 0.258732
H61   H     H_    0.310886 0.173883 0.637439 0.126902
H62   H     H_    0.452026 0.213400 0.703421 0.169226
H63   H     H_    0.511212 0.099706 0.768820 0.263365
H64   H     H_    0.345503 0.126251 0.765940 0.207818
H65   H     H_    0.371814 0.059926 0.702813 0.249092
H66   H     H_    0.427965 0.715530 0.375206 0.159182
H67   H     H_    0.523826 0.279428 0.618740 0.188567
H68   H     H_    0.521559 0.847724 0.613533 0.162725
N1    N     N_R   0.500020 0.499980 0.689440 -0.151071
N2    N     N_R   0.499980 0.500020 0.310560 -0.139643
O1    O     O_R   0.500000 0.398180 0.560840 -0.572714
O2    O     O_3   0.018942 0.594539 0.485317 -0.626697
O3    O     O_3   0.617395 0.612347 0.853298 -0.610803
O4    O     O_3   0.333399 0.407377 0.136102 -0.607062
O5    O     O_3   0.391545 0.390709 0.675504 -0.623993
O6    O     O_3   0.667570 0.584437 0.338526 -0.591934
O7    O     O_3   0.942206 0.552883 0.607610 -0.622931
O8    O     O_3   0.059540 0.449954 0.388391 -0.619009
O9    O     O_3   0.387611 0.849148 0.355229 -0.623843
O10   O     O_3   0.497610 0.142508 0.629737 -0.612890
O11   O     O_R   0.500000 0.601820 0.439160 -0.594737
O12   O     O_R   0.499950 0.398180 0.439200 -0.627030
O13   O     O_R   0.500050 0.601820 0.560800 -0.628852
O14   O     O_R   0.317830 0.500010 0.538110 -0.653973
O15   O     O_R   0.682170 0.499990 0.461890 -0.583928
O16   O     O_R   0.317770 0.500000 0.416470 -0.590117
O17   O     O_R   0.682230 0.500000 0.583530 -0.613766
O18   O     O_3   0.976376 0.405916 0.510727 -0.667388
Zn1   Zn    Zn3+2 0.500040 0.500000 0.581220 0.947295
Zn2   Zn    Zn3+2 0.499960 0.500000 0.418780 0.970842

loop_
_geom_bond_atom_site_label_1
_geom_bond_atom_site_label_2
_ccdc_geom_bond_type
C61   H8    S    
C44   O4    S    
C45   C60   A    
C50   H42   S    
C55   O9    S    
C27   C29   A    
C34   C37   A    
C14   C18   A    
N1    Zn1   S    
O1    Zn1   S    
C4    H10   S    
C4    N2    A    
C55   H57   S    
C53   C54   S    
C59   H64   S    
C15   C19   A    
C12   C23   S    
C58   H61   S    
C43   H27   S    
C41   H21   S    
C3    N1    A    
C43   H26   S    
C39   H15   S    
C14   C21   A    
C60   C62   A    
C35   C37   A    
C24   C26   D    
O17   Zn1   S    
C49   H39   S    
C38   C39   S    
C46   H30   S    
C59   H65   S    
C53   O8    S    
C22   O8    S    
C33   C36   A    
C16   O14   A    
C28   H67   S    
C18   H45   S    
C6    O4    S    
C57   H60   S    
C19   H56   S    
C44   C46   S    
C51   H46   S    
C22   C25   D    
C54   H54   S    
C45   H5    S    
C50   H43   S    
C40   H18   S    
C35   H2    S    
C42   H24   S    
C23   C27   A    
C2    C61   A    
C29   O9    S    
C50   H41   S    
C2    C45   A    
C49   O6    S    
C37   H4    S    
C1    O1    A    
C53   H51   S    
C1    C34   S    
C38   H13   S    
C24   O7    S    
C15   C20   A    
C48   H38   S    
C17   C24   S    
C51   C52   S    
C39   H16   S    
C26   O18   S    
C42   H22   S    
C4    C6    A    
C15   H34   S    
C5    C7    A    
C36   H3    S    
C57   H59   S    
C6    C8    A    
C52   H49   S    
C25   C26   S    
C7    C21   S    
C40   O2    S    
C42   O3    S    
C12   O13   A    
C3    H9    S    
C32   C35   A    
C27   H66   S    
C58   O10   S    
C47   C48   S    
C46   H32   S    
C52   H48   S    
C41   H19   S    
C54   H53   S    
C47   O5    S    
C31   C33   A    
C40   H17   S    
C8    C20   S    
C39   H14   S    
C25   O2    S    
C9    C11   A    
O13   Zn1   S    
C44   H29   S    
C57   H58   S    
C53   H50   S    
C8    C10   A    
C40   C41   S    
C49   C50   S    
C55   C57   S    
N2    Zn2   S    
C56   C62   A    
C42   C43   S    
C49   H40   S    
C44   H28   S    
C55   H55   S    
C5    O3    S    
C48   H37   S    
O11   Zn2   S    
C16   C22   S    
C17   O15   A    
C9    H1    S    
C17   O17   A    
O16   Zn2   S    
C14   H23   S    
C3    C5    A    
C10   C13   A    
C11   N1    A    
C52   H47   S    
C59   H63   S    
C48   H36   S    
C58   H62   S    
C30   O10   S    
C12   O11   A    
C47   H35   S    
C16   O16   A    
C43   H25   S    
C13   O6    S    
C28   C30   A    
O15   Zn2   S    
C58   C59   S    
C32   C62   S    
C29   C31   A    
C1    O12   A    
C56   H6    S    
C30   C32   A    
C10   H12   S    
C46   H31   S    
C60   H7    S    
C51   H44   S    
C41   H20   S    
C54   H52   S    
C13   N2    A    
C18   C20   A    
C11   O5    S    
C28   C34   A    
O14   Zn1   S    
C33   H68   S    
C7    C9    A    
O12   Zn2   S    
C23   C36   A    
C47   H33   S    
C56   C61   A    
C2    C31   S    
C38   O18   S    
C19   C21   A    
C38   H11   S    
C51   O7    S    
