data_mof_unit_30595.cif
_audit_creation_date              2012-12-10T17:02:13-0500
_audit_creation_method            fapswitch 2.2
_symmetry_space_group_name_H-M    P1
_symmetry_Int_Tables_number       1
_space_group_crystal_system       triclinic
_cell_length_a                    10.621536
_cell_length_b                    10.738901
_cell_length_c                    10.041658
_cell_angle_alpha                 89.958335
_cell_angle_beta                  89.987869
_cell_angle_gamma                 90.116848
_cell_volume                      1145.38518739

loop_
_atom_site_label
_atom_site_type_symbol
_atom_type_description
_atom_site_fract_x
_atom_site_fract_y
_atom_site_fract_z
_atom_type_partial_charge
C1    C     C_R   0.501859 0.262709 0.499858 0.941387
C2    C     C_R   0.066299 0.614730 0.552954 0.033945
C3    C     C_R   0.128338 0.510070 0.499651 -0.068532
C4    C     C_R   0.064061 0.410272 0.443398 -0.163570
C5    C     C_R   0.935369 0.410465 0.443353 -0.188159
C6    C     C_R   0.871707 0.510374 0.499719 -0.075433
C7    C     C_2   0.493781 0.933177 0.387395 -0.152346
C8    C     C_2   0.482572 0.868525 0.500247 -0.291213
C9    C     C_2   0.486310 0.067110 0.388540 -0.127110
C10   C     C_2   0.511201 0.131006 0.499494 -0.268721
C11   C     C_2   0.570157 0.573768 0.924900 -0.104965
C12   C     C_R   0.260591 0.502211 0.499987 0.877409
C13   C     C_2   0.564874 0.578364 0.074837 -0.115004
C14   C     C_R   0.496597 0.737221 0.499938 0.885640
C15   C     C_R   0.739401 0.502775 0.499969 0.858487
C16   C     C_R   0.132049 0.719701 0.602163 -0.282424
C17   C     C_R   0.067037 0.822738 0.651791 0.459528
C18   C     C_R   0.935583 0.822472 0.651833 -0.211670
C19   C     C_R   0.869569 0.719803 0.602948 -0.265199
C20   C     C_R   0.934441 0.614816 0.553181 0.104967
H1    H     H_    0.113869 0.331296 0.401679 0.167264
H2    H     H_    0.542077 0.088043 0.591518 0.154933
H3    H     H_    0.634744 0.636993 0.875312 0.164414
H4    H     H_    0.435505 0.445884 0.897873 0.176488
H5    H     H_    0.619769 0.650013 0.124212 0.162557
H6    H     H_    0.454398 0.429543 0.102254 0.170720
H7    H     H_    0.233740 0.723464 0.600632 0.176786
H8    H     H_    0.883844 0.902145 0.688501 0.183726
H9    H     H_    0.767881 0.724397 0.602719 0.163090
H10   H     H_    0.885066 0.331651 0.401542 0.157781
H11   H     H_    0.508402 0.887904 0.291894 0.177379
H12   H     H_    0.459649 0.910813 0.595088 0.213873
H13   H     H_    0.462357 0.113312 0.295635 0.177263
N1    N     N_2   0.501340 0.501330 0.852150 -0.188348
N2    N     N_2   0.501380 0.501360 0.147810 -0.191011
O1    O     O_R   0.499980 0.319060 0.613040 -0.594809
O2    O     O_R   0.500020 0.319100 0.386900 -0.624199
O3    O     O_R   0.316750 0.499980 0.613090 -0.604644
O4    O     O_R   0.316790 0.500020 0.386950 -0.610205
O5    O     O_R   0.499980 0.680900 0.613100 -0.618125
O6    O     O_R   0.500020 0.680940 0.386960 -0.612008
O7    O     O_R   0.683210 0.499980 0.613050 -0.611928
O8    O     O_R   0.683250 0.500020 0.386910 -0.609941
Zn1   Zn    Zn3+2 0.499970 0.499970 0.650990 0.977515
Zn2   Zn    Zn3+2 0.500030 0.500030 0.349010 0.957944
S1    S     S_3+6 0.151463 0.952881 0.710610 0.012056
O9    O     O_2   0.193930 0.029274 0.593448 -0.277571
O10   O     O_2   0.070036 0.031812 0.799095 -0.293327
O11   O     O_3   0.278997 0.905480 0.795750 -0.556231
H14   H     H_    0.245607 0.850310 0.866586 0.351539

loop_
_geom_bond_atom_site_label_1
_geom_bond_atom_site_label_2
_ccdc_geom_bond_type
C18   H8    S    
O3    Zn1   S    
C2    C16   A    
C9    C10   D    
O5    Zn1   S    
C19   C20   A    
C1    O2    A    
O4    Zn2   S    
C12   O4    A    
C17   C18   A    
C15   O8    A    
C7    C8    D    
C10   H2    S    
C9    H13   S    
C4    H1    S    
O8    Zn2   S    
S1    O11   S    
C13   H5    S    
C8    H12   S    
O7    Zn1   S    
C16   H7    S    
C14   O6    A    
C4    C5    A    
C13   N2    D    
C11   H3    S    
C14   O5    A    
C2    C3    A    
C12   O3    A    
C5    C6    A    
S1    O10   D    
O1    Zn1   S    
C7    H11   S    
O2    Zn2   S    
C3    C4    A    
N2    Zn2   S    
H6    N2    S    
C11   C13   S    
C6    C20   A    
C17   S1    S    
C15   O7    A    
O11   H14   S    
C5    H10   S    
C7    C9    S    
N1    Zn1   S    
O6    Zn2   S    
S1    O9    D    
C18   C19   A    
C8    C14   S    
C3    C12   S    
C6    C15   S    
C2    C20   A    
C11   N1    D    
H4    N1    S    
C1    C10   S    
C1    O1    A    
C16   C17   A    
C19   H9    S    
