data_mof_unit_15228.cif
_audit_creation_date              2013-03-05T16:11:32-0500
_audit_creation_method            fapswitch 2.2
_symmetry_space_group_name_H-M    P1
_symmetry_Int_Tables_number       1
_space_group_crystal_system       triclinic
_cell_length_a                    10.726071
_cell_length_b                    9.872719
_cell_length_c                    15.739708
_cell_angle_alpha                 90.116
_cell_angle_beta                  90.488068
_cell_angle_gamma                 90.004551
_cell_volume                      1666.70011574

loop_
_atom_site_label
_atom_site_type_symbol
_atom_site_description
_atom_site_fract_x
_atom_site_fract_y
_atom_site_fract_z
_atom_type_partial_charge
O1    O     O_R   0.316750 0.614620 0.499990 -0.632617
O2    O     O_R   0.316750 0.385380 0.499990 -0.631427
C1    C     C_R   0.259929 0.499995 0.499329 0.855623
O3    O     O_R   0.499990 0.614720 0.377140 -0.615262
O4    O     O_R   0.499990 0.385280 0.377140 -0.621791
C2    C     C_R   0.500548 0.499882 0.338348 0.893482
Zn1   Zn    Zn3+2 0.499980 0.653120 0.500000 1.021178
Zn2   Zn    Zn3+2 0.499980 0.346880 0.500000 1.018619
O5    O     O_R   0.683220 0.614710 0.500000 -0.596292
O6    O     O_R   0.683220 0.385290 0.500000 -0.596861
O7    O     O_R   0.499980 0.614620 0.622860 -0.578662
O8    O     O_R   0.499980 0.385380 0.622860 -0.578666
C3    C     C_R   0.740025 0.500001 0.499041 0.915692
C4    C     C_R   0.500586 0.500137 0.661664 0.920505
C5    C     C_3   0.444174 0.616405 0.048159 -0.265820
C6    C     C_3   0.480041 0.365476 0.048380 -0.289377
C7    C     C_3   0.468617 0.372132 0.950323 -0.398948
C8    C     C_3   0.457167 0.626224 0.950828 -0.349544
H1    H     H_    0.362089 0.628567 0.921698 0.176070
H2    H     H_    0.367894 0.373001 0.932247 0.191178
H3    H     H_    0.346784 0.582318 0.060061 0.144549
H4    H     H_    0.382951 0.355700 0.072425 0.153400
H5    H     H_    0.507277 0.281002 0.918481 0.249217
H6    H     H_    0.502554 0.721800 0.931468 0.280677
C9    C     C_1   0.509672 0.500628 0.750271 -0.035261
C10   C     C_3   0.534856 0.502999 0.083383 0.027657
C11   C     C_3   0.531491 0.503224 0.916926 0.116638
C12   C     C_3   0.672948 0.509812 0.948071 -0.302729
C13   C     C_3   0.675901 0.529074 0.051285 0.390592
C14   C     C_1   0.519763 0.501657 0.825278 0.074851
C15   C     C_1   0.522692 0.500855 0.175086 -0.002669
C16   C     C_1   0.511110 0.499826 0.249917 -0.112272
C17   C     C_R   0.063828 0.376492 0.495800 -0.168420
C18   C     C_R   0.063857 0.623514 0.496675 -0.171449
H7    H     H_    0.112193 0.280143 0.495366 0.171641
H8    H     H_    0.112239 0.719867 0.496955 0.172041
C19   C     C_R   0.936153 0.376527 0.495248 -0.112778
C20   C     C_R   0.936188 0.623492 0.496121 -0.117594
H9    H     H_    0.887885 0.280217 0.494004 0.199288
H10   H     H_    0.887955 0.719818 0.495584 0.200610
C21   C     C_R   0.872533 0.500007 0.496725 -0.034305
C22   C     C_R   0.127434 0.499996 0.497374 -0.027522
C23   C     C_R   0.561385 0.072186 0.562431 0.274895
C24   C     C_R   0.561245 0.928242 0.562481 0.272768
N1    N     N_R   0.499970 0.857200 0.499980 -0.151394
N2    N     N_R   0.499970 0.142800 0.499980 -0.151581
C25   C     C_R   0.438224 0.928010 0.438102 -0.131919
C26   C     C_R   0.438166 0.071583 0.438129 -0.137999
H11   H     H_    0.388645 0.873720 0.388529 0.163335
H12   H     H_    0.388542 0.125551 0.388582 0.163660
C27   C     C_2   0.543749 0.238873 0.082119 0.525022
H13   H     H_    0.549433 0.223232 0.150252 0.106623
O9    O     O_2   0.584302 0.150865 0.035299 -0.490828
C28   C     C_2   0.450078 0.752954 0.092930 0.555687
H14   H     H_    0.427744 0.758889 0.159953 0.059511
O10   O     O_2   0.477086 0.857147 0.055655 -0.484829
N3    N     N_R   0.717551 0.666924 0.078587 0.232287
O11   O     O_R   0.688485 0.709243 0.154239 -0.357970
O12   O     O_R   0.819938 0.717736 0.048410 -0.335892
N4    N     N_R   0.767529 0.434513 0.090285 0.181175
O13   O     O_R   0.746904 0.376609 0.162969 -0.387367
O14   O     O_R   0.882671 0.438709 0.064736 -0.367178
C29   C     C_2   0.747184 0.620065 0.902149 0.621380
H15   H     H_    0.848416 0.617145 0.905103 0.120479
O15   O     O_2   0.697866 0.709965 0.860692 -0.497118
C30   C     C_2   0.734970 0.376738 0.919975 0.429199
H16   H     H_    0.745236 0.292365 0.963130 0.179215
O16   O     O_2   0.767512 0.359300 0.846457 -0.504865
N5    N     N_R   0.627524 0.143232 0.627831 0.249505
O17   O     O_R   0.581987 0.147513 0.704136 -0.309787
O18   O     O_R   0.743833 0.174927 0.616533 -0.354183
N6    N     N_R   0.626231 0.857630 0.628371 0.247975
O19   O     O_R   0.742119 0.823798 0.617560 -0.361540
O20   O     O_R   0.579974 0.855092 0.704479 -0.291508

loop_
_geom_bond_atom_site_label_1
_geom_bond_atom_site_label_2
_geom_bond_distance
_ccdc_geom_bond_type
O4    Zn2   1.971346 S    
C30   O16   1.223324 D    
C23   C24   1.421116 A    
C29   O15   1.220620 D    
C1    C22   1.421223 S    
C9    C14   1.184640 T    
C28   O10   1.221298 D    
C5    C8    1.542714 S    
C12   C30   1.538503 S    
C15   C16   1.185465 T    
C18   C22   1.397242 A    
C13   N4    1.485422 S    
Zn2   O8    1.970026 S    
C5    C10   1.581295 S    
C3    C21   1.422064 S    
C30   H16   1.080937 S    
N5    O18   1.299936 A    
N4    O13   1.300563 A    
C25   H11   1.081701 S    
O1    Zn1   2.001724 S    
C11   C14   1.446980 S    
Zn1   O7    1.971536 S    
C26   H12   1.081683 S    
C17   H7    1.083559 S    
N3    O11   1.301520 A    
C7    H5    1.111019 S    
C10   C13   1.619788 S    
O3    Zn1   1.969840 S    
C8    H6    1.106267 S    
C17   C22   1.397233 A    
Zn1   N1    2.014825 S    
N6    O20   1.300781 A    
C12   C13   1.635320 S    
C20   H10   1.082666 S    
O8    C4    1.286007 A    
C17   C19   1.369400 A    
C24   N6    1.427629 S    
C18   H8    1.083560 S    
N1    C25   1.366659 A    
C4    C9    1.397210 S    
C6    C10   1.576059 S    
N5    O17   1.301003 A    
C19   H9    1.082685 S    
O7    C4    1.285809 A    
N4    O14   1.302783 A    
C23   N2    1.370401 A    
O3    C2    1.286671 A    
N3    O12   1.301185 A    
C13   N3    1.493542 S    
C27   H13   1.084965 S    
C7    C11   1.553968 S    
C12   C29   1.534319 S    
Zn1   O5    2.001724 S    
C5    H3    1.114948 S    
C7    H2    1.114886 S    
C6    C7    1.548745 S    
C24   N1    1.370318 A    
C20   C21   1.397344 A    
C23   N5    1.428088 S    
C5    C28   1.520972 S    
C10   C15   1.450565 S    
C11   C12   1.591805 S    
O4    C2    1.286794 A    
O5    C3    1.286154 A    
C28   H14   1.085251 S    
C8    H1    1.114834 S    
C6    C27   1.519172 S    
O2    C1    1.285321 A    
Zn2   N2    2.014824 S    
C27   O9    1.220715 D    
C25   C26   1.417459 A    
C18   C20   1.369342 A    
C19   C21   1.397368 A    
N2    C26   1.366639 A    
Zn2   O6    2.001665 S    
O2    Zn2   2.001784 S    
C8    C11   1.549086 S    
C29   H15   1.086808 S    
C2    C16   1.397440 S    
C6    H4    1.115297 S    
N6    O19   1.299644 A    
O1    C1    1.285280 A    
O6    C3    1.286149 A    
