data_mof_unit_34697.cif
_audit_creation_date              2012-12-10T19:07:05-0500
_audit_creation_method            fapswitch 2.2
_symmetry_space_group_name_H-M    P1
_symmetry_Int_Tables_number       1
_space_group_crystal_system       triclinic
_cell_length_a                    27.811332
_cell_length_b                    10.853284
_cell_length_c                    9.536461
_cell_angle_alpha                 89.91723
_cell_angle_beta                  89.765303
_cell_angle_gamma                 90.391906
_cell_volume                      2878.43164045

loop_
_atom_site_label
_atom_site_type_symbol
_atom_type_description
_atom_site_fract_x
_atom_site_fract_y
_atom_site_fract_z
_atom_type_partial_charge
C1    C     C_R   0.499977 0.262681 0.500002 0.848554
C2    C     C_R   0.277461 0.434245 0.600042 -0.138793
C3    C     C_R   0.253770 0.505253 0.499329 0.318680
C4    C     C_R   0.101848 0.506554 0.494461 -0.043787
C5    C     C_R   0.127234 0.396901 0.469728 -0.021968
C6    C     C_R   0.101878 0.287664 0.445107 -0.139871
C7    C     C_R   0.127725 0.616426 0.518524 -0.022274
C8    C     C_R   0.354665 0.494752 0.500259 -0.112366
C9    C     C_R   0.645415 0.500917 0.500345 -0.029777
C10   C     C_R   0.974237 0.392237 0.485055 0.043747
C11   C     C_R   0.974557 0.618771 0.510398 0.043596
C12   C     C_R   0.407563 0.497293 0.500206 0.858269
C13   C     C_R   0.949144 0.505217 0.498625 0.067613
C14   C     C_R   0.947196 0.281280 0.481958 -0.204653
C15   C     C_R   0.897281 0.281747 0.486049 -0.145923
C16   C     C_R   0.872260 0.392585 0.493835 -0.019048
C17   C     C_R   0.898012 0.504608 0.500420 -0.044528
C18   C     C_R   0.872501 0.616007 0.508717 -0.020153
C19   C     C_R   0.822011 0.613362 0.509530 0.533559
C20   C     C_R   0.821787 0.394026 0.495540 0.531518
C21   C     C_R   0.720638 0.460615 0.619818 -0.109886
C22   C     C_R   0.670504 0.460147 0.619065 -0.231381
C23   C     C_R   0.500312 0.737299 0.499740 0.806307
C24   C     C_R   0.671347 0.543320 0.383019 -0.229021
C25   C     C_R   0.721470 0.544344 0.384097 -0.103173
C26   C     C_R   0.746266 0.502819 0.502351 0.362997
C27   C     C_R   0.025261 0.393550 0.476386 0.043085
C28   C     C_R   0.050711 0.506244 0.495365 0.069162
C29   C     C_R   0.025653 0.618541 0.515482 0.042853
C30   C     C_R   0.051966 0.285762 0.448210 -0.204994
C31   C     C_R   0.102771 0.725591 0.542702 -0.140824
C32   C     C_R   0.947726 0.729067 0.515865 -0.204327
C33   C     C_R   0.897777 0.727419 0.515173 -0.145503
C34   C     C_R   0.592516 0.500253 0.499910 0.790677
C35   C     C_R   0.052823 0.726912 0.541271 -0.204325
C36   C     C_R   0.502085 0.061749 0.621549 0.081034
C37   C     C_R   0.499995 0.130078 0.498609 -0.099281
C38   C     C_R   0.498339 0.064797 0.370733 -0.198927
C39   C     C_R   0.498611 0.935652 0.370401 -0.207383
C40   C     C_R   0.500625 0.869882 0.498006 -0.089690
C41   C     C_R   0.502593 0.937572 0.620993 0.100444
C42   C     C_3   0.505555 0.926703 0.776480 -0.496336
C43   C     C_3   0.504292 0.068873 0.778247 -0.198245
C44   C     C_R   0.526005 0.586219 0.073180 0.261600
C45   C     C_R   0.177693 0.399055 0.469494 0.543341
C46   C     C_R   0.470533 0.423471 0.074979 -0.082393
C47   C     C_R   0.470574 0.423390 0.926010 -0.055482
C48   C     C_R   0.525970 0.586306 0.925680 0.256559
C49   C     C_3   0.579035 0.605304 0.918991 -0.488385
C50   C     C_3   0.579100 0.604607 0.077767 -0.518525
C51   C     C_R   0.178231 0.614218 0.519635 0.542952
C52   C     C_R   0.280492 0.570761 0.399158 -0.078971
C53   C     C_R   0.330514 0.565928 0.399952 -0.223392
C54   C     C_R   0.327746 0.425716 0.600012 -0.048044
Cu1   Cu    Cu3+1 0.500000 0.499980 0.640670 0.967335
Cu2   Cu    Cu3+1 0.500000 0.500020 0.359330 0.944500
H1    H     H_    0.262432 0.625070 0.320198 0.156074
H2    H     H_    0.121793 0.811101 0.563200 0.189435
H3    H     H_    0.964165 0.819125 0.517943 0.135978
H4    H     H_    0.653025 0.577719 0.291560 0.148389
H5    H     H_    0.879007 0.814493 0.519647 0.186461
H6    H     H_    0.741105 0.577393 0.293091 0.140356
H7    H     H_    0.036652 0.814510 0.563978 0.138128
H8    H     H_    0.496694 0.112750 0.271288 0.158356
H9    H     H_    0.497121 0.888109 0.270705 0.165703
H10   H     H_    0.472838 0.882977 0.822430 0.198964
H11   H     H_    0.256285 0.381880 0.675241 0.175911
H12   H     H_    0.540167 0.885955 0.810628 0.192904
H13   H     H_    0.470395 0.105294 0.823921 0.141107
H14   H     H_    0.447621 0.359269 0.131282 0.152378
H15   H     H_    0.447768 0.359045 0.870605 0.154877
H16   H     H_    0.598246 0.525169 0.873978 0.221539
H17   H     H_    0.589030 0.696114 0.873057 0.192864
H18   H     H_    0.598020 0.523394 0.121152 0.210275
H19   H     H_    0.589299 0.694896 0.124228 0.197586
H20   H     H_    0.120552 0.202423 0.423569 0.189440
H21   H     H_    0.651416 0.426859 0.710682 0.153586
H22   H     H_    0.739604 0.428494 0.711680 0.136796
H23   H     H_    0.878339 0.194220 0.483053 0.186725
H24   H     H_    0.963463 0.191588 0.479324 0.136186
H25   H     H_    0.035435 0.198174 0.425140 0.138220
H26   H     H_    0.350478 0.618999 0.322683 0.165324
N1    N     N_R   0.202137 0.506446 0.495620 -0.463302
N2    N     N_R   0.797812 0.503412 0.502910 -0.469137
N3    N     N_R   0.500300 0.500930 0.147930 -0.192508
N4    N     N_R   0.500310 0.500890 0.852020 -0.187461
O1    O     O_R   0.500000 0.319640 0.618810 -0.568522
O2    O     O_2   0.796831 0.287122 0.488561 -0.539814
O3    O     O_2   0.203230 0.718599 0.545997 -0.529130
O4    O     O_2   0.797265 0.719673 0.517738 -0.535530
O5    O     O_R   0.500010 0.319680 0.381230 -0.598320
O6    O     O_R   0.430260 0.500000 0.618780 -0.566847
O7    O     O_R   0.430270 0.500040 0.381190 -0.579535
O8    O     O_R   0.499990 0.680320 0.618770 -0.579633
O9    O     O_R   0.500000 0.680360 0.381190 -0.588950
O10   O     O_R   0.569730 0.499960 0.618810 -0.584090
O11   O     O_R   0.569740 0.500000 0.381220 -0.591193
O12   O     O_2   0.202179 0.294685 0.442668 -0.525736
C55   C     C_2   0.350383 0.336858 0.697387 0.852271
O13   O     O_2   0.333854 0.322014 0.815313 -0.594290
O14   O     O_R   0.389185 0.265762 0.652205 -0.768815
H27   H     H_    0.400204 0.205251 0.726192 0.316783
C56   C     C_R   0.549388 0.128248 0.836939 0.181925
C57   C     C_R   0.593766 0.126142 0.765086 -0.128804
C58   C     C_R   0.634262 0.183643 0.822640 -0.149400
C59   C     C_R   0.631017 0.243212 0.952108 -0.138518
C60   C     C_R   0.587396 0.244082 0.025128 -0.125549
C61   C     C_R   0.546885 0.186405 0.968183 -0.136877
H28   H     H_    0.597151 0.080511 0.664726 0.130209
H29   H     H_    0.668167 0.182428 0.766528 0.152808
H30   H     H_    0.662343 0.288243 0.996075 0.136455
H31   H     H_    0.584936 0.289218 0.126025 0.146139
H32   H     H_    0.513444 0.187028 0.026531 0.105059

loop_
_geom_bond_atom_site_label_1
_geom_bond_atom_site_label_2
_ccdc_geom_bond_type
C10   C27   A    
C1    O1    A    
Cu2   O9    S    
C21   C26   A    
C40   C41   A    
O14   H27   S    
C41   C42   S    
C58   H29   S    
C37   C38   A    
C31   H2    S    
C28   C29   A    
C34   O10   A    
C45   O12   S    
C4    C7    A    
C5    C6    A    
C9    C22   A    
C59   C60   A    
C15   C16   A    
C19   N2    A    
C34   O11   A    
C18   C19   A    
C60   H31   S    
Cu2   O5    S    
C15   H23   S    
C16   C17   A    
C49   H16   S    
C21   H22   S    
C60   C61   A    
C56   C61   A    
C14   H24   S    
C16   C20   A    
C46   N3    A    
C1    O5    A    
C21   C22   A    
C27   C30   A    
C42   H12   S    
C39   H9    S    
C36   C41   A    
C45   N1    A    
Cu2   O11   S    
Cu1   O8    S    
C57   C58   A    
C4    C28   A    
C38   H8    S    
C59   H30   S    
Cu2   O7    S    
C7    C31   A    
C47   N4    A    
C38   C39   A    
C24   C25   A    
C2    H11   S    
C10   C14   A    
C8    C54   A    
C39   C40   A    
Cu1   O10   S    
C48   N4    A    
C25   C26   A    
C5    C45   A    
C53   H26   S    
C61   H32   S    
Cu1   O6    S    
C55   O13   D    
C8    C12   S    
Cu1   Cu2   S    
C17   C18   A    
C47   H15   S    
C48   C49   S    
C6    C30   A    
C11   C32   A    
C20   N2    A    
C2    C54   A    
C9    C34   S    
C49   H17   S    
C54   C55   S    
C42   C43   S    
C44   N3    A    
C51   N1    A    
C56   C57   A    
C52   C53   A    
C44   C50   S    
C46   C47   A    
C36   C37   A    
C26   N2    S    
C55   O14   S    
C12   O6    A    
C22   H21   S    
C4    C5    A    
C10   C13   A    
C8    C53   A    
C3    C52   A    
C9    C24   A    
C6    H20   S    
C1    C37   S    
C58   C59   A    
C29   C35   A    
C23   O8    A    
C13   C17   A    
C32   C33   A    
C30   H25   S    
C50   H18   S    
C2    C3    A    
C7    C51   A    
C19   O4    S    
C50   H19   S    
C51   O3    S    
C3    N1    S    
C11   C13   A    
Cu2   N3    S    
C57   H28   S    
Cu1   N4    S    
C20   O2    S    
C23   O9    A    
C31   C35   A    
C25   H6    S    
Cu1   O1    S    
C12   O7    A    
C18   C33   A    
C43   C56   S    
C46   H14   S    
C52   H1    S    
C44   C48   A    
C11   C29   A    
C33   H5    S    
C49   C50   S    
C27   C28   A    
C42   H10   S    
C14   C15   A    
C36   C43   S    
C35   H7    S    
C24   H4    S    
C32   H3    S    
C43   H13   S    
C23   C40   S    
