data_mof_unit_33019.cif
_audit_creation_date              2012-12-11T15:06:43-0500
_audit_creation_method            fapswitch 2.2
_symmetry_space_group_name_H-M    P1
_symmetry_Int_Tables_number       1
_space_group_crystal_system       triclinic
_cell_length_a                    7.233594
_cell_length_b                    15.042575
_cell_length_c                    22.317802
_cell_angle_alpha                 89.999438
_cell_angle_beta                  89.999503
_cell_angle_gamma                 90.000373
_cell_volume                      2428.44199873

loop_
_atom_site_label
_atom_site_type_symbol
_atom_type_description
_atom_site_fract_x
_atom_site_fract_y
_atom_site_fract_z
_atom_type_partial_charge
O1    O     O_R   0.390810 0.844810 0.447340 -0.535266
O2    O     O_R   0.109190 0.155190 0.947340 -0.535266
O3    O     O_R   0.890810 0.655190 0.552660 -0.535297
O4    O     O_R   0.609190 0.344810 0.052660 -0.535295
O5    O     O_R   0.720550 0.655820 0.440420 -0.548717
O6    O     O_R   0.779450 0.344180 0.940420 -0.548714
O7    O     O_R   0.220550 0.844180 0.559580 -0.548678
O8    O     O_R   0.279450 0.155820 0.059580 -0.548677
C1    C     C_R   0.551445 0.626795 0.426243 0.745292
C2    C     C_R   0.948553 0.373210 0.926246 0.745299
C3    C     C_R   0.051446 0.873205 0.573757 0.745383
C4    C     C_R   0.448552 0.126792 0.073755 0.745391
O9    O     O_R   0.720530 0.844130 0.440420 -0.532761
O10   O     O_R   0.779470 0.155870 0.940420 -0.532761
O11   O     O_R   0.220530 0.655870 0.559580 -0.532756
O12   O     O_R   0.279470 0.344130 0.059580 -0.532761
O13   O     O_R   0.890830 0.844810 0.552660 -0.526730
O14   O     O_R   0.609170 0.155190 0.052660 -0.526727
O15   O     O_R   0.390830 0.655190 0.447340 -0.526722
O16   O     O_R   0.109170 0.344810 0.947340 -0.526724
C5    C     C_R   0.552741 0.873200 0.426231 0.690588
C6    C     C_R   0.947260 0.126800 0.926231 0.690598
C7    C     C_R   0.052740 0.626799 0.573769 0.690529
C8    C     C_R   0.447260 0.373200 0.073769 0.690539
O17   O     O_3   0.557310 0.749980 0.536820 -0.378131
O18   O     O_3   0.942690 0.250020 0.036820 -0.378132
O19   O     O_3   0.057310 0.750020 0.463180 -0.378134
O20   O     O_3   0.442690 0.249980 0.963180 -0.378136
V1    V     V_3+5 0.832160 0.749980 0.493170 1.451660
V2    V     V_3+5 0.667840 0.250020 0.993170 1.451672
V3    V     V_3+5 0.332160 0.750020 0.506830 1.451729
V4    V     V_3+5 0.167840 0.249980 0.006830 1.451736
C9    C     C_R   0.027004 0.604757 0.867030 -0.242354
C10   C     C_R   0.472949 0.395259 0.367029 -0.242395
C11   C     C_R   0.527020 0.895251 0.132970 -0.242407
C12   C     C_R   0.973003 0.104749 0.632969 -0.242412
H1    H     H_    0.095512 0.726936 0.784527 0.157293
H2    H     H_    0.404438 0.273079 0.284530 0.157294
H3    H     H_    0.595579 0.773078 0.215470 0.157307
H4    H     H_    0.904483 0.226931 0.715467 0.157300
C13   C     C_R   0.964012 0.448446 0.884127 -0.155629
C14   C     C_R   0.535976 0.551564 0.384122 -0.155676
C15   C     C_R   0.464010 0.051558 0.115875 -0.155615
C16   C     C_R   0.035983 0.948438 0.615877 -0.155625
C17   C     C_R   0.061108 0.465885 0.593257 -0.229627
C18   C     C_R   0.438940 0.534113 0.093251 -0.229616
C19   C     C_R   0.561060 0.034115 0.406745 -0.229553
C20   C     C_R   0.938933 0.965886 0.906747 -0.229546
C21   C     C_R   0.085965 0.393348 0.631054 -0.199176
C22   C     C_R   0.414099 0.606654 0.131045 -0.199202
C23   C     C_R   0.585910 0.106655 0.368950 -0.199255
C24   C     C_R   0.914063 0.893346 0.868953 -0.199236
C25   C     C_R   0.091078 0.404512 0.693279 0.426461
C26   C     C_R   0.408962 0.595494 0.193270 0.426469
C27   C     C_R   0.591049 0.095493 0.306725 0.426467
C28   C     C_R   0.908919 0.904509 0.806728 0.426453
C29   C     C_R   0.052127 0.488962 0.718834 -0.008974
C30   C     C_R   0.447877 0.511045 0.218828 -0.008948
C31   C     C_R   0.552125 0.011043 0.281168 -0.008943
C32   C     C_R   0.947865 0.988959 0.781169 -0.008956
C33   C     C_R   0.051768 0.564269 0.679784 -0.001946
C34   C     C_R   0.448220 0.435736 0.179781 -0.001965
C35   C     C_R   0.551784 0.935734 0.320217 -0.001985
C36   C     C_R   0.948223 0.064268 0.820217 -0.001980
C37   C     C_R   0.026142 0.502286 0.781862 0.089579
C38   C     C_R   0.473847 0.497723 0.281858 0.089600
C39   C     C_R   0.526151 0.997720 0.218139 0.089624
C40   C     C_R   0.973846 0.002281 0.718140 0.089604
C41   C     C_R   0.041764 0.589542 0.805203 0.055931
C42   C     C_R   0.458202 0.410470 0.305201 0.055908
C43   C     C_R   0.541788 0.910466 0.194798 0.055946
C44   C     C_R   0.958231 0.089536 0.694797 0.055943
C45   C     C_R   0.071489 0.661210 0.766603 -0.132594
C46   C     C_R   0.428472 0.338803 0.266604 -0.132594
C47   C     C_R   0.571536 0.838801 0.233396 -0.132584
C48   C     C_R   0.928504 0.161205 0.733394 -0.132578
C49   C     C_R   0.064712 0.649735 0.704775 -0.149542
C50   C     C_R   0.435255 0.350273 0.204775 -0.149544
C51   C     C_R   0.564756 0.850271 0.295225 -0.149567
C52   C     C_R   0.935276 0.149734 0.795223 -0.149553
C53   C     C_R   0.980519 0.432705 0.822247 -0.275375
C54   C     C_R   0.519485 0.567303 0.322241 -0.275373
C55   C     C_R   0.480518 0.067299 0.177755 -0.275364
C56   C     C_R   0.019465 0.932698 0.677757 -0.275397
C57   C     C_R   0.987806 0.534925 0.906510 0.457540
C58   C     C_R   0.512135 0.465093 0.406505 0.457643
C59   C     C_R   0.487803 0.965083 0.093491 0.457586
C60   C     C_R   0.012199 0.034913 0.593492 0.457618
C61   C     C_R   0.049181 0.551892 0.616638 -0.067997
C62   C     C_R   0.450822 0.448109 0.116636 -0.067987
C63   C     C_R   0.549180 0.948109 0.383363 -0.067991
C64   C     C_R   0.950823 0.051893 0.883363 -0.067999
H5    H     H_    0.063837 0.455471 0.545239 0.136147
H6    H     H_    0.436241 0.544525 0.045232 0.136144
H7    H     H_    0.563754 0.044527 0.454765 0.136147
H8    H     H_    0.936245 0.955472 0.954766 0.136157
H9    H     H_    0.110701 0.328334 0.611824 0.135416
H10   H     H_    0.389398 0.671666 0.111812 0.135412
H11   H     H_    0.610617 0.171669 0.388182 0.135430
H12   H     H_    0.889343 0.828333 0.888186 0.135439
H13   H     H_    0.076870 0.707981 0.676627 0.099215
H14   H     H_    0.423090 0.292028 0.176629 0.099225
H15   H     H_    0.576930 0.792027 0.323371 0.099228
H16   H     H_    0.923118 0.207980 0.823369 0.099227
O21   O     O_3   0.985866 0.550107 0.967598 -0.556745
C65   C     C_3   0.812295 0.585603 0.983288 -0.260193
H17   H     H_    0.698094 0.539771 0.970527 0.133424
H18   H     H_    0.790733 0.652155 0.962742 0.134312
H19   H     H_    0.807513 0.594077 0.032639 0.171344
O22   O     O_3   0.514075 0.449913 0.467591 -0.556690
C66   C     C_3   0.687832 0.414406 0.483260 -0.259845
H20   H     H_    0.802121 0.460332 0.470531 0.133282
H21   H     H_    0.709520 0.347806 0.462666 0.134091
H22   H     H_    0.692542 0.405881 0.532610 0.171327
O23   O     O_3   0.485851 0.949917 0.032401 -0.556723
C67   C     C_3   0.312393 0.914188 0.016736 -0.259927
H23   H     H_    0.197851 0.959817 0.029607 0.133237
H24   H     H_    0.291357 0.847502 0.037201 0.134254
H25   H     H_    0.307512 0.905864 0.967370 0.171323
O24   O     O_3   0.014169 0.050081 0.532403 -0.556708
C68   C     C_3   0.187703 0.085784 0.516746 -0.259866
H26   H     H_    0.302235 0.040122 0.529619 0.133201
H27   H     H_    0.208796 0.152482 0.537216 0.134210
H28   H     H_    0.192595 0.094110 0.467382 0.171327
H29   H     H_    0.045752 0.671140 0.884932 0.125618
H30   H     H_    0.454215 0.328878 0.384936 0.125630
H31   H     H_    0.545785 0.828870 0.115068 0.125579
H32   H     H_    0.954264 0.171132 0.615065 0.125582
H33   H     H_    0.953936 0.366150 0.806569 0.165748
H34   H     H_    0.546092 0.633854 0.306561 0.165759
H35   H     H_    0.453927 0.133853 0.193433 0.165747
H36   H     H_    0.046040 0.866142 0.693437 0.165745
O25   O     O_3   0.151967 0.334163 0.727765 -0.575996
C69   C     C_3   0.344600 0.342224 0.735883 -0.250715
H37   H     H_    0.419198 0.339768 0.692273 0.141281
H38   H     H_    0.380354 0.404187 0.760573 0.144788
H39   H     H_    0.393207 0.285248 0.763236 0.166713
O26   O     O_3   0.348093 0.665846 0.227753 -0.576006
C70   C     C_3   0.155460 0.657821 0.235849 -0.250771
H40   H     H_    0.080923 0.660297 0.192233 0.141303
H41   H     H_    0.119631 0.595866 0.260530 0.144797
H42   H     H_    0.106866 0.714798 0.263201 0.166726
O27   O     O_3   0.651935 0.165841 0.272238 -0.576003
C71   C     C_3   0.844583 0.157838 0.264174 -0.250758
H43   H     H_    0.919043 0.160440 0.307796 0.141325
H44   H     H_    0.880516 0.095831 0.239573 0.144758
H45   H     H_    0.893163 0.214755 0.236765 0.166719
O28   O     O_3   0.848006 0.834163 0.772244 -0.575995
C72   C     C_3   0.655374 0.842210 0.764152 -0.250723
H46   H     H_    0.580849 0.839690 0.807769 0.141310
H47   H     H_    0.619549 0.904197 0.739505 0.144768
H48   H     H_    0.606760 0.785268 0.736771 0.166713

loop_
_geom_bond_atom_site_label_1
_geom_bond_atom_site_label_2
_ccdc_geom_bond_type
C30   C34   A    
O1    C5    A    
C27   C31   A    
C50   H14   S    
O13   V1    S    
O3    C7    A    
C66   H20   S    
C14   C54   A    
C44   C48   A    
C17   H5    S    
C69   H39   S    
C35   C51   A    
C12   C60   A    
C39   C55   A    
C30   C38   A    
C1    C14   S    
C22   C26   A    
C52   H16   S    
O9    V1    S    
C58   O22   S    
C4    C15   S    
C72   H47   S    
H2    C46   S    
O4    C8    A    
C70   H42   S    
C37   C41   A    
C39   C43   A    
O19   V1    S    
C65   H17   S    
C12   C44   A    
O27   C71   S    
C19   H7    S    
O1    V3    S    
C15   C55   A    
C67   H23   S    
C27   O27   S    
O2    V4    S    
C10   C58   A    
O3    V1    S    
C9    C57   A    
O22   C66   S    
C68   H28   S    
C31   C39   A    
C11   C59   A    
C1    O15   A    
C33   C49   A    
O2    C6    A    
C7    C61   S    
C41   C45   A    
C14   C58   A    
H3    C47   S    
O8    C4    A    
C60   O24   S    
C17   C61   A    
C10   C42   A    
C59   O23   S    
O16   V4    S    
C9    C41   A    
O11   C7    A    
O15   V3    S    
O12   C8    A    
C2    C13   S    
C36   C52   A    
C51   H15   S    
C12   H32   S    
O10   V2    S    
C71   H45   S    
C57   O21   S    
C33   C61   A    
O5    V1    S    
C23   H11   S    
C22   H10   S    
O7    V3    S    
C40   C56   A    
C25   O25   S    
O28   C72   S    
C71   H44   S    
C72   H48   S    
C2    O16   A    
C25   C29   A    
O18   V4    S    
C19   C23   A    
C21   H9    S    
O11   V3    S    
C56   H36   S    
H4    C48   S    
C40   C44   A    
O8    V4    S    
C28   O28   S    
O7    C3    A    
C42   C46   A    
C5    C63   S    
C38   C54   A    
C53   H33   S    
C18   H6    S    
C17   C21   A    
C10   H30   S    
C13   C53   A    
C9    H29   S    
O9    C5    A    
C3    C16   S    
C66   H21   S    
C11   H31   S    
C68   H26   S    
O14   V2    S    
O6    V2    S    
C20   C64   A    
O25   C69   S    
C54   H34   S    
C36   C64   A    
C35   C63   A    
O24   C68   S    
C26   C30   A    
H1    C45   S    
C3    O13   A    
C6    C64   S    
C20   H8    S    
C19   C63   A    
O17   V3    S    
C34   C50   A    
C48   C52   A    
C29   C37   A    
C71   H43   S    
C16   C56   A    
C8    C62   S    
O6    C2    A    
C69   H38   S    
C70   H40   S    
C29   C33   A    
C69   H37   S    
C18   C62   A    
O12   V4    S    
C13   C57   A    
O21   C65   S    
C18   C22   A    
C31   C35   A    
C67   H25   S    
C32   C36   A    
C15   C59   A    
O10   C6    A    
O20   V2    S    
C55   H35   S    
C72   H46   S    
C43   C47   A    
C70   H41   S    
O23   C67   S    
C26   O26   S    
C65   H18   S    
C21   C25   A    
C34   C62   A    
C67   H24   S    
C49   H13   S    
C66   H22   S    
C23   C27   A    
C68   H27   S    
O26   C70   S    
C11   C43   A    
C28   C32   A    
C20   C24   A    
C38   C42   A    
C32   C40   A    
C46   C50   A    
C4    O14   A    
C24   H12   S    
C45   C49   A    
C37   C53   A    
O5    C1    A    
C16   C60   A    
C47   C51   A    
O4    V2    S    
C24   C28   A    
C65   H19   S    
