data_mof_unit_26685.cif
_audit_creation_date              2012-12-11T16:09:30-0500
_audit_creation_method            fapswitch 2.2
_symmetry_space_group_name_H-M    P1
_symmetry_Int_Tables_number       1
_space_group_crystal_system       triclinic
_cell_length_a                    6.976065
_cell_length_b                    21.352125
_cell_length_c                    23.62648
_cell_angle_alpha                 89.986839
_cell_angle_beta                  90.159572
_cell_angle_gamma                 90.027377
_cell_volume                      3519.24011537

loop_
_atom_site_label
_atom_site_type_symbol
_atom_type_description
_atom_site_fract_x
_atom_site_fract_y
_atom_site_fract_z
_atom_type_partial_charge
O1    O     O_R   0.494270 0.443530 0.442350 -0.529203
O2    O     O_R   0.824060 0.436290 0.557250 -0.537361
O3    O     O_R   0.994370 0.556470 0.557650 -0.534480
C1    C     C_R   0.655478 0.421171 0.576593 0.722483
O4    O     O_R   0.823990 0.436120 0.442760 -0.534913
O5    O     O_R   0.994300 0.556300 0.442340 -0.533397
C2    C     C_R   0.654946 0.420991 0.423423 0.717948
O6    O     O_R   0.494350 0.443700 0.557660 -0.532036
O7    O     O_3   0.660800 0.539430 0.500000 -0.370575
V1    V     V_3+5 0.935650 0.492690 0.500000 1.475378
O8    O     O_R   0.324020 0.563710 0.442750 -0.537172
C3    C     C_R   0.155087 0.578817 0.423345 0.721280
O9    O     O_R   0.324090 0.563880 0.557240 -0.538315
C4    C     C_R   0.155520 0.578974 0.576564 0.715567
V2    V     V_3+5 0.435660 0.507310 0.500000 1.473150
O10   O     O_3   0.160640 0.460570 0.500000 -0.364739
C5    C     C_3   0.063917 0.720332 0.796404 0.282867
C6    C     C_3   0.247711 0.706741 0.762077 -0.287013
C7    C     C_1   0.146259 0.624674 0.621909 -0.177558
C8    C     C_1   0.073329 0.874708 0.877190 -0.160861
C9    C     C_3   0.944167 0.721317 0.742057 0.349855
C10   C     C_3   0.125001 0.708515 0.707028 0.042097
C11   C     C_3   0.972989 0.792859 0.736506 -0.272694
C12   C     C_3   0.094939 0.791377 0.791656 0.071448
C13   C     C_3   0.157477 0.780168 0.700878 -0.239096
C14   C     C_3   0.275153 0.778377 0.756413 0.376087
C15   C     C_1   0.137169 0.662566 0.660153 0.049656
C16   C     C_1   0.082542 0.837000 0.838801 0.086052
C17   C     C_3   0.249419 0.812300 0.252240 0.236289
C18   C     C_3   0.899905 0.784356 0.237629 -0.365189
C19   C     C_3   0.913772 0.736566 0.287683 0.220117
H1    H     H_    0.225146 0.787675 0.342932 0.164463
C20   C     C_1   0.144841 0.624531 0.377842 -0.161521
C21   C     C_3   0.096846 0.791383 0.207707 0.227459
C22   C     C_3   0.260122 0.764260 0.302153 -0.450234
C23   C     C_3   0.120358 0.708683 0.292219 0.179568
C24   C     C_3   0.176076 0.678087 0.234919 -0.345820
C25   C     C_3   0.155846 0.725771 0.185421 -0.442353
C26   C     C_1   0.134548 0.662436 0.339482 0.001262
C27   C     C_1   0.084064 0.837189 0.160038 -0.017761
C28   C     C_1   0.074364 0.874868 0.121483 -0.171564
H2    H     H_    0.327037 0.661355 0.237088 0.175215
C29   C     C_3   0.414598 0.268997 0.715621 0.155630
C30   C     C_3   0.744920 0.230203 0.692735 0.139322
C31   C     C_3   0.731963 0.181146 0.742843 0.659004
H3    H     H_    0.331782 0.177016 0.749851 0.215217
C32   C     C_1   0.573357 0.123772 0.877185 -0.166109
C33   C     C_3   0.627087 0.290495 0.707065 0.012677
C34   C     C_3   0.398525 0.221078 0.765506 -0.437683
C35   C     C_3   0.599359 0.207254 0.791164 0.045621
C36   C     C_3   0.678565 0.270877 0.813208 -0.426811
C37   C     C_3   0.703232 0.318784 0.763995 0.249865
C38   C     C_1   0.583636 0.161480 0.838740 0.077348
C39   C     C_1   0.638041 0.337193 0.660025 0.004421
C40   C     C_1   0.646384 0.375319 0.621880 -0.169139
H4    H     H_    0.302235 0.239259 0.799173 0.178283
C41   C     C_3   0.410032 0.290288 0.267437 0.595811
C42   C     C_3   0.762235 0.309812 0.242135 0.528367
C43   C     C_3   0.755455 0.257901 0.194142 0.008775
C44   C     C_1   0.574630 0.124073 0.121201 -0.186595
C45   C     C_3   0.620330 0.291261 0.291960 -0.042718
C46   C     C_3   0.402632 0.245032 0.213914 0.042418
C47   C     C_3   0.595978 0.208611 0.206737 -0.050405
C48   C     C_3   0.655421 0.175231 0.263162 0.036318
C49   C     C_3   0.675173 0.223432 0.313850 0.500752
C50   C     C_1   0.584338 0.162063 0.159453 0.149263
C51   C     C_1   0.633796 0.337527 0.339600 0.228950
C52   C     C_1   0.644298 0.375326 0.377984 -0.155311
O11   O     O_R   0.724990 0.055630 0.941600 -0.532178
O12   O     O_R   0.395220 0.063160 0.056480 -0.538350
O13   O     O_R   0.225040 0.942970 0.056870 -0.535048
C53   C     C_R   0.564218 0.078303 0.075837 0.716868
O14   O     O_R   0.395270 0.063000 0.941990 -0.537429
O15   O     O_R   0.225080 0.942800 0.941570 -0.531878
C54   C     C_R   0.563879 0.078148 0.922663 0.723819
O16   O     O_R   0.724940 0.055790 0.056910 -0.535613
O17   O     O_3   0.558580 0.959880 0.999250 -0.367498
V3    V     V_3+5 0.283680 0.006590 0.999220 1.458128
O18   O     O_R   0.895380 0.935350 0.941950 -0.534831
C55   C     C_R   0.063980 0.920281 0.922636 0.726161
O19   O     O_R   0.895330 0.935520 0.056440 -0.538599
C56   C     C_R   0.064258 0.920434 0.075856 0.725810
V4    V     V_3+5 0.783690 0.991900 0.999180 1.463072
O20   O     O_3   0.058660 0.038680 0.999200 -0.370481
H5    H     H_    0.358747 0.671630 0.773169 0.153868
H6    H     H_    0.852070 0.830573 0.254119 0.167074
H7    H     H_    0.883659 0.762510 0.327541 0.123118
O21   O     O_3   0.773450 0.689344 0.283262 -0.652026
H8    H     H_    0.782377 0.670420 0.245046 0.296588
H9    H     H_    0.294396 0.729058 0.162360 0.157834
H10   H     H_    0.046697 0.708439 0.154751 0.169689
H11   H     H_    0.392018 0.814071 0.230919 0.080395
H12   H     H_    0.409564 0.746545 0.306134 0.176061
H13   H     H_    0.086125 0.636150 0.226374 0.164528
O22   O     O_3   0.010807 0.689623 0.846210 -0.631269
H14   H     H_    0.003175 0.644644 0.836082 0.300691
H15   H     H_    0.366804 0.244682 0.676361 0.161438
O23   O     O_3   0.937285 0.244859 0.680510 -0.593341
H16   H     H_    0.942469 0.259099 0.640542 0.306994
H17   H     H_    0.679697 0.208546 0.654139 0.052713
O24   O     O_3   0.649558 0.125428 0.722078 -0.651423
H18   H     H_    0.742616 0.106576 0.695287 0.309878
O25   O     O_3   0.914971 0.166116 0.764766 -0.627852
H19   H     H_    0.979516 0.205288 0.776528 0.322325
H20   H     H_    0.619359 0.361575 0.774776 0.075971
O26   O     O_3   0.897407 0.335631 0.759725 -0.599534
H21   H     H_    0.902671 0.376348 0.739494 0.311325
H22   H     H_    0.577069 0.290595 0.844825 0.136136
O27   O     O_3   0.290438 0.320335 0.722884 -0.594210
H23   H     H_    0.309636 0.337408 0.761493 0.310608
O28   O     O_3   0.449230 0.809528 0.764495 -0.635930
H24   H     H_    0.526139 0.799800 0.730441 0.294889
H25   H     H_    0.815640 0.264225 0.836544 0.184898
H26   H     H_    0.384578 0.274637 0.175278 0.133629
O29   O     O_3   0.361265 0.351862 0.251324 -0.638118
H27   H     H_    0.247654 0.350366 0.226157 0.323775
O30   O     O_3   0.950225 0.311483 0.263036 -0.594929
H28   H     H_    0.963738 0.349199 0.287326 0.344021
O31   O     O_3   0.721056 0.370507 0.221002 -0.627887
H29   H     H_    0.621228 0.368361 0.191247 0.337519
O32   O     O_3   0.730637 0.283592 0.139726 -0.652535
H30   H     H_    0.853178 0.304511 0.129770 0.316436
H31   H     H_    0.894325 0.232196 0.193949 0.167579
O33   O     O_3   0.556012 0.207055 0.359724 -0.637624
H32   H     H_    0.599590 0.166050 0.374794 0.312848
O34   O     O_3   0.866418 0.224366 0.333579 -0.609102
H33   H     H_    0.900862 0.181436 0.346145 0.295036
O35   O     O_3   0.536960 0.123632 0.275751 -0.623854
H34   H     H_    0.408296 0.139193 0.285846 0.347695
H35   H     H_    0.200427 0.805011 0.661632 0.146085
O36   O     O_3   0.279623 0.273327 0.310493 -0.563244
H36   H     H_    0.263236 0.227454 0.311988 0.359461
O37   O     O_3   0.245195 0.203879 0.216409 -0.644606
H37   H     H_    0.214409 0.190931 0.177060 0.294553
H38   H     H_    0.799666 0.154571 0.255618 0.155139
H39   H     H_    0.860740 0.827764 0.725979 0.159541
O38   O     O_3   0.770209 0.689903 0.734577 -0.643949
H40   H     H_    0.692254 0.701087 0.768050 0.305381
O39   O     O_3   0.204676 0.872254 0.272922 -0.637351
H41   H     H_    0.321628 0.888100 0.292228 0.298110
H42   H     H_    0.789549 0.769284 0.206355 0.135345

loop_
_geom_bond_atom_site_label_1
_geom_bond_atom_site_label_2
_ccdc_geom_bond_type
C43   O32   S    
O24   H18   S    
O12   V3    S    
O22   H14   S    
C6    C14   S    
C9    O38   S    
C1    O6    A    
O35   H34   S    
O19   C56   A    
C41   C46   S    
C41   O29   S    
O17   V3    S    
C33   C39   S    
H3    C34   S    
C36   H25   S    
C18   H42   S    
C11   H39   S    
C21   C27   S    
C46   O37   S    
C23   C24   S    
C12   C14   S    
C46   H26   S    
O5    C3    A    
C18   C19   S    
O26   H21   S    
C44   C53   S    
O29   H27   S    
C49   O33   S    
C24   H2    S    
C31   O25   S    
O1    C2    A    
C2    C52   S    
C30   O23   S    
C22   C23   S    
C36   H22   S    
C48   O35   S    
C10   C13   S    
C11   C12   S    
C5    O22   S    
C18   H6    S    
C6    C10   S    
C7    C15   T    
C29   C33   S    
C53   O16   A    
C32   C38   T    
O13   C56   A    
C42   C45   S    
C47   C50   S    
C44   C50   T    
O15   C55   A    
O9    C4    A    
O14   C54   A    
O8    V2    S    
C13   H35   S    
O16   V4    S    
O19   V4    S    
C35   C36   S    
C22   H12   S    
C43   H31   S    
C17   O39   S    
C17   H11   S    
C5    C12   S    
C19   H7    S    
V2    O10   S    
C18   C21   S    
C36   C37   S    
C35   C38   S    
H1    C22   S    
C29   H15   S    
O4    C2    A    
C8    C55   S    
C29   C34   S    
C8    C16   T    
C42   C43   S    
C17   C21   S    
C42   O30   S    
C5    C9    S    
C51   C52   T    
O2    C1    A    
C24   C25   S    
O11   V4    S    
V3    O20   S    
C45   C51   S    
V4    O20   S    
O14   V3    S    
C46   C47   S    
C5    C6    S    
C20   C26   T    
O31   H29   S    
O32   H30   S    
O3    C4    A    
C31   O24   S    
O1    V2    S    
C27   C28   T    
C37   H20   S    
C34   C35   S    
O6    V2    S    
C10   C15   S    
O9    V2    S    
C1    C40   S    
O37   H37   S    
O36   H36   S    
O2    V1    S    
C30   C31   S    
O7    V1    S    
C17   C22   S    
C39   C40   T    
C19   O21   S    
O28   H24   S    
C6    H5    S    
C21   C25   S    
C4    C7    S    
C41   O36   S    
C23   C26   S    
C12   C16   S    
C47   C48   S    
O5    V1    S    
O39   H41   S    
C41   C45   S    
C34   H4    S    
O38   H40   S    
C25   H9    S    
C43   C47   S    
C48   C49   S    
C9    C11   S    
C13   C14   S    
C32   C54   S    
O4    V1    S    
O3    V1    S    
V1    O10   S    
O30   H28   S    
C49   O34   S    
O18   V4    S    
C30   H17   S    
C31   C35   S    
O34   H33   S    
C28   C56   S    
C25   H10   S    
C42   O31   S    
C24   H13   S    
O11   C54   A    
C11   C13   S    
O7    V2    S    
C48   H38   S    
C37   O26   S    
O18   C55   A    
C45   C49   S    
C33   C37   S    
O21   H8    S    
O23   H16   S    
O15   V3    S    
O27   H23   S    
O25   H19   S    
O17   V4    S    
C19   C23   S    
O12   C53   A    
C29   O27   S    
C3    C20   S    
C9    C10   S    
C14   O28   S    
O13   V3    S    
C30   C33   S    
O8    C3    A    
O33   H32   S    
