data_mof_unit_9030.cif
_audit_creation_date              2012-12-10T17:37:49-0500
_audit_creation_method            fapswitch 2.2
_symmetry_space_group_name_H-M    P1
_symmetry_Int_Tables_number       1
_space_group_crystal_system       triclinic
_cell_length_a                    12.324183
_cell_length_b                    13.142467
_cell_length_c                    17.237459
_cell_angle_alpha                 104.23556
_cell_angle_beta                  75.487928
_cell_angle_gamma                 116.403427
_cell_volume                      2391.63514729

loop_
_atom_site_label
_atom_site_type_symbol
_atom_type_description
_atom_site_fract_x
_atom_site_fract_y
_atom_site_fract_z
_atom_type_partial_charge
C1    C     C_R   0.144459 0.713672 0.506907 0.779186
C2    C     C_R   0.883838 0.514709 0.795777 -0.253395
C3    C     C_R   0.863396 0.425721 0.163170 0.213979
C4    C     C_R   0.881762 0.450437 0.243468 -0.195599
C5    C     C_R   0.087198 0.455899 0.199894 -0.212406
C6    C     C_R   0.070141 0.431942 0.119419 -0.210960
C7    C     C_R   0.960052 0.419459 0.100805 0.164642
C8    C     C_2   0.951951 0.497746 0.990577 -0.219484
C9    C     C_2   0.952895 0.409925 0.015933 -0.224118
C10   C     C_R   0.994013 0.467719 0.262303 -0.068328
C11   C     C_R   0.732634 0.975663 0.392767 -0.192229
C12   C     C_R   0.988471 0.503314 0.652567 0.820218
C13   C     C_R   0.774156 0.164702 0.471378 -0.045948
C14   C     C_R   0.180243 0.916941 0.558334 -0.184233
C15   C     C_R   0.257799 0.032209 0.573984 -0.149586
C16   C     C_R   0.383217 0.068926 0.546174 -0.194799
C17   C     C_R   0.433652 0.990812 0.498669 0.076828
C18   C     C_R   0.352073 0.875757 0.474924 0.083666
C19   C     C_R   0.562194 0.023378 0.473107 0.070167
C20   C     C_R   0.606111 0.944603 0.418433 0.167575
C21   C     C_R   0.523324 0.836755 0.388357 -0.242613
C22   C     C_R   0.398272 0.803443 0.415069 -0.202706
C23   C     C_R   0.855958 0.286278 0.488018 0.792239
C24   C     C_R   0.648818 0.131750 0.500769 -0.242365
C25   C     C_R   0.816368 0.085592 0.418698 -0.196533
C26   C     C_R   0.226188 0.837008 0.510910 -0.106511
C27   C     C_R   0.639991 0.671402 0.628961 -0.346199
C28   C     C_R   0.244094 0.348899 0.392293 0.042653
C29   C     C_R   0.334570 0.307281 0.372543 -0.309679
C30   C     C_R   0.434537 0.357684 0.414305 0.157030
C31   C     C_R   0.447621 0.457249 0.474469 -0.002783
C32   C     C_R   0.348058 0.492802 0.494536 0.238107
C33   C     C_R   0.550409 0.520918 0.518154 -0.025128
C34   C     C_R   0.007697 0.491112 0.347691 0.789203
C35   C     C_R   0.545403 0.610583 0.582876 0.140920
C36   C     C_R   0.446380 0.640384 0.601671 -0.280825
C37   C     C_R   0.350322 0.582914 0.558566 -0.138384
C38   C     C_R   0.660084 0.503322 0.500333 -0.012951
C39   C     C_R   0.741922 0.645447 0.610737 0.375473
C40   C     C_R   0.983666 0.503711 0.739193 -0.083804
C41   C     C_R   0.076989 0.493106 0.766590 0.142925
C42   C     C_R   0.068830 0.493311 0.849195 0.141091
C43   C     C_R   0.965167 0.499737 0.904255 0.109910
C44   C     C_R   0.874891 0.512845 0.877466 -0.201823
Cu1   Cu    Cu3+1 0.900140 0.524980 0.518800 0.955495
Cu2   Cu    Cu3+1 0.099860 0.475020 0.481200 0.932073
H1    H     H_    0.144352 0.426773 0.071398 0.138610
H2    H     H_    0.913225 0.110056 0.395112 0.147429
H3    H     H_    0.555336 0.777691 0.343803 0.143708
H4    H     H_    0.766543 0.915904 0.350869 0.133324
H5    H     H_    0.621393 0.193318 0.544868 0.151332
H6    H     H_    0.084307 0.890029 0.585113 0.156699
H7    H     H_    0.437444 0.159556 0.561314 0.137245
H8    H     H_    0.220963 0.093178 0.610131 0.142177
H9    H     H_    0.338692 0.721380 0.386142 0.176042
H10   H     H_    0.807397 0.455256 0.291470 0.153508
H11   H     H_    0.442345 0.708803 0.651033 0.150684
H12   H     H_    0.635087 0.738951 0.678819 0.138571
H13   H     H_    0.680023 0.446461 0.448407 0.182458
H14   H     H_    0.165935 0.306870 0.360771 0.137490
H15   H     H_    0.324884 0.232574 0.326233 0.147033
H16   H     H_    0.276921 0.609640 0.579953 0.216217
H17   H     H_    0.173457 0.466882 0.213206 0.155181
H18   H     H_    0.960922 0.336617 0.973287 0.148496
H19   H     H_    0.796388 0.520258 0.919889 0.146429
H20   H     H_    0.811403 0.523546 0.776894 0.171495
H21   H     H_    0.943439 0.570591 0.033778 0.157221
N1    N     N_R   0.749710 0.562810 0.547300 -0.186791
N2    N     N_R   0.249640 0.437820 0.453210 -0.206272
O1    O     O_R   0.025490 0.682370 0.523640 -0.550293
O2    O     O_R   0.194150 0.640180 0.491890 -0.611024
O3    O     O_R   0.905900 0.523560 0.631310 -0.562989
O4    O     O_R   0.074570 0.481370 0.599560 -0.566152
O5    O     O_R   0.805850 0.359820 0.508110 -0.585836
O6    O     O_R   0.974510 0.317630 0.476360 -0.589143
O7    O     O_R   0.925430 0.518630 0.400440 -0.594242
O8    O     O_R   0.094100 0.476440 0.368690 -0.596416
N3    N     N_3   0.180747 0.482335 0.711034 -0.569288
H22   H     H_    0.260394 0.549034 0.729905 0.235203
H23   H     H_    0.182039 0.404336 0.713905 0.231738
N4    N     N_3   0.839269 0.707007 0.657428 -0.532393
H24   H     H_    0.870943 0.794605 0.655330 0.181000
H25   H     H_    0.802821 0.694676 0.717748 0.187119
N5    N     N_3   0.514944 0.300533 0.398477 -0.633593
H26   H     H_    0.552451 0.296446 0.336820 0.213485
H27   H     H_    0.463170 0.216383 0.410656 0.235033
C45   C     C_3   0.740538 0.404184 0.145311 -0.892306
H28   H     H_    0.672430 0.402661 0.201656 0.221725
H29   H     H_    0.749867 0.472848 0.114239 0.232806
H30   H     H_    0.703730 0.319705 0.106052 0.239893
N6    N     N_3   0.170015 0.492794 0.875955 -0.625185
H31   H     H_    0.143455 0.414433 0.894977 0.213418
H32   H     H_    0.196260 0.559665 0.924285 0.229164

loop_
_geom_bond_atom_site_label_1
_geom_bond_atom_site_label_2
_ccdc_geom_bond_type
C45   H28   S    
C9    H18   S    
C41   C42   A    
C28   N2    A    
C18   C26   A    
C8    C43   S    
C21   H3    S    
N4    H24   S    
C22   H9    S    
Cu1   Cu2   S    
C5    H17   S    
C1    O2    A    
Cu1   O7    S    
C36   C37   A    
N5    H27   S    
C3    C7    A    
C34   O8    A    
C30   C31   A    
N3    H23   S    
C11   C25   A    
C15   C16   A    
C13   C23   S    
C42   N6    S    
C39   N1    A    
C16   H7    S    
Cu2   N2    S    
C17   C19   A    
C14   H6    S    
C35   C36   A    
C2    C44   A    
C8    C9    D    
C31   C33   A    
C24   H5    S    
C12   O3    A    
C21   C22   A    
C4    H10   S    
Cu1   O3    S    
C13   C25   A    
C44   H19   S    
Cu2   O6    S    
N4    H25   S    
C37   H16   S    
C28   H14   S    
C29   H15   S    
C11   C20   A    
C6    H1    S    
C3    C45   S    
C15   H8    S    
N5    H26   S    
C39   N4    S    
C36   H11   S    
C27   C39   A    
C41   N3    S    
N3    H22   S    
C16   C17   A    
C27   C35   A    
C13   C24   A    
Cu1   O5    S    
C12   C40   S    
C43   C44   A    
C29   C30   A    
N6    H32   S    
C31   C32   A    
Cu1   N1    S    
C17   C18   A    
C10   C34   S    
C32   C37   A    
C14   C26   A    
C25   H2    S    
Cu2   O2    S    
C32   N2    A    
C40   C41   A    
C38   N1    A    
C45   H29   S    
C1    C26   S    
C42   C43   A    
C23   O5    A    
C4    C10   A    
C3    C4    A    
N6    H31   S    
C7    C9    S    
C28   C29   A    
Cu1   O1    S    
C18   C22   A    
C1    O1    A    
C23   O6    A    
C2    H20   S    
C27   H12   S    
Cu2   O8    S    
C6    C7    A    
C33   C38   A    
C19   C20   A    
C19   C24   A    
C5    C10   A    
C11   H4    S    
C5    C6    A    
C33   C35   A    
C30   N5    S    
C38   H13   S    
C2    C40   A    
C20   C21   A    
C8    H21   S    
C45   H30   S    
C14   C15   A    
C12   O4    A    
Cu2   O4    S    
C34   O7    A    
