data_mof_unit_48612.cif
_audit_creation_date              2012-12-10T20:50:11-0500
_audit_creation_method            fapswitch 2.2
_symmetry_space_group_name_H-M    P1
_symmetry_Int_Tables_number       1
_space_group_crystal_system       triclinic
_cell_length_a                    18.585888
_cell_length_b                    8.952496
_cell_length_c                    8.0776
_cell_angle_alpha                 89.9997
_cell_angle_beta                  89.651815
_cell_angle_gamma                 90.000706
_cell_volume                      1344.00775729

loop_
_atom_site_label
_atom_site_type_symbol
_atom_type_description
_atom_site_fract_x
_atom_site_fract_y
_atom_site_fract_z
_atom_type_partial_charge
C1    C     C_R   0.500000 0.217815 0.500000 0.901057
C2    C     C_R   0.260749 0.359074 0.367990 0.293626
C3    C     C_R   0.177400 0.386723 0.658407 0.422071
C4    C     C_R   0.822597 0.386725 0.341591 0.422087
C5    C     C_R   0.805648 0.287618 0.620045 0.401450
C6    C     C_R   0.194346 0.287628 0.379949 0.401465
C7    C     C_R   0.150133 0.308724 0.520354 -0.308115
C8    C     C_R   0.849862 0.308719 0.479642 -0.308103
C9    C     C_R   0.287419 0.444018 0.502278 -0.401376
C10   C     C_R   0.712580 0.444022 0.497723 -0.401360
C11   C     C_R   0.927171 0.269794 0.488822 0.333468
C12   C     C_R   0.500000 0.782175 0.500000 0.916428
C13   C     C_R   0.072823 0.269798 0.511176 0.333466
C14   C     C_3   0.114434 0.517896 0.860050 0.154295
C15   C     C_3   0.126647 0.534050 0.046264 -0.225158
C16   C     C_3   0.099661 0.683442 0.111970 -1.075243
C17   C     C_3   0.885561 0.517882 0.139919 0.154293
C18   C     C_3   0.873302 0.534059 0.953726 -0.225139
C19   C     C_3   0.900320 0.683418 0.887984 -1.075209
C20   C     C_3   0.818638 0.043229 0.699953 0.132567
C21   C     C_3   0.739685 0.991874 0.706068 -0.367544
C22   C     C_3   0.732570 0.823980 0.677864 -0.938708
C23   C     C_R   0.363512 0.492794 0.500453 0.910726
C24   C     C_3   0.181347 0.043246 0.300022 0.132572
C25   C     C_3   0.260298 0.991882 0.293892 -0.367563
C26   C     C_3   0.267408 0.823983 0.322065 -0.938685
C27   C     C_R   0.636488 0.492796 0.499547 0.910721
C28   C     C_1   0.500000 0.065117 0.500000 -0.193416
C29   C     C_1   0.500000 0.934883 0.499999 -0.188337
C30   C     C_R   0.245174 0.456511 0.648583 0.292704
C31   C     C_R   0.754827 0.456522 0.351420 0.292715
C32   C     C_R   0.739247 0.359070 0.632008 0.293619
H1    H     H_    0.294224 0.624225 0.746790 0.331884
H2    H     H_    0.123924 0.776260 0.039706 0.281697
H3    H     H_    0.114694 0.695098 0.244165 0.269423
H4    H     H_    0.944266 0.519805 0.164240 0.138297
H5    H     H_    0.861325 0.615457 0.205733 0.123410
H6    H     H_    0.901571 0.442456 0.887324 0.253220
H7    H     H_    0.814823 0.524605 0.927905 0.284813
H8    H     H_    0.959600 0.690132 0.895772 0.272406
H9    H     H_    0.876111 0.776272 0.960292 0.281694
H10   H     H_    0.885251 0.695100 0.755813 0.269418
H11   H     H_    0.849886 0.975516 0.788703 0.179567
H12   H     H_    0.705778 0.624244 0.253227 0.331889
H13   H     H_    0.842382 0.020608 0.575422 0.116474
H14   H     H_    0.715810 0.020457 0.828505 0.261939
H15   H     H_    0.708751 0.050069 0.608098 0.199916
H16   H     H_    0.759763 0.790621 0.560705 0.246954
H17   H     H_    0.674738 0.793924 0.669597 0.274551
H18   H     H_    0.756234 0.761557 0.782864 0.288643
H19   H     H_    0.150093 0.975543 0.211272 0.179571
H20   H     H_    0.157606 0.020619 0.424555 0.116466
H21   H     H_    0.284173 0.020482 0.171460 0.261946
H22   H     H_    0.291236 0.050060 0.391871 0.199914
H23   H     H_    0.656425 0.279024 0.741536 0.333706
H24   H     H_    0.240220 0.790609 0.439226 0.246955
H25   H     H_    0.325239 0.793919 0.330311 0.274563
H26   H     H_    0.243736 0.761578 0.217063 0.288649
H27   H     H_    0.343571 0.279033 0.258456 0.333704
H28   H     H_    0.055735 0.519845 0.835644 0.138240
H29   H     H_    0.138699 0.615468 0.794281 0.123446
H30   H     H_    0.098332 0.442481 0.112624 0.253172
H31   H     H_    0.185116 0.524521 0.072166 0.284819
H32   H     H_    0.040387 0.690245 0.104086 0.272432
N1    N     N_1   0.500000 0.500000 0.073640 0.000044
N2    N     N_1   0.500000 0.500000 0.926360 0.000045
N3    N     N_R   0.040028 0.265327 0.361597 -0.151553
N4    N     N_R   0.959966 0.265325 0.638401 -0.151541
N5    N     N_R   0.968744 0.264956 0.350597 -0.126738
N6    N     N_R   0.031250 0.264958 0.649401 -0.126724
O1    O     O_R   0.500000 0.285350 0.636850 -0.618748
O2    O     O_3   0.730982 0.533177 0.214128 -0.709904
O3    O     O_3   0.699770 0.336080 0.774474 -0.675450
O4    O     O_3   0.300225 0.336088 0.225521 -0.675436
O5    O     O_3   0.141872 0.377566 0.809522 -0.570554
O6    O     O_3   0.858123 0.377558 0.190473 -0.570574
O7    O     O_3   0.826025 0.194673 0.748711 -0.576998
O8    O     O_3   0.173965 0.194694 0.251276 -0.576983
O9    O     O_R   0.500000 0.714650 0.363150 -0.617411
O10   O     O_R   0.500000 0.714650 0.636850 -0.617413
O11   O     O_R   0.500000 0.285350 0.363150 -0.618747
O12   O     O_R   0.398140 0.500000 0.636920 -0.584524
O13   O     O_R   0.601860 0.500000 0.363080 -0.584523
O14   O     O_R   0.601860 0.500000 0.636920 -0.586705
O15   O     O_R   0.398140 0.500000 0.363080 -0.586707
O16   O     O_3   0.269022 0.533152 0.785882 -0.709853
Zn1   Zn    Zn3+2 0.500000 0.500000 0.682780 1.018922
Zn2   Zn    Zn3+2 0.500000 0.500000 0.317220 1.018921

loop_
_geom_bond_atom_site_label_1
_geom_bond_atom_site_label_2
_ccdc_geom_bond_type
C10   C27   S    
C24   H20   S    
C22   H16   S    
C23   O12   A    
C12   C29   S    
O14   Zn1   S    
C4    C8    A    
C1    O1    A    
C20   O7    S    
C28   C29   T    
C25   H21   S    
O10   Zn1   S    
C3    C7    A    
C16   H3    S    
C6    O8    S    
C13   N6    A    
C1    O11   A    
O12   Zn1   S    
C12   O9    A    
C18   C19   S    
C16   H2    S    
C10   C31   A    
C17   O6    S    
C17   H4    S    
C30   O16   S    
C3    O5    S    
C20   H13   S    
C2    O4    S    
C19   H10   S    
C22   H18   S    
C5    C32   A    
C24   H19   S    
O13   Zn2   S    
C21   C22   S    
C2    C6    A    
O9    Zn2   S    
C4    C31   A    
C25   H22   S    
C32   O3    S    
C9    C23   S    
C25   C26   S    
C14   H29   S    
N3    N5    A    
C3    C30   A    
C18   H7    S    
C1    C28   S    
C17   C18   S    
C19   H9    S    
C17   H5    S    
C24   C25   S    
C26   H26   S    
H27   O4    S    
C9    C30   A    
C22   H17   S    
O1    Zn1   S    
C24   O8    S    
C31   O2    S    
C5    O7    S    
N2    Zn1   S    
C20   H11   S    
C11   N4    A    
N1    Zn2   S    
C21   H14   S    
C13   N3    A    
O15   Zn2   S    
C27   O14   A    
C26   H24   S    
C5    C8    A    
C11   N5    A    
C6    C7    A    
C14   H28   S    
C14   O5    S    
C27   O13   A    
C18   H6    S    
C8    C11   S    
C12   O10   A    
C15   H30   S    
H12   O2    S    
C26   H25   S    
C4    O6    S    
O11   Zn2   S    
C19   H8    S    
H23   O3    S    
C10   C32   A    
C7    C13   S    
C20   C21   S    
N4    N6    A    
N1    N2    T    
C23   O15   A    
C15   H31   S    
C14   C15   S    
C16   H32   S    
C2    C9    A    
H1    O16   S    
C15   C16   S    
C21   H15   S    
