data_mof_unit_54919.cif
_audit_creation_date              2012-12-10T16:52:09-0500
_audit_creation_method            fapswitch 2.2
_symmetry_space_group_name_H-M    P1
_symmetry_Int_Tables_number       1
_space_group_crystal_system       triclinic
_cell_length_a                    7.776456
_cell_length_b                    8.56931
_cell_length_c                    14.903109
_cell_angle_alpha                 91.532129
_cell_angle_beta                  85.613813
_cell_angle_gamma                 93.807528
_cell_volume                      987.797749957

loop_
_atom_site_label
_atom_site_type_symbol
_atom_type_description
_atom_site_fract_x
_atom_site_fract_y
_atom_site_fract_z
_atom_type_partial_charge
C1    C     C_R   0.545842 0.794748 0.498005 0.955445
C2    C     C_R   0.546264 0.630419 0.812306 -0.308036
C3    C     C_R   0.496757 0.508859 0.232441 -0.073896
C4    C     C_R   0.503243 0.491141 0.767559 -0.073896
C5    C     C_R   0.542507 0.649648 0.187280 0.102119
C6    C     C_R   0.457493 0.350352 0.812720 0.102119
C7    C     C_R   0.539928 0.647261 0.092759 0.093586
C8    C     C_R   0.460072 0.352739 0.907241 0.093586
C9    C     C_R   0.499254 0.503145 0.047027 0.031653
C10   C     C_R   0.500746 0.496855 0.952973 0.031653
C11   C     C_R   0.456945 0.364919 0.095185 0.134881
C12   C     C_R   0.454158 0.205252 0.501995 0.955446
C13   C     C_R   0.543055 0.635081 0.904815 0.134882
C14   C     C_R   0.577314 0.783647 0.042424 -0.225583
C15   C     C_R   0.422686 0.216353 0.957576 -0.225583
C16   C     C_3   0.592945 0.798556 0.240265 -0.415283
C17   C     C_3   0.436898 0.895088 0.263051 -0.870802
C18   C     C_3   0.407055 0.201444 0.759735 -0.415283
C19   C     C_3   0.563101 0.104912 0.736948 -0.870802
C20   C     C_R   0.580294 0.776906 0.949481 -0.211952
C21   C     C_R   0.419706 0.223094 0.050519 -0.211952
C22   C     C_2   0.569906 0.958306 0.496459 -0.382716
C23   C     C_2   0.430094 0.041694 0.503541 -0.382715
C24   C     C_R   0.501410 0.498262 0.672580 0.890410
C25   C     C_R   0.498590 0.501738 0.327420 0.890410
C26   C     C_R   0.453736 0.369581 0.187694 -0.308036
H1    H     H_    0.420679 0.263762 0.225472 0.140490
H2    H     H_    0.986409 0.617858 0.568067 0.193852
H3    H     H_    0.375368 0.922573 0.201154 0.250819
H4    H     H_    0.340193 0.829507 0.308870 0.277062
H5    H     H_    0.478661 0.006299 0.297283 0.247175
H6    H     H_    0.648977 0.771898 0.303827 0.214205
H7    H     H_    0.698518 0.869766 0.203522 0.199975
H8    H     H_    0.659806 0.170492 0.691129 0.277063
H9    H     H_    0.624632 0.077428 0.798846 0.250819
H10   H     H_    0.521338 0.993701 0.702717 0.247175
H11   H     H_    0.301481 0.130234 0.796478 0.199975
H12   H     H_    0.579321 0.736238 0.774527 0.140490
H13   H     H_    0.351023 0.228102 0.696172 0.214205
H14   H     H_    0.603818 0.897178 0.073278 0.161616
H15   H     H_    0.396183 0.102822 0.926722 0.161616
H16   H     H_    0.611426 0.883311 0.912444 0.144135
H17   H     H_    0.388574 0.116689 0.087555 0.144135
H18   H     H_    0.701868 0.009547 0.489442 0.182003
H19   H     H_    0.298132 0.990453 0.510558 0.182003
H20   H     H_    0.013591 0.382141 0.431933 0.193852
N1    N     N_2   0.950330 0.457950 0.475660 -0.175137
N2    N     N_2   0.049670 0.542050 0.524340 -0.175137
O1    O     O_R   0.389250 0.738570 0.505970 -0.612408
O2    O     O_R   0.610750 0.261430 0.494030 -0.612408
O3    O     O_R   0.678390 0.711620 0.490370 -0.636695
O4    O     O_R   0.321610 0.288380 0.509630 -0.636695
O5    O     O_R   0.355420 0.513510 0.639950 -0.622816
O6    O     O_R   0.644580 0.486490 0.360050 -0.622816
O7    O     O_R   0.644560 0.486560 0.624350 -0.621330
O8    O     O_R   0.355440 0.513440 0.375650 -0.621330
Zn1   Zn    Zn3+2 0.306940 0.517990 0.510420 0.937226
Zn2   Zn    Zn3+2 0.693060 0.482010 0.489580 0.937226

loop_
_geom_bond_atom_site_label_1
_geom_bond_atom_site_label_2
_ccdc_geom_bond_type
C20   H16   S    
C18   H13   S    
C10   C13   A    
C23   H19   S    
C16   H7    S    
C16   H6    S    
C3    C26   A    
C17   H3    S    
C9    C10   A    
C2    H12   S    
C2    C4    A    
N1    N2    D    
C11   C26   A    
C25   O8    A    
C15   C21   A    
C1    C22   S    
O3    Zn2   S    
C19   H9    S    
C25   O6    A    
C24   O7    A    
C17   H4    S    
C1    O3    A    
C12   C23   S    
C26   H1    S    
C16   C17   S    
C6    C18   S    
C4    C6    A    
C12   O4    A    
C18   H11   S    
C8    C15   A    
C5    C7    A    
C19   H10   S    
C9    C11   A    
C4    C24   S    
C22   H18   S    
O4    Zn1   S    
C14   H14   S    
O2    Zn2   S    
C14   C20   A    
C3    C25   S    
N2    Zn1   S    
O1    Zn1   S    
O8    Zn1   S    
C15   H15   S    
C8    C10   A    
C18   C19   S    
O6    Zn2   S    
O7    Zn2   S    
C7    C9    A    
C2    C13   A    
O5    Zn1   S    
H20   N1    S    
H2    N2    S    
C5    C16   S    
C6    C8    A    
C13   C20   A    
C3    C5    A    
C24   O5    A    
C22   C23   D    
C1    O1    A    
C11   C21   A    
C7    C14   A    
C21   H17   S    
C17   H5    S    
C12   O2    A    
N1    Zn2   S    
C19   H8    S    
