data_mof_unit_56520.cif
_audit_creation_date              2013-03-05T15:44:19-0500
_audit_creation_method            fapswitch 2.2
_symmetry_space_group_name_H-M    P1
_symmetry_Int_Tables_number       1
_space_group_crystal_system       triclinic
_cell_length_a                    23.493434
_cell_length_b                    10.90466
_cell_length_c                    9.718954
_cell_angle_alpha                 91.718692
_cell_angle_beta                  90.144066
_cell_angle_gamma                 90.750698
_cell_volume                      2488.53424385

loop_
_atom_site_label
_atom_site_type_symbol
_atom_site_description
_atom_site_fract_x
_atom_site_fract_y
_atom_site_fract_z
_atom_type_partial_charge
O1    O     O_R   0.500010 0.321960 0.617040 -0.554573
O2    O     O_R   0.499990 0.321920 0.382900 -0.582820
C1    C     C_R   0.496677 0.265802 0.497843 0.707429
O3    O     O_R   0.417890 0.499980 0.617100 -0.598512
O4    O     O_R   0.417870 0.499940 0.382950 -0.573553
C2    C     C_R   0.391098 0.501517 0.499923 0.800699
Cu1   Cu    Cu3+1 0.500010 0.500020 0.638630 1.012382
Cu2   Cu    Cu3+1 0.499990 0.499980 0.361370 1.032750
O5    O     O_R   0.500010 0.678080 0.617100 -0.531199
O6    O     O_R   0.499990 0.678040 0.382960 -0.604398
O7    O     O_R   0.582130 0.500060 0.617050 -0.629426
O8    O     O_R   0.582110 0.500020 0.382900 -0.516116
C3    C     C_R   0.502907 0.734888 0.502243 0.685376
C4    C     C_R   0.609053 0.500833 0.500239 0.820081
C5    C     C_R   0.881010 0.612828 0.530689 0.581384
N1    N     N_R   0.852037 0.504843 0.505058 -0.451252
C6    C     C_R   0.879796 0.397004 0.479571 0.545541
C7    C     C_R   0.939470 0.394896 0.478901 -0.020354
C8    C     C_R   0.970063 0.505232 0.504753 -0.015916
C9    C     C_R   0.940728 0.615340 0.531019 -0.028556
C10   C     C_R   0.969137 0.285642 0.452911 -0.162698
C11   C     C_R   0.028521 0.285869 0.452537 -0.164156
C12   C     C_R   0.059453 0.395367 0.478079 -0.016412
C13   C     C_R   0.030130 0.505469 0.504244 -0.018137
C14   C     C_R   0.060729 0.615800 0.529897 -0.035517
C15   C     C_R   0.031054 0.725045 0.556039 -0.161180
C16   C     C_R   0.971662 0.724817 0.556595 -0.155862
C17   C     C_R   0.119157 0.397911 0.477794 0.520907
N2    N     N_R   0.148235 0.506018 0.502551 -0.442160
C18   C     C_R   0.120412 0.613764 0.528779 0.599721
O9    O     O_2   0.852061 0.717223 0.555472 -0.515965
O10   O     O_2   0.849676 0.292408 0.454756 -0.537304
H1    H     H_    0.946596 0.199661 0.432747 0.192621
H2    H     H_    0.050067 0.200044 0.432101 0.190143
O11   O     O_2   0.147990 0.293525 0.451970 -0.551657
O12   O     O_2   0.150474 0.718333 0.554286 -0.531537
H3    H     H_    0.053595 0.811049 0.576048 0.188494
H4    H     H_    0.950111 0.810641 0.577006 0.190246
C19   C     C_R   0.238966 0.558873 0.391239 0.404110
C20   C     C_R   0.298732 0.564483 0.393874 0.341828
C21   C     C_R   0.328628 0.506424 0.499946 -0.196650
C22   C     C_R   0.298310 0.453145 0.607572 -0.299718
H5    H     H_    0.320452 0.409607 0.690558 0.173620
C23   C     C_R   0.239100 0.453931 0.608343 -0.177892
H6    H     H_    0.216221 0.413009 0.692377 0.167213
C24   C     C_R   0.209264 0.506423 0.500737 0.205567
C25   C     C_R   0.761892 0.525541 0.380164 0.480232
C26   C     C_R   0.702166 0.526878 0.380601 -0.286233
H7    H     H_    0.679804 0.549086 0.287489 0.202955
C27   C     C_R   0.671748 0.502256 0.501165 -0.089513
C28   C     C_R   0.701729 0.479886 0.622930 -0.204174
H8    H     H_    0.679432 0.460780 0.717428 0.169352
C29   C     C_R   0.761027 0.481535 0.623843 -0.177694
H9    H     H_    0.783741 0.464460 0.718283 0.151745
C30   C     C_R   0.791109 0.504800 0.503202 0.295004
C31   C     C_2   0.509917 0.932037 0.394574 -0.259446
C32   C     C_2   0.513883 0.866742 0.509486 0.250466
H10   H     H_    0.501897 0.887244 0.294944 0.160628
C33   C     C_2   0.514261 0.065876 0.398195 -0.167724
C34   C     C_2   0.485876 0.134252 0.491668 0.364120
H11   H     H_    0.540599 0.108657 0.320837 0.168507
C35   C     C_2   0.459118 0.450854 0.920307 0.186786
N3    N     N_2   0.499380 0.498660 0.846910 -0.006050
H12   H     H_    0.427431 0.391190 0.870751 0.048954
C36   C     C_2   0.454576 0.479002 0.074981 0.042277
N4    N     N_2   0.499370 0.498630 0.153040 -0.036782
H13   H     H_    0.412535 0.481939 0.120401 0.112087
N5    N     N_R   0.533382 0.922195 0.638174 0.158728
O13   O     O_R   0.507998 0.896684 0.752865 -0.314695
O14   O     O_R   0.578344 0.993255 0.641767 -0.344362
O15   O     O_3   0.448340 0.079527 0.582798 -0.534375
C37   C     C_3   0.395512 0.140126 0.584008 0.048315
H14   H     H_    0.380487 0.158506 0.477667 0.116035
H15   H     H_    0.398747 0.227931 0.644877 0.150429
C38   C     C_3   0.351183 0.059066 0.651613 -0.723270
H16   H     H_    0.364091 0.041222 0.759137 0.261539
H17   H     H_    0.309380 0.105503 0.652883 0.203987
H18   H     H_    0.346849 0.970242 0.593277 0.242981
O16   O     O_3   0.516864 0.608229 0.903703 -0.488488
C39   C     C_3   0.574364 0.631237 0.871174 0.285336
H19   H     H_    0.578368 0.670937 0.768603 0.177408
H20   H     H_    0.600452 0.547093 0.876305 0.153977
C40   C     C_3   0.598446 0.729089 0.971476 -0.749740
H21   H     H_    0.645120 0.738717 0.956476 0.205316
H22   H     H_    0.578423 0.818770 0.952922 0.277192
H23   H     H_    0.589945 0.705437 0.079699 0.270789
N6    N     N_R   0.547296 0.435338 0.105794 0.256053
O17   O     O_R   0.597655 0.484159 0.121776 -0.400384
O18   O     O_R   0.543582 0.318085 0.076359 -0.361252
O19   O     O_3   0.209298 0.612097 0.286080 -0.551228
C41   C     C_3   0.203626 0.525480 0.175895 0.072480
H24   H     H_    0.179729 0.442370 0.208498 0.155229
H25   H     H_    0.246069 0.497870 0.135505 0.164261
C42   C     C_3   0.170683 0.582505 0.059646 -0.735566
H26   H     H_    0.193737 0.665174 0.023858 0.259017
H27   H     H_    0.166091 0.515325 0.972014 0.193853
H28   H     H_    0.127668 0.609196 0.095966 0.251774
O20   O     O_3   0.327164 0.621625 0.288212 -0.583463
C43   C     C_3   0.347510 0.738777 0.334181 0.100479
H29   H     H_    0.386477 0.760315 0.274618 0.176449
H30   H     H_    0.360231 0.743611 0.444921 0.111768
C44   C     C_3   0.303723 0.837124 0.306569 -0.743540
H31   H     H_    0.266087 0.825229 0.373922 0.273396
H32   H     H_    0.322787 0.929371 0.328678 0.194440
H33   H     H_    0.289989 0.831140 0.197116 0.266441
O21   O     O_3   0.792579 0.553184 0.263385 -0.570546
C45   C     C_3   0.782793 0.461236 0.160187 0.068895
H34   H     H_    0.739728 0.470657 0.114080 0.166072
H35   H     H_    0.787055 0.367362 0.201501 0.177331
C46   C     C_3   0.826617 0.475497 0.046660 -0.741720
H36   H     H_    0.870222 0.466261 0.089379 0.254372
H37   H     H_    0.819559 0.403330 0.965119 0.200607
H38   H     H_    0.822755 0.567006 0.000438 0.255588

loop_
_geom_bond_atom_site_label_1
_geom_bond_atom_site_label_2
_geom_bond_distance
_ccdc_geom_bond_type
N6    O17   1.298037 A    
C37   H15   1.111935 S    
Cu2   N4    2.024377 S    
C7    C10   1.404835 A    
C21   C22   1.402988 A    
C8    C9    1.409245 A    
Cu1   Cu2   2.694662 S    
N3    O16   1.359196 S    
C29   H9    1.082711 S    
Cu1   O7    1.941167 S    
C15   C16   1.395316 A    
C35   N3    1.299273 D    
C17   N2    1.369444 A    
O3    Cu1   1.940063 S    
C20   O20   1.385620 S    
O4    C2    1.300402 A    
O7    C4    1.301174 A    
C10   H1    1.083217 S    
O21   C45   1.413022 S    
C16   H4    1.083213 S    
C5    N1    1.368414 A    
C31   C32   1.346057 D    
C44   H33   1.110644 S    
C7    C8    1.409125 A    
O5    C3    1.294311 A    
C46   H36   1.111323 S    
C35   H12   1.084512 S    
C25   C26   1.403451 A    
C17   O11   1.349623 S    
N5    O13   1.301196 A    
C36   H13   1.083326 S    
C2    C21   1.469297 S    
C12   C13   1.408896 A    
C19   O19   1.381962 S    
C1    C34   1.452935 S    
C26   C27   1.404940 A    
C33   C34   1.342155 D    
C10   C11   1.395127 A    
C45   H35   1.116363 S    
C44   H31   1.110008 S    
C22   C23   1.391216 A    
C39   C40   1.525781 S    
C23   C24   1.398373 A    
C6    C7    1.402458 A    
C29   C30   1.398528 A    
C5    C9    1.402862 A    
C11   H2    1.083208 S    
C33   H11   1.087005 S    
C28   H8    1.082745 S    
C13   C14   1.408856 A    
C39   H20   1.112374 S    
C41   H24   1.114341 S    
C37   H14   1.115967 S    
C42   H28   1.110834 S    
C14   C15   1.405066 A    
C28   C29   1.393006 A    
C42   H27   1.110734 S    
C38   H16   1.110875 S    
N2    C18   1.369574 A    
C41   H25   1.114331 S    
C40   H21   1.110571 S    
Cu2   O8    1.940067 S    
C25   O21   1.384811 S    
C43   C44   1.524847 S    
C27   C28   1.404911 A    
C12   C17   1.402565 A    
C44   H32   1.110584 S    
C38   H17   1.110758 S    
C46   H38   1.111237 S    
Cu1   N3    2.024853 S    
C19   C24   1.405824 A    
O3    C2    1.300481 A    
C20   C21   1.415660 A    
C40   H22   1.110116 S    
O8    C4    1.302655 A    
O20   C43   1.417319 S    
N6    O18   1.303567 A    
C6    O10   1.349571 S    
C45   C46   1.521001 S    
C22   H5    1.083435 S    
C45   H34   1.112741 S    
N4    N6    1.399615 S    
C23   H6    1.082992 S    
C25   C30   1.403001 A    
C14   C18   1.402706 A    
Cu1   O5    1.959155 S    
C26   H7    1.080597 S    
C35   C36   1.529518 S    
C43   H30   1.115811 S    
O1    Cu1   1.946723 S    
O2    Cu2   1.959155 S    
C39   H19   1.102427 S    
O6    C3    1.299367 A    
O4    Cu2   1.941167 S    
C31   C33   1.461069 S    
C15   H3    1.083206 S    
C5    O9    1.349507 S    
C9    C16   1.404898 A    
C34   O15   1.392872 S    
C43   H29   1.110640 S    
C18   O12   1.349654 S    
N2    C24   1.433889 S    
O2    C1    1.291785 A    
N1    C30   1.431475 S    
O15   C37   1.413595 S    
C41   C42   1.520695 S    
C37   C38   1.520475 S    
O19   C41   1.411377 S    
C4    C27   1.472790 S    
C31   H10   1.086273 S    
C8    C13   1.411175 A    
C42   H26   1.110823 S    
C38   H18   1.110935 S    
C46   H37   1.110567 S    
O16   C39   1.409177 S    
C19   C20   1.404792 A    
C40   H23   1.108472 S    
C3    C32   1.457022 S    
Cu2   O6    1.946722 S    
C36   N4    1.307354 D    
N5    O14   1.301621 A    
C11   C12   1.404999 A    
C32   N5    1.443703 S    
O1    C1    1.295730 A    
N1    C6    1.368560 A    
