data_mof_unit_41810.cif
_audit_creation_date              2012-10-26T21:21:54-0400
_audit_creation_method            fapswitch 2.2
_symmetry_space_group_name_H-M    P1
_symmetry_Int_Tables_number       1
_space_group_crystal_system       triclinic
_cell_length_a                    17.855217
_cell_length_b                    19.028963
_cell_length_c                    11.755303
_cell_angle_alpha                 89.90441
_cell_angle_beta                  75.108081
_cell_angle_gamma                 89.634102
_cell_volume                      3859.82567757

loop_
_atom_site_label
_atom_site_type_symbol
_atom_type_description
_atom_site_fract_x
_atom_site_fract_y
_atom_site_fract_z
_atom_type_partial_charge
C1    C     C_R   0.403188 0.103764 0.520621 0.552454
C2    C     C_R   0.462347 0.003533 0.038515 -0.118218
C3    C     C_3   0.752895 0.121268 0.824669 -0.318434
C4    C     C_3   0.818564 0.592833 0.113263 0.033104
C5    C     C_3   0.744134 0.598640 0.211233 -0.331648
C6    C     C_3   0.178933 0.609116 0.919754 0.019116
C7    C     C_3   0.244291 0.624207 0.810936 -0.317424
C8    C     C_R   0.037295 0.507457 0.961021 -0.114778
C9    C     C_R   0.963096 0.504299 0.038231 -0.123834
C10   C     C_R   0.407168 0.005427 0.864781 0.372329
C11   C     C_R   0.591431 0.012404 0.134061 0.371982
C12   C     C_R   0.907328 0.506745 0.865333 0.373707
C13   C     C_R   0.091827 0.512843 0.134678 0.363488
C14   C     C_R   0.396827 0.010399 0.990082 0.181416
C15   C     C_R   0.600723 0.017944 0.010118 0.184061
C16   C     C_R   0.897785 0.513456 0.990358 0.177642
C17   C     C_R   0.596511 0.896384 0.478226 0.571470
C18   C     C_R   0.101202 0.519222 0.010216 0.183654
C19   C     C_R   0.544724 0.001144 0.836858 0.399231
C20   C     C_R   0.455792 0.993697 0.162423 0.363139
C21   C     C_R   0.044998 0.501776 0.836510 0.394406
C22   C     C_R   0.956015 0.494242 0.162136 0.362832
C23   C     C_R   0.653384 0.161314 0.468940 -0.047170
C24   C     C_R   0.343224 0.841530 0.540438 -0.018360
C25   C     C_R   0.350681 0.165741 0.531348 -0.047682
C26   C     C_R   0.649866 0.835620 0.460616 -0.020114
C27   C     C_R   0.152454 0.661963 0.468755 -0.048039
C28   C     C_R   0.598645 0.102119 0.479133 0.558309
C29   C     C_R   0.843379 0.341685 0.540059 -0.022709
C30   C     C_R   0.852055 0.666000 0.530562 -0.045810
C31   C     C_R   0.144432 0.331624 0.463715 0.004013
C32   C     C_R   0.215210 0.802979 0.645002 0.249599
C33   C     C_R   0.769551 0.216839 0.351295 0.259328
C34   C     C_R   0.764340 0.780533 0.335636 0.250275
C35   C     C_R   0.243921 0.231982 0.654148 0.263115
C36   C     C_R   0.715987 0.301955 0.645179 0.252440
C37   C     C_R   0.269728 0.715906 0.352231 0.261587
C38   C     C_R   0.251009 0.268641 0.337274 0.258508
C39   C     C_R   0.401079 0.898210 0.522377 0.600025
C40   C     C_R   0.742923 0.729902 0.651127 0.265591
C41   C     C_R   0.281964 0.840879 0.643175 0.229198
C42   C     C_R   0.700938 0.180083 0.358158 0.227527
C43   C     C_R   0.696514 0.819685 0.348005 0.216677
C44   C     C_R   0.310218 0.190645 0.642405 0.210749
C45   C     C_R   0.782170 0.340808 0.642939 0.229941
C46   C     C_R   0.200868 0.679833 0.358323 0.226938
C47   C     C_R   0.181323 0.306454 0.350963 0.234495
C48   C     C_R   0.809606 0.689617 0.641205 0.210454
C49   C     C_R   0.346029 0.790831 0.453124 0.181931
C50   C     C_R   0.903522 0.603753 0.520523 0.556325
C51   C     C_R   0.659360 0.200252 0.568740 0.202262
C52   C     C_R   0.655772 0.793836 0.555247 0.188874
C53   C     C_R   0.340658 0.201016 0.430690 0.214913
C54   C     C_R   0.846266 0.291367 0.452063 0.177931
C55   C     C_R   0.156963 0.702164 0.567849 0.198663
C56   C     C_R   0.153611 0.294127 0.561238 0.201937
C57   C     C_R   0.844973 0.702797 0.429642 0.205432
C58   C     C_R   0.279331 0.751179 0.453799 -0.065205
C59   C     C_R   0.717073 0.251940 0.556111 -0.060330
C60   C     C_R   0.724423 0.755237 0.548222 -0.068686
C61   C     C_R   0.094765 0.395187 0.478881 0.561222
C62   C     C_R   0.273399 0.243191 0.438468 -0.044458
C63   C     C_R   0.779746 0.251487 0.452935 -0.067962
C64   C     C_R   0.215819 0.752853 0.556084 -0.063295
C65   C     C_R   0.222124 0.255031 0.552396 -0.067608
C66   C     C_R   0.779686 0.747083 0.436211 -0.062281
C67   C     C_3   0.721057 0.991972 0.136038 0.051911
C68   C     C_3   0.767479 0.987021 0.227870 -0.304876
C69   C     C_3   0.276941 0.032885 0.862370 0.052056
C70   C     C_3   0.227225 0.038603 0.774753 -0.296761
C71   C     C_3   0.227011 0.506234 0.126177 0.021917
C72   C     C_R   0.098226 0.602397 0.479148 0.563635
C73   C     C_3   0.274178 0.488953 0.213873 -0.349717
C74   C     C_3   0.776283 0.533861 0.866605 0.052928
C75   C     C_3   0.724738 0.538742 0.781510 -0.298574
C76   C     C_3   0.357251 0.914393 0.222691 0.053317
C77   C     C_3   0.273369 0.908403 0.293950 -0.333725
C78   C     C_3   0.654339 0.934851 0.762876 0.053977
C79   C     C_3   0.732905 0.934968 0.673227 -0.335029
C80   C     C_3   0.855284 0.416966 0.221828 0.049997
C81   C     C_3   0.771478 0.411787 0.293951 -0.343909
C82   C     C_3   0.155983 0.437506 0.761154 0.051915
C83   C     C_R   0.901059 0.398313 0.522328 0.602279
C84   C     C_3   0.233044 0.437901 0.667913 -0.343066
C85   C     C_3   0.626165 0.228151 0.250503 0.028175
C86   C     C_3   0.603313 0.227150 0.134728 -0.310956
C87   C     C_3   0.287120 0.841164 0.837215 0.015689
C88   C     C_3   0.367809 0.810313 0.826810 -0.345972
C89   C     C_3   0.394339 0.225991 0.745539 0.026007
C90   C     C_3   0.413745 0.220044 0.863654 -0.297702
C91   C     C_3   0.639472 0.789423 0.202241 0.029085
C92   C     C_3   0.592236 0.820795 0.123554 -0.312408
C93   C     C_3   0.126196 0.729734 0.252208 0.029966
C94   C     C_R   0.536701 0.006863 0.961238 -0.111571
C95   C     C_3   0.103981 0.731084 0.135925 -0.308682
C96   C     C_3   0.786881 0.342037 0.837197 0.014840
C97   C     C_3   0.867904 0.312344 0.828027 -0.345083
C98   C     C_3   0.889835 0.727993 0.748248 0.026888
C99   C     C_3   0.908106 0.722907 0.867266 -0.295602
C100  C     C_3   0.149810 0.332634 0.175124 0.024195
C101  C     C_3   0.082788 0.328040 0.117654 -0.292979
C102  C     C_3   0.308268 0.084044 0.110581 0.020741
C103  C     C_3   0.221875 0.091516 0.170090 -0.328696
C104  C     C_3   0.684940 0.105673 0.929549 0.013720
Cl1   Cl    Cl    0.600361 0.180819 0.711320 -0.610905
Cl2   Cl    Cl    0.332519 0.726616 0.209933 -0.584840
Cl3   Cl    Cl    0.304976 0.253969 0.191025 -0.658605
Cl4   Cl    Cl    0.691635 0.754314 0.795741 -0.610556
Cl5   Cl    Cl    0.128783 0.835052 0.742610 -0.575167
Cl6   Cl    Cl    0.831295 0.229088 0.208645 -0.583171
Cl7   Cl    Cl    0.826195 0.780761 0.190954 -0.604345
Cl8   Cl    Cl    0.196256 0.259131 0.798906 -0.608887
Cl9   Cl    Cl    0.438383 0.766090 0.365389 -0.597392
Cl10  Cl    Cl    0.420880 0.201286 0.305561 -0.602419
Cl11  Cl    Cl    0.568468 0.774791 0.662409 -0.568946
Cl12  Cl    Cl    0.092962 0.686016 0.707827 -0.619203
Cl13  Cl    Cl    0.938682 0.266886 0.363625 -0.515212
Cl14  Cl    Cl    0.924303 0.698417 0.303598 -0.609953
Cl15  Cl    Cl    0.068162 0.277127 0.673409 -0.560248
Cl16  Cl    Cl    0.628888 0.332625 0.742888 -0.585204
Cu1   Cu    Cu3+1 0.507800 0.000000 0.383250 1.109549
Cu2   Cu    Cu3+1 0.492200 0.000000 0.616750 1.111127
Cu3   Cu    Cu3+1 0.007800 0.500000 0.383250 1.099697
Cu4   Cu    Cu3+1 0.992200 0.500000 0.616750 1.116227
H1    H     H_    0.757950 0.021345 0.061168 0.171269
H2    H     H_    0.263245 0.050790 0.685300 0.183182
H3    H     H_    0.251662 0.681650 0.798188 0.113691
H4    H     H_    0.256738 0.550766 0.072847 0.199853
H5    H     H_    0.228075 0.459975 0.068043 0.124952
H6    H     H_    0.246612 0.446244 0.274168 0.137136
H7    H     H_    0.333483 0.471922 0.165995 0.137418
H8    H     H_    0.278467 0.536203 0.267168 0.190373
H9    H     H_    0.787037 0.587978 0.891831 0.190147
H10   H     H_    0.743258 0.503436 0.943659 0.165791
H11   H     H_    0.694895 0.488167 0.778073 0.202349
H12   H     H_    0.679724 0.579961 0.811734 0.153870
H13   H     H_    0.711041 0.938560 0.105385 0.182403
H14   H     H_    0.759310 0.551910 0.691528 0.184625
H15   H     H_    0.392863 0.873855 0.251186 0.206764
H16   H     H_    0.359719 0.902045 0.129503 0.159855
H17   H     H_    0.236055 0.944104 0.257823 0.171108
H18   H     H_    0.252437 0.854381 0.288836 0.125509
H19   H     H_    0.267925 0.922024 0.387518 0.153425
H20   H     H_    0.619021 0.891284 0.744090 0.209283
H21   H     H_    0.663948 0.922835 0.850303 0.169097
H22   H     H_    0.770019 0.976546 0.695604 0.165893
H23   H     H_    0.762423 0.883569 0.673700 0.131836
H24   H     H_    0.731785 0.964728 0.311195 0.176427
H25   H     H_    0.725688 0.945054 0.583603 0.140626
H26   H     H_    0.890076 0.375445 0.249766 0.201433
H27   H     H_    0.856819 0.405654 0.128595 0.157087
H28   H     H_    0.734136 0.447476 0.257594 0.165690
H29   H     H_    0.750063 0.357729 0.290148 0.125764
H30   H     H_    0.766658 0.425824 0.387208 0.152530
H31   H     H_    0.120588 0.393314 0.745278 0.210009
H32   H     H_    0.168043 0.426605 0.847317 0.173497
H33   H     H_    0.270969 0.479502 0.688004 0.160724
H34   H     H_    0.263018 0.386586 0.666617 0.131555
H35   H     H_    0.819368 0.953180 0.194645 0.157725
H36   H     H_    0.223554 0.447950 0.579608 0.141937
H37   H     H_    0.654729 0.279525 0.255571 0.118181
H38   H     H_    0.572519 0.225470 0.323686 0.175978
H39   H     H_    0.576430 0.176022 0.123716 0.187919
H40   H     H_    0.560610 0.269755 0.134258 0.170138
H41   H     H_    0.654992 0.236661 0.060624 0.127798
H42   H     H_    0.243263 0.798699 0.854923 0.148020
H43   H     H_    0.272416 0.875383 0.916281 0.171992
H44   H     H_    0.411330 0.852870 0.814721 0.205771
H45   H     H_    0.368126 0.781055 0.908500 0.146633
H46   H     H_    0.786611 0.040232 0.246603 0.177246
H47   H     H_    0.383947 0.773420 0.751279 0.181528
H48   H     H_    0.374411 0.280990 0.736911 0.148036
H49   H     H_    0.447781 0.215579 0.674328 0.183844
H50   H     H_    0.434285 0.166019 0.875839 0.169748
H51   H     H_    0.459883 0.258032 0.867904 0.195239
H52   H     H_    0.361424 0.232372 0.935247 0.197391
H53   H     H_    0.599717 0.758099 0.272383 0.184807
H54   H     H_    0.683405 0.753388 0.147682 0.176213
H55   H     H_    0.562827 0.778227 0.087457 0.179104
H56   H     H_    0.547605 0.857245 0.175137 0.175875
H57   H     H_    0.288036 0.086785 0.888286 0.187530
H58   H     H_    0.630523 0.849716 0.049104 0.146970
H59   H     H_    0.154627 0.780789 0.259986 0.115981
H60   H     H_    0.072358 0.726312 0.324826 0.180293
H61   H     H_    0.077906 0.680162 0.121397 0.187398
H62   H     H_    0.060749 0.773532 0.137575 0.176429
H63   H     H_    0.155755 0.742483 0.062983 0.127006
H64   H     H_    0.743796 0.298901 0.854488 0.151860
H65   H     H_    0.771146 0.376352 0.916081 0.167213
H66   H     H_    0.910651 0.355495 0.816907 0.204855
H67   H     H_    0.868108 0.283123 0.909797 0.148193
H68   H     H_    0.242241 0.002654 0.938222 0.166256
H69   H     H_    0.885187 0.275665 0.752340 0.183728
H70   H     H_    0.867440 0.782177 0.740169 0.147708
H71   H     H_    0.944168 0.719904 0.677778 0.189335
H72   H     H_    0.929214 0.669237 0.880463 0.167547
H73   H     H_    0.953505 0.761544 0.872179 0.198578
H74   H     H_    0.855154 0.735091 0.937820 0.189942
H75   H     H_    0.202208 0.314566 0.108968 0.197888
H76   H     H_    0.156492 0.387821 0.196491 0.151373
H77   H     H_    0.096792 0.357827 0.033621 0.088470
H78   H     H_    0.071943 0.272357 0.098991 0.232292
H79   H     H_    0.196292 0.988664 0.770954 0.203767
H80   H     H_    0.029742 0.351048 0.176587 0.184684
H81   H     H_    0.324424 0.124625 0.040921 0.144323
H82   H     H_    0.341227 0.094958 0.176699 0.249848
H83   H     H_    0.207002 0.061827 0.254079 0.156298
H84   H     H_    0.205747 0.147233 0.190051 0.205624
H85   H     H_    0.186786 0.071560 0.111738 0.147859
H86   H     H_    0.700426 0.124101 0.009949 0.179351
H87   H     H_    0.633134 0.134988 0.918478 0.193903
H88   H     H_    0.805755 0.093629 0.834870 0.155285
H89   H     H_    0.739813 0.103528 0.741994 0.214855
H90   H     H_    0.183095 0.080799 0.802869 0.153329
H91   H     H_    0.764135 0.178499 0.818531 0.108442
H92   H     H_    0.815925 0.632288 0.045305 0.127918
H93   H     H_    0.867812 0.606790 0.150253 0.229711
H94   H     H_    0.749439 0.567907 0.289058 0.180051
H95   H     H_    0.732778 0.654061 0.238768 0.135646
H96   H     H_    0.694330 0.579081 0.180226 0.147387
H97   H     H_    0.194413 0.633429 0.995884 0.155864
H98   H     H_    0.124481 0.633542 0.908591 0.198383
H99   H     H_    0.299435 0.601059 0.821203 0.150756
H100  H     H_    0.230835 0.601604 0.731603 0.215729
N1    N     N_R   0.519530 0.000000 0.207810 -0.238579
N2    N     N_R   0.480470 0.000000 0.792190 -0.241152
N3    N     N_R   0.019530 0.500000 0.207810 -0.240365
N4    N     N_R   0.980470 0.500000 0.792190 -0.238379
O1    O     O_R   0.430030 0.075530 0.417420 -0.436617
O2    O     O_R   0.583140 0.924490 0.385390 -0.455287
O3    O     O_R   0.583140 0.075510 0.385390 -0.426659
O4    O     O_R   0.416860 0.924490 0.614610 -0.430650
O5    O     O_R   0.916860 0.575510 0.614610 -0.448484
O6    O     O_R   0.083140 0.424490 0.385390 -0.494319
O7    O     O_R   0.083140 0.575510 0.385390 -0.420766
O8    O     O_R   0.916860 0.424490 0.614610 -0.432055
O9    O     O_3   0.651325 0.029031 0.184925 -0.489410
O10   O     O_3   0.346753 0.997008 0.810257 -0.484212
O11   O     O_3   0.151268 0.526682 0.188888 -0.494224
O12   O     O_R   0.569970 0.924470 0.582580 -0.493452
O13   O     O_3   0.846355 0.499167 0.811625 -0.487181
O14   O     O_3   0.384345 0.982348 0.239977 -0.509271
O15   O     O_3   0.617363 0.000587 0.758461 -0.477117
O16   O     O_3   0.884133 0.484162 0.239558 -0.505088
O17   O     O_3   0.117483 0.502499 0.757683 -0.486163
O18   O     O_3   0.676071 0.170802 0.257001 -0.487470
O19   O     O_3   0.284684 0.882971 0.737967 -0.500824
O20   O     O_3   0.336485 0.176542 0.740809 -0.539965
O21   O     O_3   0.676355 0.843960 0.248721 -0.539331
O22   O     O_3   0.175861 0.671858 0.256955 -0.489728
O23   O     O_R   0.569970 0.075530 0.582580 -0.429698
O24   O     O_3   0.784429 0.383385 0.737445 -0.502283
O25   O     O_3   0.834940 0.676174 0.740641 -0.540644
O26   O     O_3   0.133860 0.290541 0.277252 -0.489735
O27   O     O_3   0.322895 0.015213 0.064327 -0.600456
O28   O     O_3   0.672797 0.032610 0.936453 -0.581089
O29   O     O_3   0.824901 0.523996 0.065619 -0.597900
O30   O     O_3   0.172750 0.535878 0.936644 -0.586061
O31   O     O_R   0.430030 0.924470 0.417420 -0.484682
O32   O     O_R   0.930030 0.575530 0.417420 -0.436447
O33   O     O_R   0.069970 0.424470 0.582580 -0.490324
O34   O     O_R   0.069970 0.575530 0.582580 -0.428980
O35   O     O_R   0.930030 0.424470 0.417420 -0.481661
O36   O     O_R   0.416860 0.075510 0.614610 -0.453173

loop_
_geom_bond_atom_site_label_1
_geom_bond_atom_site_label_2
_ccdc_geom_bond_type
C3    C104  S    
C80   H27   S    
C49   Cl9   S    
C87   C88   S    
C74   H9    S    
C4    O29   S    
C40   C60   A    
C17   O2    A    
C7    H100  S    
C49   C58   A    
C85   H37   S    
C31   C61   S    
C83   O35   A    
C104  H86   S    
C57   C66   A    
C36   C59   A    
C103  H85   S    
C15   C94   A    
C22   O16   S    
C84   H36   S    
C95   H63   S    
Cu3   Cu4   S    
C13   O11   S    
C85   C86   S    
C53   Cl10  S    
C20   O14   S    
C86   H41   S    
C70   H79   S    
C23   C42   A    
C13   C18   A    
C4    H92   S    
C17   C26   S    
C30   C48   A    
C19   N2    A    
C25   C53   A    
C29   C83   S    
C26   C52   A    
C101  H78   S    
C67   H1    S    
C45   O24   S    
C93   H60   S    
C27   C55   A    
C9    C22   A    
C12   N4    A    
C5    H96   S    
Cu3   N3    S    
C29   C54   A    
C35   C65   A    
C3    H91   S    
C56   C65   A    
Cu2   N2    S    
C91   H54   S    
C90   H52   S    
C24   C49   A    
C24   C39   S    
C81   H29   S    
C87   H42   S    
C98   H70   S    
C102  O27   S    
C97   H69   S    
C38   Cl3   S    
C96   H64   S    
C77   H18   S    
C46   O22   S    
C52   C60   A    
C78   H21   S    
C82   H31   S    
Cu2   O23   S    
C74   O13   S    
C11   C15   A    
Cu2   O12   S    
C14   O27   S    
C12   C16   A    
Cu3   O35   S    
C8    C9    A    
C88   H44   S    
C32   C41   A    
Cu1   O2    S    
C89   H49   S    
C31   C56   A    
C20   N1    A    
C68   H35   S    
C92   H56   S    
C69   O10   S    
C12   O13   S    
C37   C58   A    
C68   H24   S    
C19   O15   S    
C40   Cl4   S    
C6    H97   S    
C82   H32   S    
C70   H2    S    
C30   C50   S    
C73   H8    S    
C60   C66   A    
C93   C95   S    
C88   H47   S    
C31   C47   A    
C41   O19   S    
C1    C25   S    
C85   H38   S    
C34   C66   A    
C91   H53   S    
Cu1   N1    S    
C24   C41   A    
C100  O26   S    
C69   H68   S    
Cu4   N4    S    
C4    H93   S    
C26   C43   A    
C79   H22   S    
C15   O28   S    
C76   H16   S    
C55   C64   A    
C58   C64   A    
C17   O12   A    
C87   H43   S    
C73   H7    S    
C37   C46   A    
Cu1   O1    S    
C32   Cl5   S    
C2    C20   A    
C67   C68   S    
C70   H90   S    
C2    C14   A    
C2    C94   A    
C76   C77   S    
C32   C64   A    
C47   O26   S    
C74   C75   S    
C68   H46   S    
C91   C92   S    
C71   C73   S    
C84   H34   S    
C75   H12   S    
C80   C81   S    
C79   H23   S    
C22   N3    A    
C38   C62   A    
C99   H72   S    
C67   O9    S    
C8    C18   A    
C81   H30   S    
C80   O16   S    
C29   C45   A    
C30   C57   A    
C71   O11   S    
C96   H65   S    
C50   O5    A    
C76   O14   S    
C77   H19   S    
C92   H55   S    
C78   H20   S    
C71   H5    S    
C1    O36   A    
C7    H99   S    
C53   C62   A    
C43   O21   S    
C23   C51   A    
C5    H94   S    
Cu4   O34   S    
C11   N1    A    
C96   C97   S    
C99   H73   S    
C8    C21   A    
Cu1   Cu2   S    
C36   C45   A    
C33   C63   A    
C23   C28   S    
C103  H84   S    
C35   C44   A    
C102  H82   S    
C28   O3    A    
C38   C47   A    
C19   C94   A    
C39   O31   A    
Cu1   O31   S    
Cu3   O7    S    
Cu4   O5    S    
C100  H76   S    
C27   C46   A    
C69   C70   S    
C97   H66   S    
C10   O10   S    
C82   C84   S    
C90   H51   S    
C10   C14   A    
C85   O18   S    
C56   Cl15  S    
C71   H4    S    
C86   H40   S    
C33   C42   A    
C93   O22   S    
C95   H61   S    
C91   O21   S    
C52   Cl11  S    
C34   Cl7   S    
C3    H88   S    
C40   C48   A    
C21   N4    A    
C73   H6    S    
C42   O18   S    
C88   H45   S    
C82   O17   S    
C78   C79   S    
C72   O34   A    
C9    C16   A    
C34   C43   A    
C89   H48   S    
C103  H83   S    
C4    C5    S    
C101  H80   S    
C13   N3    A    
C21   O17   S    
C84   H33   S    
C72   O7    A    
C87   O19   S    
C6    C7    S    
C86   H39   S    
Cu3   O32   S    
C11   O9    S    
C81   H28   S    
Cu2   O4    S    
C90   H50   S    
C97   H67   S    
C59   C63   A    
C78   O15   S    
C104  O28   S    
C89   O20   S    
C79   H25   S    
C6    O30   S    
C48   O25   S    
C28   O23   A    
C61   O33   A    
C37   Cl2   S    
C101  H77   S    
Cu3   O6    S    
C16   O29   S    
C93   H59   S    
Cu2   O36   S    
C75   H14   S    
C5    H95   S    
C50   O32   A    
Cu4   O33   S    
C74   H10   S    
C99   H74   S    
C100  C101  S    
C62   C65   A    
C98   H71   S    
C80   H26   S    
C75   H11   S    
C55   Cl12  S    
C25   C44   A    
C102  C103  S    
C36   Cl16  S    
C102  H81   S    
C77   H17   S    
C51   Cl1   S    
C18   O30   S    
C44   O20   S    
Cu4   O8    S    
C100  H75   S    
C1    O1    A    
C3    H89   S    
C39   O4    A    
C51   C59   A    
C83   O8    A    
C76   H15   S    
C35   Cl8   S    
C98   C99   S    
C54   C63   A    
C54   Cl13  S    
C61   O6    A    
C10   N2    A    
C96   O24   S    
C92   H58   S    
C33   Cl6   S    
C104  H87   S    
C7    H3    S    
C89   C90   S    
C67   H13   S    
Cu1   O3    S    
C98   O25   S    
C27   C72   S    
C95   H62   S    
C69   H57   S    
C57   Cl14  S    
C6    H98   S    
