data_mof_unit_43436.cif
_audit_creation_date              2012-12-11T17:36:09-0500
_audit_creation_method            fapswitch 2.2
_symmetry_space_group_name_H-M    P1
_symmetry_Int_Tables_number       1
_space_group_crystal_system       triclinic
_cell_length_a                    25.986727
_cell_length_b                    6.88665
_cell_length_c                    21.649737
_cell_angle_alpha                 89.979572
_cell_angle_beta                  96.098763
_cell_angle_gamma                 89.942764
_cell_volume                      3852.53835449

loop_
_atom_site_label
_atom_site_type_symbol
_atom_type_description
_atom_site_fract_x
_atom_site_fract_y
_atom_site_fract_z
_atom_type_partial_charge
O1    O     O_R   0.208650 0.594520 0.175450 -0.525851
O2    O     O_R   0.791350 0.405480 0.824550 -0.525785
O3    O     O_R   0.291350 0.094520 0.324550 -0.519964
O4    O     O_R   0.708650 0.905480 0.675450 -0.541274
O5    O     O_R   0.192980 0.260780 0.300160 -0.539971
O6    O     O_R   0.807020 0.739220 0.699840 -0.540484
O7    O     O_R   0.307020 0.760780 0.199840 -0.540471
O8    O     O_R   0.692980 0.239220 0.800160 -0.536873
C1    C     C_R   0.179410 0.433671 0.319431 0.711144
C2    C     C_R   0.819890 0.566550 0.679847 0.710279
C3    C     C_R   0.320180 0.933381 0.180127 0.698623
C4    C     C_R   0.679816 0.066629 0.819858 0.703133
O9    O     O_R   0.202550 0.264660 0.174420 -0.548320
O10   O     O_R   0.797450 0.735340 0.825580 -0.547266
O11   O     O_R   0.297450 0.764660 0.325580 -0.546491
O12   O     O_R   0.702550 0.235340 0.674420 -0.530153
O13   O     O_R   0.300990 0.096480 0.197920 -0.542928
O14   O     O_R   0.699010 0.903520 0.802080 -0.545816
O15   O     O_R   0.199010 0.596480 0.302080 -0.541779
O16   O     O_R   0.800990 0.403520 0.697920 -0.540966
C5    C     C_R   0.191219 0.433843 0.151034 0.761846
C6    C     C_R   0.808779 0.566158 0.848969 0.764116
C7    C     C_R   0.309389 0.933361 0.348777 0.745501
C8    C     C_R   0.690904 0.066170 0.651128 0.748833
O17   O     O_3   0.282290 0.427760 0.257860 -0.364454
O18   O     O_3   0.717710 0.572240 0.742140 -0.368588
O19   O     O_3   0.217710 0.927760 0.242140 -0.367218
O20   O     O_3   0.782290 0.072240 0.757860 -0.365778
V1    V     V_3+5 0.244010 0.152080 0.248540 1.425204
V2    V     V_3+5 0.755990 0.847920 0.751460 1.406975
V3    V     V_3+5 0.255990 0.652080 0.251460 1.426903
V4    V     V_3+5 0.744010 0.347920 0.748540 1.437898
C9    C     C_R   0.657252 0.053634 0.591690 -0.064024
C10   C     C_R   0.343684 0.936779 0.408108 -0.065721
C11   C     C_R   0.843272 0.555621 0.907589 -0.064534
C12   C     C_R   0.156716 0.444388 0.092425 -0.064030
C13   C     C_R   0.650724 0.995900 0.480596 0.234425
C14   C     C_R   0.355926 0.843028 0.516789 0.232464
C15   C     C_R   0.850807 0.533062 0.019835 0.237533
C16   C     C_R   0.149168 0.466955 0.980179 0.237415
C17   C     C_R   0.680167 0.010460 0.538220 -0.318726
C18   C     C_R   0.325572 0.851324 0.459761 -0.300014
C19   C     C_R   0.821330 0.567998 0.963241 -0.323092
C20   C     C_R   0.178646 0.431932 0.036767 -0.322735
C21   C     C_R   0.603136 0.076565 0.588589 0.152712
C22   C     C_R   0.394620 0.010238 0.412429 0.147468
C23   C     C_R   0.896808 0.522364 0.907886 0.152538
C24   C     C_R   0.103186 0.477760 0.092143 0.152459
C25   C     C_R   0.571156 0.030456 0.531979 -0.043735
C26   C     C_R   0.429647 0.974380 0.467603 -0.045917
C27   C     C_R   0.929424 0.516312 0.965985 -0.044007
C28   C     C_R   0.070563 0.483857 0.034050 -0.043964
C29   C     C_R   0.595744 0.006572 0.476476 0.099430
C30   C     C_R   0.408386 0.904999 0.521763 0.098134
C31   C     C_R   0.904772 0.497220 0.021559 0.099089
C32   C     C_R   0.095209 0.502921 0.978471 0.098993
C33   C     C_R   0.516150 0.999573 0.528805 0.049162
C34   C     C_R   0.485003 0.996653 0.470504 0.049692
C35   C     C_R   0.985138 0.523343 0.971342 0.048897
C36   C     C_R   0.014849 0.476878 0.028701 0.048979
C37   C     C_R   0.510690 0.986331 0.416772 -0.277098
C38   C     C_R   0.492883 0.942354 0.581441 -0.274588
C39   C     C_R   0.987962 0.413031 0.077714 -0.275039
C40   C     C_R   0.012025 0.587237 0.922334 -0.275004
C41   C     C_R   0.564591 0.987818 0.418935 0.211149
C42   C     C_R   0.440661 0.893080 0.578678 0.212030
C43   C     C_R   0.934487 0.434126 0.076429 0.208453
C44   C     C_R   0.065498 0.566110 0.923612 0.208522
H1    H     H_    0.489695 0.957096 0.372175 0.137590
H2    H     H_    0.515855 0.915683 0.624998 0.139841
H3    H     H_    0.007809 0.343969 0.118010 0.140817
H4    H     H_    0.992178 0.656352 0.882049 0.140806
C45   C     C_R   0.437201 0.813377 0.094204 -0.148997
C46   C     C_R   0.562572 0.186011 0.905433 -0.150296
C47   C     C_R   0.063201 0.306890 0.406084 -0.143040
C48   C     C_R   0.937006 0.680708 0.593769 -0.151346
C49   C     C_R   0.397648 0.799280 0.133409 -0.188019
C50   C     C_R   0.602147 0.200207 0.866262 -0.183836
C51   C     C_R   0.103048 0.294685 0.367231 -0.178235
C52   C     C_R   0.897730 0.696543 0.633274 -0.188170
H5    H     H_    0.396282 0.671863 0.162525 0.141636
H6    H     H_    0.603386 0.327231 0.836948 0.144303
H7    H     H_    0.106129 0.164250 0.339961 0.143422
H8    H     H_    0.897345 0.822299 0.663252 0.140940
C53   C     C_R   0.360982 0.948919 0.136075 -0.163797
C54   C     C_R   0.639001 0.051111 0.863879 -0.165886
C55   C     C_R   0.137795 0.449588 0.362565 -0.166486
C56   C     C_R   0.860126 0.550338 0.635212 -0.160937
C57   C     C_R   0.364269 0.113168 0.096243 0.206872
C58   C     C_R   0.635885 0.887346 0.903940 0.205662
C59   C     C_R   0.131712 0.618784 0.399518 0.201870
C60   C     C_R   0.861988 0.388256 0.594222 0.207031
C61   C     C_R   0.404118 0.126250 0.057122 0.235630
C62   C     C_R   0.596004 0.874120 0.943012 0.236233
C63   C     C_R   0.091836 0.629150 0.438649 0.236778
C64   C     C_R   0.901634 0.373267 0.554869 0.236519
C65   C     C_R   0.441038 0.976773 0.056302 0.012256
C66   C     C_R   0.558894 0.023032 0.943559 0.012214
C67   C     C_R   0.057197 0.473456 0.441820 0.010005
C68   C     C_R   0.939615 0.518946 0.554897 0.013118
C69   C     C_1   0.482731 0.991835 0.016609 -0.044712
C70   C     C_1   0.517185 0.007873 0.983225 -0.044425
C71   C     C_1   0.015511 0.486251 0.481564 -0.043361
C72   C     C_1   0.981132 0.502164 0.515045 -0.045110
N1    N     N_3   0.587028 0.968464 0.361532 -0.609833
H9    H     H_    0.574436 0.837369 0.340772 0.229395
H10   H     H_    0.573212 0.081681 0.332084 0.227161
N2    N     N_3   0.421198 0.829036 0.634790 -0.609748
H11   H     H_    0.442203 0.706369 0.651075 0.228807
H12   H     H_    0.427767 0.938778 0.668064 0.228391
N3    N     N_3   0.910543 0.378980 0.130485 -0.613472
H13   H     H_    0.919351 0.233259 0.140294 0.226395
H14   H     H_    0.926781 0.462457 0.167922 0.232246
N4    N     N_3   0.089444 0.621319 0.869564 -0.613530
H15   H     H_    0.073199 0.537910 0.832114 0.232319
H16   H     H_    0.080644 0.767062 0.859778 0.226369
N5    N     N_3   0.406955 0.139387 0.363915 -0.671125
H17   H     H_    0.415407 0.058285 0.325458 0.205723
H18   H     H_    0.437456 0.232257 0.379090 0.244193
N6    N     N_3   0.583171 0.171011 0.640328 -0.681679
H19   H     H_    0.580817 0.070732 0.676164 0.207242
H20   H     H_    0.547325 0.236222 0.627447 0.244859
N7    N     N_3   0.085690 0.538794 0.149917 -0.690805
H21   H     H_    0.077971 0.417400 0.176376 0.211670
H22   H     H_    0.053958 0.632452 0.142953 0.245020
N8    N     N_3   0.914324 0.461394 0.850116 -0.689755
H23   H     H_    0.946060 0.367758 0.857084 0.245088
H24   H     H_    0.922040 0.582814 0.823668 0.212084
H25   H     H_    0.286559 0.794692 0.456413 0.125895
H26   H     H_    0.721856 0.993868 0.540867 0.142791
H27   H     H_    0.219818 0.406153 0.037347 0.137861
H28   H     H_    0.780153 0.593659 0.962650 0.138150
N9    N     N_3   0.677451 0.962886 0.426944 -0.604661
H29   H     H_    0.698953 0.834811 0.433873 0.232867
H30   H     H_    0.703337 0.077445 0.423264 0.237586
N10   N     N_3   0.333206 0.763074 0.568686 -0.605754
H31   H     H_    0.320852 0.621805 0.557343 0.231710
H32   H     H_    0.300636 0.846037 0.575831 0.236326
N11   N     N_3   0.825443 0.538671 0.075457 -0.608283
H33   H     H_    0.795888 0.435048 0.071541 0.240264
H34   H     H_    0.808414 0.675481 0.078554 0.231269
N12   N     N_3   0.174519 0.461299 0.924549 -0.608410
H35   H     H_    0.191523 0.324448 0.921441 0.231097
H36   H     H_    0.204093 0.564847 0.928463 0.240230
H37   H     H_    0.465148 0.696663 0.093804 0.129451
H38   H     H_    0.534485 0.302315 0.905630 0.129809
H39   H     H_    0.036760 0.186083 0.407957 0.131512
H40   H     H_    0.965731 0.794682 0.593928 0.129362
N13   N     N_3   0.326845 0.267165 0.092706 -0.631068
H41   H     H_    0.289715 0.207617 0.085649 0.214750
H42   H     H_    0.331278 0.347107 0.133925 0.243032
N14   N     N_3   0.673525 0.734076 0.907768 -0.631371
H43   H     H_    0.710569 0.794419 0.914714 0.214990
H44   H     H_    0.669216 0.653394 0.866693 0.242606
N15   N     N_3   0.165981 0.781965 0.399818 -0.625750
H45   H     H_    0.204087 0.733446 0.408961 0.215729
H46   H     H_    0.160588 0.851522 0.356729 0.242828
N16   N     N_3   0.823396 0.238450 0.589857 -0.632991
H47   H     H_    0.786615 0.301658 0.583477 0.217535
H48   H     H_    0.827464 0.155084 0.630408 0.243396
N17   N     N_3   0.406468 0.294552 0.018394 -0.627130
H49   H     H_    0.404303 0.249102 0.972116 0.230896
H50   H     H_    0.442206 0.362395 0.029694 0.218361
N18   N     N_3   0.593820 0.706270 0.981972 -0.627158
H51   H     H_    0.595874 0.752334 0.028181 0.230748
H52   H     H_    0.558176 0.637704 0.970708 0.218539
N19   N     N_3   0.087103 0.801246 0.475023 -0.628294
H53   H     H_    0.090345 0.761850 0.521922 0.230860
H54   H     H_    0.050278 0.860279 0.463299 0.216361
N20   N     N_3   0.902723 0.206912 0.515103 -0.627310
H55   H     H_    0.900907 0.255066 0.469116 0.230563
H56   H     H_    0.937935 0.134676 0.525975 0.219563

loop_
_geom_bond_atom_site_label_1
_geom_bond_atom_site_label_2
_ccdc_geom_bond_type
O17   V3    S    
C67   C71   S    
O1    C5    A    
C69   C70   T    
C16   N12   S    
O19   V1    S    
C9    C21   A    
O3    C7    A    
N3    H13   S    
C10   C18   A    
C60   C64   A    
C52   H8    S    
C11   C23   A    
C24   N7    S    
C51   C55   A    
N17   H49   S    
C25   C33   A    
N7    H21   S    
N19   H54   S    
C5    C12   S    
C20   H27   S    
O7    C3    A    
C6    C11   S    
N1    H10   S    
C2    C56   S    
C35   C40   A    
N8    H23   S    
C36   C39   A    
C40   C44   A    
O9    V1    S    
N18   H51   S    
C14   C18   A    
C55   C59   A    
N13   H42   S    
C17   H26   S    
O4    C8    A    
C63   C67   A    
N7    H22   S    
N15   H46   S    
N20   H55   S    
C62   C66   A    
O1    V3    S    
O13   V1    S    
N2    H11   S    
C38   H2    S    
O2    V4    S    
O3    V1    S    
C60   N16   S    
C28   C36   A    
C13   C17   A    
C1    O15   A    
C68   C72   S    
C15   C31   A    
C56   C60   A    
C2    O16   A    
C16   C32   A    
O2    C6    A    
N8    H24   S    
C10   C22   A    
C61   N17   S    
C11   C19   A    
C16   C20   A    
C27   C31   A    
C43   N3    S    
C13   C29   A    
C50   C54   A    
C34   C37   A    
O11   C7    A    
O15   V3    S    
C35   C36   A    
O12   C8    A    
C64   N20   S    
N16   H48   S    
O10   V2    S    
C41   N1    S    
N17   H50   S    
N6    H20   S    
C58   C62   A    
O5    V1    S    
O17   V1    S    
C15   N11   S    
C57   N13   S    
O7    V3    S    
C38   C42   A    
O19   V3    S    
C26   C34   A    
C48   C68   A    
O20   V4    S    
C58   N14   S    
C54   C58   A    
C42   N2    S    
N19   H53   S    
N5    H18   S    
O18   V4    S    
C15   C19   A    
C47   H39   S    
C66   C70   S    
C59   C63   A    
C22   N5    S    
C45   H37   S    
O8    V4    S    
C45   C65   A    
C39   C43   A    
O5    C1    A    
C50   H6    S    
C61   C65   A    
N4    H16   S    
C14   C30   A    
C21   C25   A    
O8    C4    A    
C7    C10   S    
C47   C67   A    
O9    C5    A    
N3    H14   S    
C26   C30   A    
O11   V3    S    
O14   V2    S    
C21   N6    S    
N10   H32   S    
O6    V2    S    
C39   H3    S    
O18   V2    S    
C14   N10   S    
N16   H47   S    
C13   N9    S    
C12   C20   A    
C27   C35   A    
C59   N15   S    
C33   C38   A    
C62   N18   S    
N15   H45   S    
C29   C41   A    
N6    H19   S    
C23   N8    S    
O16   V4    S    
C37   H1    S    
C3    O13   A    
C53   C57   A    
C46   C66   A    
C46   H38   S    
C48   C52   A    
N14   H44   S    
N10   H31   S    
C63   N19   S    
O6    C2    A    
C23   C27   A    
N11   H33   S    
N2    H12   S    
N4    H15   S    
C30   C42   A    
O12   V4    S    
N1    H9    S    
C22   C26   A    
C8    C9    S    
C4    C54   S    
C9    C17   A    
O10   C6    A    
N18   H52   S    
C31   C43   A    
C52   C56   A    
C32   C44   A    
N13   H41   S    
C1    C55   S    
C51   H7    S    
N11   H34   S    
C33   C34   A    
N9    H29   S    
N20   H56   S    
C3    C53   S    
C25   C29   A    
C64   C68   A    
O20   V2    S    
C19   H28   S    
C12   C24   A    
C18   H25   S    
N12   H36   S    
C40   H4    S    
C57   C61   A    
C65   C69   S    
C49   C53   A    
C37   C41   A    
C24   C28   A    
N14   H43   S    
C48   H40   S    
C49   H5    S    
C46   C50   A    
C4    O14   A    
C71   C72   T    
N9    H30   S    
C45   C49   A    
N12   H35   S    
N5    H17   S    
C47   C51   A    
O4    V2    S    
C28   C32   A    
C44   N4    S    
