data_mof_unit_51643.cif
_audit_creation_date              2013-03-05T16:11:20-0500
_audit_creation_method            fapswitch 2.2
_symmetry_space_group_name_H-M    P1
_symmetry_Int_Tables_number       1
_space_group_crystal_system       triclinic
_cell_length_a                    10.941303
_cell_length_b                    9.92874
_cell_length_c                    11.00364
_cell_angle_alpha                 89.209713
_cell_angle_beta                  94.553749
_cell_angle_gamma                 91.011837
_cell_volume                      1191.3110209

loop_
_atom_site_label
_atom_site_type_symbol
_atom_site_description
_atom_site_fract_x
_atom_site_fract_y
_atom_site_fract_z
_atom_type_partial_charge
O1    O     O_R   0.316750 0.614620 0.499990 -0.604363
O2    O     O_R   0.316750 0.385380 0.499990 -0.587028
C1    C     C_R   0.260149 0.499302 0.496283 0.958614
O3    O     O_R   0.499970 0.614670 0.314790 -0.570181
O4    O     O_R   0.499970 0.385330 0.314790 -0.541496
C2    C     C_R   0.496576 0.500242 0.257551 1.057486
Zn1   Zn    Zn3+2 0.499980 0.653120 0.500000 1.119784
Zn2   Zn    Zn3+2 0.499980 0.346880 0.500000 1.144619
O5    O     O_R   0.683220 0.614710 0.500010 -0.540521
O6    O     O_R   0.683220 0.385290 0.500010 -0.548148
O7    O     O_R   0.500010 0.614660 0.685200 -0.619825
O8    O     O_R   0.500010 0.385340 0.685200 -0.571103
C3    C     C_R   0.740392 0.500619 0.500268 1.031624
C4    C     C_R   0.493684 0.499980 0.741731 0.934319
C5    C     C_3   0.423216 0.637943 0.066597 0.367409
C6    C     C_3   0.401276 0.370118 0.066547 0.361733
C7    C     C_3   0.454364 0.651585 0.926607 -0.000489
C8    C     C_3   0.385507 0.391729 0.918210 -0.013518
C9    C     C_3   0.634952 0.488930 0.080129 0.332834
C10   C     C_3   0.491328 0.498355 0.120928 -0.498063
C11   C     C_3   0.489173 0.501029 0.878690 -0.073634
C12   C     C_3   0.623786 0.459170 0.935822 -0.004263
C13   C     C_R   0.062714 0.375965 0.498684 0.216172
C14   C     C_R   0.064660 0.621102 0.472863 0.234558
C15   C     C_R   0.936463 0.375910 0.499286 0.222124
C16   C     C_R   0.939171 0.623009 0.480685 0.220737
C17   C     C_R   0.873037 0.500202 0.493255 -0.345502
C18   C     C_R   0.127661 0.498599 0.488955 -0.347837
C19   C     C_R   0.566041 0.072071 0.588020 0.313179
C20   C     C_R   0.579489 0.931339 0.578966 0.261074
N1    N     N_R   0.499970 0.857200 0.499970 -0.164607
N2    N     N_R   0.499970 0.142800 0.499970 -0.172868
C21   C     C_R   0.423315 0.927941 0.419268 0.026719
C22   C     C_R   0.427045 0.071347 0.415917 0.027659
H1    H     H_    0.360899 0.873894 0.355680 0.233272
H2    H     H_    0.368585 0.124808 0.348331 0.231728
N3    N     N_R   0.458930 0.767761 0.129162 0.201243
O9    O     O_R   0.569664 0.801004 0.169870 -0.265099
O10   O     O_R   0.379266 0.863982 0.123405 -0.296415
N4    N     N_R   0.447692 0.231991 0.097354 0.169969
O11   O     O_R   0.542052 0.207240 0.172402 -0.311132
O12   O     O_R   0.375765 0.129058 0.070258 -0.299436
N5    N     N_R   0.289400 0.626310 0.085214 0.232617
O13   O     O_R   0.257719 0.634873 0.196462 -0.297740
O14   O     O_R   0.202908 0.648188 0.999733 -0.314277
N6    N     N_R   0.278779 0.367102 0.118945 0.253186
O15   O     O_R   0.190048 0.293621 0.067616 -0.270076
O16   O     O_R   0.273209 0.381352 0.235520 -0.351356
N7    N     N_3   0.357102 0.719857 0.847985 -0.401327
H3    H     H_    0.325224 0.805970 0.888201 0.280467
H4    H     H_    0.287031 0.664981 0.802323 0.248698
N8    N     N_3   0.265089 0.446986 0.875472 -0.373193
H5    H     H_    0.262423 0.456643 0.780457 0.158505
H6    H     H_    0.192343 0.379381 0.882330 0.276137
N9    N     N_3   0.560105 0.744703 0.921359 -0.352308
H7    H     H_    0.539439 0.840820 0.950306 0.277012
H8    H     H_    0.570832 0.769038 0.831307 0.260659
N10   N     N_3   0.390210 0.262551 0.851793 -0.372153
H9    H     H_    0.455053 0.195025 0.885407 0.271769
H10   H     H_    0.307265 0.208757 0.852998 0.262836
N11   N     N_R   0.704703 0.613431 0.117655 0.259125
O17   O     O_R   0.767914 0.686971 0.045959 -0.290020
O18   O     O_R   0.733212 0.628692 0.233616 -0.281980
N12   N     N_R   0.712313 0.382212 0.142658 0.232447
O19   O     O_R   0.813930 0.351381 0.096249 -0.311886
O20   O     O_R   0.714496 0.365618 0.259727 -0.291072
N13   N     N_3   0.722629 0.523339 0.869512 -0.394303
H11   H     H_    0.716527 0.624543 0.851244 0.289358
H12   H     H_    0.809452 0.503435 0.911960 0.273953
N14   N     N_3   0.638931 0.314597 0.913193 -0.340527
H13   H     H_    0.729149 0.292010 0.896874 0.307313
H14   H     H_    0.621846 0.251109 0.984952 0.256175
N15   N     N_R   0.123393 0.248604 0.507495 0.265900
O21   O     O_R   0.171232 0.205358 0.612607 -0.346073
O22   O     O_R   0.116048 0.168564 0.414492 -0.229779
N16   N     N_R   0.126172 0.746347 0.447091 0.256690
O23   O     O_R   0.176110 0.818153 0.536565 -0.320044
O24   O     O_R   0.106784 0.802227 0.339835 -0.219345
N17   N     N_R   0.876692 0.247442 0.514329 0.267379
O25   O     O_R   0.908607 0.175001 0.610681 -0.226783
O26   O     O_R   0.824514 0.187083 0.419199 -0.208005
N18   N     N_R   0.884658 0.752905 0.487460 0.263415
O27   O     O_R   0.933113 0.836408 0.568185 -0.218164
O28   O     O_R   0.820245 0.802211 0.393476 -0.203755
N19   N     N_R   0.615632 0.137138 0.695783 0.231732
O29   O     O_R   0.694599 0.234741 0.687265 -0.324256
O30   O     O_R   0.610339 0.074299 0.799936 -0.416970
N20   N     N_R   0.685505 0.874690 0.646630 0.237826
O31   O     O_R   0.692743 0.748967 0.674400 -0.404246
O32   O     O_R   0.777053 0.951631 0.686552 -0.194888

loop_
_geom_bond_atom_site_label_1
_geom_bond_atom_site_label_2
_geom_bond_distance
_ccdc_geom_bond_type
N9    H7    1.044386 S    
C8    C11   1.635587 S    
N15   O21   1.301615 A    
C9    C10   1.672745 S    
C8    N8    1.475829 S    
N19   O29   1.294291 A    
Zn1   O7    2.068134 S    
C16   C17   1.417587 A    
N3    O9    1.296648 A    
N16   O24   1.300793 A    
C4    C11   1.511954 S    
C1    C18   1.445328 S    
C14   C16   1.382986 A    
C19   N2    1.357353 A    
C20   N1    1.389012 A    
O7    C4    1.293340 A    
N10   H10   1.045777 S    
Zn1   O5    2.047429 S    
N11   O18   1.299570 A    
O5    C3    1.303512 A    
C5    N3    1.500649 S    
C8    N10   1.488590 S    
N7    H4    1.033791 S    
N1    C21   1.367719 A    
N14   H13   1.045936 S    
C7    N9    1.472414 S    
C19   N19   1.422821 S    
C6    C10   1.683175 S    
N4    O12   1.302095 A    
C16   N18   1.435797 S    
C15   N17   1.436644 S    
C11   C12   1.613871 S    
N15   O22   1.300929 A    
C13   N15   1.437094 S    
O3    Zn1   2.078592 S    
N8    H6    1.038764 S    
N19   O30   1.302165 A    
C5    C10   1.666275 S    
N6    O16   1.298815 A    
Zn1   N1    2.026255 S    
N13   H11   1.024315 S    
Zn2   N2    2.026260 S    
C9    C12   1.613861 S    
N16   O23   1.302432 A    
O3    C2    1.305137 A    
C7    N7    1.484421 S    
N17   O26   1.300442 A    
C14   N16   1.439015 S    
N10   H9    1.028558 S    
C7    C11   1.652666 S    
O1    C1    1.291648 A    
N12   O20   1.294813 A    
N5    O13   1.302756 A    
C19   C20   1.413307 A    
C9    N12   1.493864 S    
Zn2   O8    2.078486 S    
C21   C22   1.423760 A    
C13   C18   1.406020 A    
N5    O14   1.299130 A    
C6    N4    1.496013 S    
Zn2   O6    2.034198 S    
N4    O11   1.294688 A    
O8    C4    1.310133 A    
N7    H3    1.045935 S    
N18   O28   1.299356 A    
N9    H8    1.031932 S    
C6    N6    1.500166 S    
N8    H5    1.046723 S    
C5    C7    1.607266 S    
N6    O15   1.301179 A    
O1    Zn1   2.034243 S    
O2    Zn2   2.047504 S    
C14   C18   1.410740 A    
N20   O32   1.300854 A    
O6    C3    1.294999 A    
O4    Zn2   2.068242 S    
C15   C17   1.424626 A    
C2    C10   1.500246 S    
N12   O19   1.302739 A    
O2    C1    1.297701 A    
C5    N5    1.496645 S    
N3    O10   1.302087 A    
O4    C2    1.295288 A    
C9    N11   1.487175 S    
C21   H1    1.079554 S    
C22   H2    1.081448 S    
C13   C15   1.381890 A    
N11   O17   1.298753 A    
C12   N13   1.481903 S    
N17   O25   1.300913 A    
N20   O31   1.283334 A    
C6    C8    1.639197 S    
N18   O27   1.299026 A    
C3    C17   1.459540 S    
N14   H14   1.030212 S    
N13   H12   1.045590 S    
C20   N20   1.445876 S    
C12   N14   1.474690 S    
N2    C22   1.369772 A    
