data_mof_unit_26481.cif
_audit_creation_date              2013-03-05T15:56:48-0500
_audit_creation_method            fapswitch 2.2
_symmetry_space_group_name_H-M    P1
_symmetry_Int_Tables_number       1
_space_group_crystal_system       triclinic
_cell_length_a                    20.822434
_cell_length_b                    21.782074
_cell_length_c                    13.883794
_cell_angle_alpha                 90.093299
_cell_angle_beta                  89.968944
_cell_angle_gamma                 90.027387
_cell_volume                      6297.06527996

loop_
_atom_site_label
_atom_site_type_symbol
_atom_site_description
_atom_site_fract_x
_atom_site_fract_y
_atom_site_fract_z
_atom_type_partial_charge
O1    O     O_R   0.064880 0.435140 0.582280 -0.571969
O2    O     O_R   0.935120 0.564860 0.417720 -0.528857
O3    O     O_R   0.935120 0.564860 0.582280 -0.568543
O4    O     O_R   0.064880 0.435140 0.417720 -0.530014
O5    O     O_R   0.935120 0.435140 0.417720 -0.585570
O6    O     O_R   0.064880 0.564860 0.582280 -0.608210
O7    O     O_R   0.064880 0.564860 0.417720 -0.584670
O8    O     O_R   0.935120 0.435140 0.582280 -0.608699
O9    O     O_R   0.564880 0.935140 0.582280 -0.569181
O10   O     O_R   0.435120 0.064860 0.417720 -0.615736
O11   O     O_R   0.435120 0.064860 0.582280 -0.576672
O12   O     O_R   0.564880 0.935140 0.417720 -0.616894
O13   O     O_R   0.435120 0.935140 0.417720 -0.571854
O14   O     O_R   0.564880 0.064860 0.582280 -0.528935
O15   O     O_R   0.564880 0.064860 0.417720 -0.573543
O16   O     O_R   0.435120 0.935140 0.582280 -0.528579
C1    C     C_R   0.084979 0.414384 0.499837 0.863115
C2    C     C_R   0.915013 0.585632 0.500005 0.863130
C3    C     C_R   0.914223 0.414968 0.499851 0.839209
C4    C     C_R   0.085760 0.585054 0.499915 0.841715
C5    C     C_R   0.584896 0.914246 0.499981 0.845829
C6    C     C_R   0.415002 0.085735 0.500112 0.848380
C7    C     C_R   0.414093 0.915215 0.500120 0.853409
C8    C     C_R   0.585907 0.084787 0.500169 0.852534
Cu1   Cu    Cu3+1 0.000000 0.500000 0.597420 0.992754
Cu2   Cu    Cu3+1 0.000000 0.500000 0.402580 1.015650
Cu3   Cu    Cu3+1 0.500000 1.000000 0.597420 1.031321
Cu4   Cu    Cu3+1 0.500000 0.000000 0.402580 0.985807
C9    C     C_R   0.122536 0.686861 0.447826 0.330778
C10   C     C_R   0.877580 0.312984 0.448022 0.332860
C11   C     C_R   0.881080 0.691177 0.546255 0.331725
C12   C     C_R   0.117107 0.307214 0.538959 0.321245
C13   C     C_R   0.620474 0.188411 0.544192 0.361290
C14   C     C_R   0.379377 0.811786 0.544539 0.361252
C15   C     C_R   0.381209 0.191569 0.454052 0.302450
C16   C     C_R   0.619098 0.808788 0.452625 0.307716
C17   C     C_R   0.134696 0.632792 0.499365 -0.215994
C18   C     C_R   0.865252 0.367276 0.499167 -0.215341
C19   C     C_R   0.868056 0.634947 0.499467 -0.176233
C20   C     C_R   0.131838 0.365031 0.498707 -0.169408
C21   C     C_R   0.635292 0.131874 0.501444 -0.203858
C22   C     C_R   0.364717 0.868128 0.501347 -0.206461
C23   C     C_R   0.368167 0.135345 0.500898 -0.170790
C24   C     C_R   0.631765 0.864776 0.500505 -0.176038
C25   C     C_R   0.192899 0.624385 0.549364 0.317529
C26   C     C_R   0.806868 0.375938 0.548714 0.316383
C27   C     C_R   0.808955 0.623762 0.455102 0.362274
C28   C     C_R   0.192217 0.377399 0.459123 0.363138
C29   C     C_R   0.695851 0.121026 0.459308 0.350786
C30   C     C_R   0.304272 0.878831 0.458944 0.354602
C31   C     C_R   0.310230 0.125681 0.549724 0.322334
C32   C     C_R   0.690486 0.875533 0.546335 0.326725
C33   C     C_R   0.237950 0.672140 0.551174 0.059671
C34   C     C_R   0.761806 0.328188 0.550568 0.059831
C35   C     C_R   0.762138 0.670236 0.453184 -0.047258
C36   C     C_R   0.239267 0.331079 0.457409 -0.046907
C37   C     C_R   0.741091 0.168688 0.457393 0.051614
C38   C     C_R   0.259055 0.831150 0.456946 0.050332
C39   C     C_R   0.261670 0.170444 0.545026 -0.041730
C40   C     C_R   0.737331 0.829073 0.548128 -0.037591
C41   C     C_R   0.225631 0.727634 0.501859 -0.089509
C42   C     C_R   0.774322 0.272440 0.501768 -0.089761
C43   C     C_R   0.773867 0.726739 0.500462 -0.066649
C44   C     C_R   0.225869 0.273143 0.498774 -0.064869
C45   C     C_R   0.727604 0.225384 0.502812 -0.095828
C46   C     C_R   0.272367 0.774670 0.502828 -0.096024
C47   C     C_R   0.274384 0.227612 0.500733 -0.059199
C48   C     C_R   0.725706 0.772676 0.500507 -0.061550
C49   C     C_R   0.166718 0.736134 0.451959 -0.005126
C50   C     C_R   0.833414 0.263709 0.452298 -0.004687
C51   C     C_R   0.833735 0.737584 0.546981 -0.010537
C52   C     C_R   0.163913 0.260359 0.537110 -0.017760
C53   C     C_R   0.667824 0.234777 0.550034 -0.008133
C54   C     C_R   0.331975 0.765491 0.550487 -0.008522
C55   C     C_R   0.335279 0.239195 0.458003 -0.016686
C56   C     C_R   0.666001 0.761975 0.453479 -0.011653
C57   C     C_R   0.295267 0.665007 0.602678 -0.217357
C58   C     C_R   0.704294 0.335570 0.601624 -0.217051
C59   C     C_R   0.703976 0.661148 0.404544 -0.186624
C60   C     C_R   0.299252 0.341620 0.414684 -0.181339
C61   C     C_R   0.800898 0.159307 0.413618 -0.204232
C62   C     C_R   0.199423 0.840325 0.412686 -0.200039
C63   C     C_R   0.199696 0.157656 0.578951 -0.191904
C64   C     C_R   0.795394 0.838039 0.597120 -0.195430
C65   C     C_R   0.847503 0.205610 0.411524 0.401205
C66   C     C_R   0.152820 0.794017 0.410591 0.399155
C67   C     C_R   0.150707 0.200566 0.572365 0.454692
C68   C     C_R   0.844116 0.794734 0.593558 0.447978
C69   C     C_R   0.341911 0.711237 0.604392 0.400624
C70   C     C_R   0.657662 0.289325 0.603406 0.401720
C71   C     C_R   0.655377 0.704584 0.407700 0.444153
C72   C     C_R   0.347626 0.297905 0.417876 0.448866
H1    H     H_    0.303921 0.623365 0.643190 0.199663
H2    H     H_    0.695473 0.377426 0.641734 0.199256
H3    H     H_    0.694519 0.619364 0.364751 0.195707
H4    H     H_    0.310253 0.384647 0.379520 0.193479
H5    H     H_    0.812138 0.115319 0.381261 0.199938
H6    H     H_    0.188331 0.884151 0.379915 0.201468
H7    H     H_    0.187119 0.112656 0.605986 0.193892
H8    H     H_    0.804705 0.879645 0.637439 0.194522
C73   C     C_R   0.054708 0.484534 0.794296 0.539395
C74   C     C_R   0.945181 0.515116 0.205759 0.521881
C75   C     C_R   0.945105 0.515058 0.794340 0.539462
C76   C     C_R   0.055015 0.485275 0.205736 0.519012
C77   C     C_R   0.554968 0.014939 0.794218 0.536500
C78   C     C_R   0.445006 0.985214 0.205808 0.534060
C79   C     C_R   0.445251 0.984588 0.794380 0.535194
C80   C     C_R   0.554825 0.015165 0.205688 0.536249
N1    N     N_R   0.000000 0.500000 0.743810 -0.316889
N2    N     N_R   1.000000 0.500000 0.256190 -0.319950
N3    N     N_R   0.500000 1.000000 0.743810 -0.320416
N4    N     N_R   0.500000 0.000000 0.256190 -0.314196
C81   C     C_R   0.944727 0.518187 0.897093 -0.059557
C82   C     C_R   0.055339 0.481958 0.103000 -0.062485
C83   C     C_R   0.054862 0.481227 0.896875 -0.060668
C84   C     C_R   0.945086 0.518619 0.103212 -0.064177
C85   C     C_R   0.445124 0.981234 0.896954 -0.058908
C86   C     C_R   0.554960 0.018588 0.103121 -0.061180
C87   C     C_R   0.555346 0.018080 0.896980 -0.058322
C88   C     C_R   0.444679 0.981904 0.103077 -0.059616
C89   C     C_R   0.000023 0.500203 0.948558 -0.172108
C90   C     C_R   0.999989 0.499803 0.051529 -0.167250
C91   C     C_R   0.500008 0.000156 0.948541 -0.169875
C92   C     C_R   0.500044 0.999757 0.051517 -0.167049
C93   C     C_R   0.889364 0.536624 0.949357 0.343522
C94   C     C_R   0.110671 0.463452 0.050753 0.336060
C95   C     C_R   0.109050 0.459749 0.948566 0.345201
C96   C     C_R   0.890903 0.540117 0.051562 0.338489
C97   C     C_R   0.390922 0.959740 0.948739 0.343060
C98   C     C_R   0.609187 0.040020 0.051374 0.341686
C99   C     C_R   0.610739 0.036476 0.949163 0.344079
C100  C     C_R   0.389327 0.963402 0.050930 0.338646
O17   O     O_3   0.066751 0.690196 0.394665 -0.670701
H9    H     H_    0.079564 0.701327 0.328142 0.364768
O18   O     O_3   0.933486 0.309460 0.395064 -0.671314
H10   H     H_    0.920870 0.297810 0.328640 0.364289
O19   O     O_3   0.938565 0.700858 0.593958 -0.661960
H11   H     H_    0.972831 0.675502 0.564673 0.340423
O20   O     O_3   0.058854 0.296373 0.584049 -0.663776
H12   H     H_    0.025705 0.324790 0.559456 0.342602
O21   O     O_3   0.558518 0.197447 0.576503 -0.674619
H13   H     H_    0.543542 0.236876 0.548887 0.351297
O22   O     O_3   0.441224 0.802866 0.577245 -0.672610
H14   H     H_    0.456222 0.763247 0.550109 0.352318
O23   O     O_3   0.437042 0.200284 0.401610 -0.685268
H15   H     H_    0.471476 0.173287 0.426091 0.335831
O24   O     O_3   0.562661 0.799740 0.401855 -0.685116
H16   H     H_    0.528207 0.826139 0.428080 0.335466
O25   O     O_3   0.207960 0.569678 0.594743 -0.719953
H17   H     H_    0.184085 0.535585 0.564069 0.328419
O26   O     O_3   0.791656 0.430878 0.593598 -0.720348
H18   H     H_    0.815731 0.464815 0.562960 0.326542
O27   O     O_3   0.797916 0.566129 0.416726 -0.707220
H19   H     H_    0.754377 0.552863 0.436563 0.323383
O28   O     O_3   0.204140 0.435945 0.425271 -0.713907
H20   H     H_    0.246839 0.448933 0.449206 0.323814
O29   O     O_3   0.712458 0.064744 0.419812 -0.697580
H21   H     H_    0.683775 0.032212 0.444634 0.328100
O30   O     O_3   0.287759 0.935018 0.419355 -0.684883
H22   H     H_    0.315987 0.967681 0.445084 0.336700
O31   O     O_3   0.301200 0.070403 0.596519 -0.737384
H23   H     H_    0.278340 0.078691 0.657753 0.339418
O32   O     O_3   0.701243 0.932823 0.586112 -0.736698
H24   H     H_    0.744722 0.946452 0.566578 0.333785
O33   O     O_3   0.907698 0.193621 0.373762 -0.695107
H25   H     H_    0.909392 0.150872 0.349214 0.331872
O34   O     O_3   0.092805 0.805809 0.372199 -0.694380
H26   H     H_    0.091242 0.848415 0.347243 0.332222
O35   O     O_3   0.090149 0.181319 0.598202 -0.653120
H27   H     H_    0.061354 0.191255 0.543541 0.370265
O36   O     O_3   0.901512 0.810467 0.635839 -0.648831
H28   H     H_    0.934111 0.809461 0.583737 0.364085
O37   O     O_3   0.395776 0.705017 0.661820 -0.686727
H29   H     H_    0.394839 0.664685 0.694824 0.331490
O38   O     O_3   0.603570 0.295844 0.660387 -0.687775
H30   H     H_    0.604360 0.336361 0.693047 0.331116
O39   O     O_3   0.597733 0.688524 0.366419 -0.655840
H31   H     H_    0.565003 0.691670 0.418126 0.350938
O40   O     O_3   0.406875 0.315276 0.383414 -0.659726
H32   H     H_    0.438349 0.306430 0.435140 0.349929
O41   O     O_3   0.111159 0.473088 0.746467 -0.622586
H33   H     H_    0.114885 0.503876 0.695149 0.363095
O42   O     O_3   0.888612 0.526137 0.253588 -0.600445
H34   H     H_    0.884838 0.495247 0.304831 0.365587
O43   O     O_3   0.889212 0.527741 0.746070 -0.619935
H35   H     H_    0.884682 0.496489 0.695382 0.362438
O44   O     O_3   0.111020 0.472952 0.254044 -0.602291
H36   H     H_    0.115601 0.504256 0.304724 0.365438
O45   O     O_3   0.610909 0.027607 0.745850 -0.616071
H37   H     H_    0.615420 0.996545 0.694834 0.378518
O46   O     O_3   0.389011 0.972900 0.254221 -0.613840
H38   H     H_    0.384322 0.004524 0.304385 0.356631
O47   O     O_3   0.388749 0.973143 0.746681 -0.623559
H39   H     H_    0.385268 0.003434 0.694611 0.371914
O48   O     O_3   0.611350 0.026296 0.253499 -0.615289
H40   H     H_    0.615194 0.995213 0.304431 0.355793
O49   O     O_3   0.833743 0.550909 0.899982 -0.650921
H41   H     H_    0.796247 0.539710 0.940299 0.338607
O50   O     O_3   0.166303 0.449211 0.100132 -0.651463
H42   H     H_    0.203790 0.460276 0.059705 0.338754
O51   O     O_3   0.159459 0.433448 0.898512 -0.651408
H43   H     H_    0.179539 0.401418 0.939159 0.340763
O52   O     O_3   0.840447 0.566279 0.101693 -0.648867
H44   H     H_    0.820334 0.598354 0.061170 0.342148
O53   O     O_3   0.340479 0.933454 0.898770 -0.651417
H45   H     H_    0.320394 0.901392 0.939419 0.341590
O54   O     O_3   0.659693 0.066145 0.101415 -0.650249
H46   H     H_    0.679882 0.098181 0.060832 0.339614
O55   O     O_3   0.666402 0.050676 0.899708 -0.650324
H47   H     H_    0.703863 0.039457 0.939999 0.339766
O56   O     O_3   0.333692 0.949133 0.100413 -0.651890
H48   H     H_    0.296207 0.960200 0.060070 0.338124

loop_
_geom_bond_atom_site_label_1
_geom_bond_atom_site_label_2
_geom_bond_distance
_ccdc_geom_bond_type
C94   O50   1.382043 S    
C9    O17   1.378565 S    
O52   H44   0.990883 S    
O33   H25   0.991673 S    
C83   C89   1.410049 A    
O5    Cu2   1.965726 S    
O2    C2    1.297353 A    
O51   H43   0.990895 S    
C63   C67   1.387001 A    
O24   H16   0.988606 S    
C14   C22   1.400666 A    
C69   O37   1.383292 S    
O42   H34   0.983106 S    
C23   C31   1.399491 A    
O31   H23   0.990504 S    
O15   Cu4   1.965388 S    
C45   C53   1.421291 A    
C91   C92   1.429739 A    
C12   C52   1.411746 A    
C78   N4    1.379877 A    
O41   H33   0.982266 S    
Cu4   N4    2.032449 S    
C10   C18   1.402139 A    
C35   C59   1.400753 A    
C94   C95   1.421317 A    
O7    Cu2   1.965388 S    
C84   C90   1.410116 A    
O12   Cu4   1.966809 S    
C74   O42   1.372929 S    
C54   C69   1.415192 A    
C19   C27   1.397596 A    
C75   C81   1.428142 A    
C39   C63   1.401481 A    
C53   C70   1.415226 A    
C38   C62   1.400266 A    
O30   H22   0.989058 S    
C82   C94   1.419393 A    
O6    Cu1   1.965723 S    
C81   C93   1.419626 A    
C41   C49   1.421488 A    
O22   H14   0.991613 S    
C46   C54   1.421239 A    
C83   C95   1.417578 A    
O13   C7    1.299905 A    
O3    C2    1.298926 A    
C20   C28   1.398097 A    
C15   O23   1.384576 S    
O14   C8    1.296387 A    
C98   O54   1.382544 S    
C16   C56   1.412347 A    
C39   C47   1.414511 A    
C33   C41   1.413827 A    
C41   C46   1.412763 A    
C38   C46   1.413945 A    
O29   H21   0.988809 S    
O56   H48   0.991050 S    
C75   O43   1.371739 S    
C99   O55   1.382015 S    
C93   C96   1.421288 A    
C87   C99   1.419645 A    
O26   H18   0.989494 S    
C36   C44   1.414956 A    
O13   Cu4   1.965726 S    
C79   C85   1.426110 A    
O11   Cu3   1.966809 S    
O14   Cu3   1.965723 S    
C11   O19   1.384206 S    
C15   C23   1.413738 A    
Cu2   N2    2.032449 S    
C59   C71   1.386306 A    
O47   H39   0.982277 S    
Cu1   N1    2.032449 S    
C97   C100  1.421281 A    
C85   C97   1.417597 A    
C24   C32   1.398181 A    
O16   Cu3   1.965391 S    
C12   C20   1.412136 A    
C26   O26   1.385096 S    
C77   N3    1.380399 A    
Cu3   N3    2.032449 S    
O50   H42   0.991049 S    
C68   O36   1.374808 S    
C63   H7    1.082152 S    
O1    Cu1   1.966161 S    
C8    C21   1.452113 S    
C62   H6    1.083249 S    
C42   C50   1.421545 A    
C29   O29   1.386090 S    
O49   H41   0.991057 S    
C100  O56   1.382058 S    
C78   O46   1.372094 S    
C21   C29   1.409678 A    
C10   C50   1.414378 A    
O23   H15   0.988296 S    
C31   C39   1.406613 A    
C9    C49   1.414379 A    
C14   O22   1.379695 S    
O8    C3    1.300323 A    
O54   H46   0.990880 S    
C64   H8    1.081914 S    
C44   C47   1.416305 A    
C77   O45   1.372351 S    
O18   H10   0.991626 S    
C30   O30   1.386000 S    
C74   C84   1.425905 A    
C12   O20   1.385043 S    
C95   O51   1.382511 S    
O34   H26   0.991687 S    
C34   C42   1.413841 A    
C13   O21   1.379699 S    
Cu1   Cu2   2.705117 S    
O37   H29   0.991687 S    
O12   C5    1.299079 A    
O10   C6    1.299523 A    
C58   C70   1.399019 A    
O46   H38   0.983623 S    
C35   C43   1.415102 A    
C1    C20   1.452198 S    
C30   C38   1.401757 A    
C60   H4    1.081835 S    
C60   C72   1.387198 A    
C33   C57   1.400475 A    
C2    C19   1.452918 S    
C59   H3    1.081977 S    
C86   C98   1.417317 A    
C72   O40   1.376094 S    
C80   C86   1.426086 A    
C56   C71   1.418784 A    
C5    C24   1.454185 S    
C97   O53   1.382505 S    
C16   O24   1.384520 S    
C27   O27   1.382136 S    
O38   H30   0.991682 S    
O3    Cu1   1.966809 S    
C15   C55   1.412296 A    
C26   C34   1.400713 A    
Cu3   Cu4   2.705117 S    
O55   H47   0.991058 S    
O2    Cu2   1.966161 S    
O35   H27   0.991671 S    
C86   C92   1.410166 A    
C80   O48   1.372880 S    
C51   C68   1.418372 A    
C7    C22   1.452026 S    
O36   H28   0.991933 S    
C89   C90   1.429663 A    
C55   C72   1.419056 A    
C22   C30   1.409456 A    
C76   C82   1.428083 A    
O4    C1    1.296822 A    
C13   C53   1.413335 A    
O15   C8    1.299692 A    
C28   O28   1.382157 S    
C14   C54   1.413201 A    
O7    C4    1.297508 A    
O16   C7    1.296133 A    
C70   O38   1.383269 S    
O17   H9    0.991661 S    
C73   C83   1.426127 A    
C37   C61   1.400354 A    
C16   C24   1.412777 A    
C47   C55   1.422222 A    
C17   C25   1.409154 A    
C79   O47   1.372917 S    
C52   C67   1.418838 A    
C73   O41   1.372468 S    
O9    Cu3   1.966161 S    
C27   C35   1.406017 A    
O10   Cu4   1.966161 S    
C28   C36   1.406831 A    
C76   O44   1.372434 S    
O53   H45   0.990893 S    
C43   C48   1.416980 A    
C42   C45   1.412858 A    
C78   C88   1.428014 A    
C88   C100  1.419331 A    
C57   C69   1.398898 A    
C79   N3    1.380150 A    
C66   O34   1.383194 S    
C64   C68   1.386417 A    
C43   C51   1.423742 A    
C29   C37   1.401796 A    
O4    Cu2   1.966809 S    
O20   H12   0.988683 S    
O5    C3    1.297524 A    
C87   C91   1.411449 A    
O40   H32   0.991692 S    
C48   C56   1.423487 A    
O6    C4    1.300430 A    
O19   H11   0.989327 S    
O11   C6    1.298481 A    
O1    C1    1.299102 A    
C36   C60   1.401444 A    
C75   N1    1.380240 A    
C65   O33   1.383202 S    
C98   C99   1.421390 A    
C85   C91   1.410098 A    
C13   C21   1.400640 A    
O44   H36   0.983666 S    
C62   C66   1.399627 A    
O21   H13   0.991616 S    
O8    Cu1   1.965391 S    
C76   N2    1.380062 A    
C4    C17   1.455543 S    
C40   C64   1.400981 A    
O9    C5    1.297850 A    
O43   H35   0.982852 S    
C61   H5    1.083227 S    
C58   H2    1.083268 S    
C71   O39   1.375225 S    
C82   C90   1.411493 A    
C57   H1    1.083272 S    
C11   C19   1.411725 A    
C31   O31   1.381823 S    
C25   O25   1.385012 S    
C44   C52   1.422848 A    
O45   H37   0.983206 S    
C18   C26   1.409119 A    
O32   H24   0.990494 S    
C74   N2    1.379712 A    
O39   H31   0.991908 S    
C32   O32   1.382020 S    
C25   C33   1.400593 A    
O48   H40   0.983105 S    
C93   O49   1.382021 S    
C80   N4    1.379674 A    
C3    C18   1.455328 S    
C81   C89   1.411369 A    
C40   C48   1.414945 A    
C32   C40   1.406155 A    
C10   O18   1.378627 S    
C84   C96   1.417330 A    
C9    C17   1.402290 A    
O28   H20   0.990318 S    
C77   C87   1.428274 A    
C34   C58   1.400473 A    
O27   H19   0.990456 S    
O25   H17   0.989372 S    
C50   C65   1.416294 A    
C73   N1    1.380028 A    
C96   O52   1.382573 S    
C6    C23   1.455972 S    
C61   C65   1.399611 A    
C49   C66   1.416394 A    
C88   C92   1.411496 A    
C11   C51   1.412328 A    
C37   C45   1.413929 A    
C67   O35   1.376232 S    
