data_mof_unit_51566.cif
_audit_creation_date              2013-03-05T16:00:16-0500
_audit_creation_method            fapswitch 2.2
_symmetry_space_group_name_H-M    P1
_symmetry_Int_Tables_number       1
_space_group_crystal_system       triclinic
_cell_length_a                    11.700702
_cell_length_b                    14.655942
_cell_length_c                    14.774907
_cell_angle_alpha                 64.737825
_cell_angle_beta                  103.39671
_cell_angle_gamma                 102.606306
_cell_volume                      2208.39802527

loop_
_atom_site_label
_atom_site_type_symbol
_atom_site_description
_atom_site_fract_x
_atom_site_fract_y
_atom_site_fract_z
_atom_type_partial_charge
O1    O     O_R   0.459870 0.022090 0.338120 -0.586565
O2    O     O_R   0.540130 0.977910 0.661880 -0.587818
O3    O     O_R   0.511290 0.160150 0.379180 -0.567536
O4    O     O_R   0.488710 0.839850 0.620820 -0.584025
C1    C     C_R   0.485348 0.119727 0.312453 0.800301
C2    C     C_R   0.522399 0.879870 0.687735 0.798852
O5    O     O_R   0.311490 0.930960 0.479480 -0.585180
O6    O     O_R   0.688510 0.069040 0.520520 -0.580806
O7    O     O_R   0.362910 0.069020 0.520540 -0.570275
O8    O     O_R   0.637090 0.930980 0.479460 -0.561773
C3    C     C_R   0.284132 0.000376 0.499895 0.833032
C4    C     C_R   0.715853 0.999659 0.500009 0.821362
Cu1   Cu    Cu3+1 0.469550 0.918260 0.475690 0.963614
Cu2   Cu    Cu3+1 0.530450 0.081740 0.524310 0.966135
C5    C     C_1   0.162563 0.000768 0.499954 -0.148735
C6    C     C_1   0.837355 0.999243 0.499785 -0.142105
C7    C     C_1   0.059941 0.000354 0.499869 0.040455
C8    C     C_1   0.939922 0.999583 0.499766 0.044761
C9    C     C_R   0.489008 0.186315 0.205268 -0.066135
C10   C     C_R   0.549612 0.811425 0.794747 -0.053867
C11   C     C_R   0.445477 0.214781 0.027871 -0.179592
C12   C     C_R   0.635713 0.782293 0.968710 -0.161895
C13   C     C_R   0.443678 0.149422 0.129040 -0.171475
C14   C     C_R   0.602597 0.849262 0.869331 -0.183497
C15   C     C_R   0.540789 0.287751 0.179555 -0.248055
C16   C     C_R   0.530024 0.706307 0.820689 -0.224306
C17   C     C_R   0.537036 0.356923 0.077865 0.095622
C18   C     C_R   0.567075 0.637414 0.919300 0.091496
C19   C     C_R   0.488806 0.318429 0.001634 0.159719
C20   C     C_R   0.617994 0.676891 0.994295 0.145204
C21   C     C_R   0.572794 0.463631 0.049849 0.060011
C22   C     C_R   0.550600 0.530417 0.945972 0.065044
C23   C     C_R   0.512364 0.488030 0.872235 -0.193691
C24   C     C_R   0.626689 0.506226 0.121964 -0.145585
C25   C     C_R   0.482215 0.383888 0.899904 -0.206316
C26   C     C_R   0.649806 0.610872 0.094163 -0.178130
H1    H     H_    0.449930 0.354741 0.841045 0.150011
H2    H     H_    0.690401 0.640257 0.151923 0.173622
H3    H     H_    0.483564 0.679847 0.762636 0.153349
H4    H     H_    0.579108 0.311468 0.240833 0.184055
H5    H     H_    0.619312 0.930405 0.850808 0.157903
H6    H     H_    0.405803 0.070456 0.147449 0.162473
H7    H     H_    0.409176 0.185000 0.969872 0.142300
H8    H     H_    0.675609 0.812921 0.025605 0.151271
H9    H     H_    0.505622 0.533373 0.791967 0.145962
H10   H     H_    0.653529 0.461016 0.200853 0.173342
N1    N     N_R   0.576230 0.204580 0.560790 -0.194814
N2    N     N_R   0.423770 0.795420 0.439210 -0.189149
C27   C     C_R   0.730014 0.308034 0.624679 -0.115115
C28   C     C_R   0.275257 0.710846 0.349664 -0.124964
C29   C     C_R   0.683011 0.215304 0.616975 0.043473
C30   C     C_R   0.319920 0.793545 0.376355 0.051468
C31   C     C_R   0.507415 0.280865 0.517898 0.050168
C32   C     C_R   0.489191 0.717320 0.476552 0.049578
C33   C     C_R   0.553049 0.381393 0.512380 -0.022009
C34   C     C_R   0.457595 0.636431 0.442264 -0.001187
C35   C     C_R   0.669919 0.395344 0.565286 0.020352
C36   C     C_R   0.345656 0.630997 0.380184 0.029596
C37   C     C_R   0.486400 0.467023 0.458661 -0.005431
C38   C     C_R   0.533324 0.560199 0.471108 -0.000713
C39   C     C_R   0.657293 0.578046 0.504011 -0.108866
C40   C     C_R   0.378514 0.466565 0.388872 -0.083921
C41   C     C_R   0.724410 0.495763 0.553226 -0.083143
C42   C     C_R   0.310385 0.548287 0.349195 -0.071782
H11   H     H_    0.565244 0.718527 0.533783 0.132527
H12   H     H_    0.417547 0.260281 0.489128 0.153125
H13   H     H_    0.268919 0.856066 0.349585 0.138591
H14   H     H_    0.732492 0.151039 0.655122 0.132728
C43   C     C_2   0.720946 0.684288 0.467021 0.830646
O9    O     O_2   0.793890 0.715165 0.525189 -0.567696
O10   O     O_R   0.694466 0.749489 0.365284 -0.746640
H15   H     H_    0.741510 0.819910 0.349219 0.337599
C44   C     C_2   0.345960 0.393424 0.339167 0.812994
O11   O     O_2   0.251901 0.336489 0.348451 -0.563321
O12   O     O_R   0.421352 0.391823 0.279590 -0.761984
H16   H     H_    0.384618 0.343583 0.244740 0.336796
C45   C     C_2   0.854877 0.518316 0.578944 0.891643
O13   O     O_2   0.920049 0.509846 0.529917 -0.568695
O14   O     O_R   0.902577 0.548187 0.659605 -0.710232
H17   H     H_    0.992425 0.561084 0.669856 0.344000
C46   C     C_2   0.208610 0.550422 0.267017 0.879923
O15   O     O_2   0.115923 0.493966 0.286914 -0.527842
O16   O     O_R   0.219748 0.617329 0.167176 -0.748352
H18   H     H_    0.144806 0.612112 0.117868 0.343419
C47   C     C_1   0.837073 0.307686 0.697112 0.258180
N3    N     N_1   0.922593 0.306627 0.755447 -0.243267
C48   C     C_1   0.154935 0.710970 0.296040 0.281041
N4    N     N_1   0.058486 0.711834 0.253406 -0.231256

loop_
_geom_bond_atom_site_label_1
_geom_bond_atom_site_label_2
_geom_bond_distance
_ccdc_geom_bond_type
C48   N4    1.157810 T    
C33   C37   1.450278 A    
C17   C19   1.419212 A    
C23   H9    1.077578 S    
C44   O11   1.223827 D    
O12   H16   1.012537 S    
C46   O15   1.222955 D    
C32   H11   1.079076 S    
C45   O13   1.222962 D    
N2    C32   1.359514 A    
C13   H6    1.083082 S    
O1    C1    1.297434 A    
C25   H1    1.084371 S    
C15   H4    1.074249 S    
C16   H3    1.075830 S    
C27   C35   1.431885 A    
C43   O10   1.398588 S    
O4    Cu1   1.937860 S    
C39   C41   1.414246 A    
C40   C42   1.419357 A    
C11   H7    1.083935 S    
C3    C5    1.423916 S    
C12   H8    1.083888 S    
C10   C14   1.400417 A    
C18   C20   1.417136 A    
C27   C29   1.392540 A    
C28   C30   1.390547 A    
C40   C44   1.482408 S    
C24   H10   1.076220 S    
N1    C31   1.360761 A    
C45   O14   1.397816 S    
O2    Cu2   1.946397 S    
C37   C38   1.428411 A    
Cu1   Cu2   2.692767 S    
C14   H5    1.082998 S    
C44   O12   1.392846 S    
O2    C2    1.300639 A    
C4    C6    1.423779 S    
C46   O16   1.397586 S    
C35   C41   1.422486 A    
C31   C33   1.427140 A    
C36   C42   1.420260 A    
C32   C34   1.425911 A    
C17   C21   1.426280 A    
C28   C36   1.431640 A    
C27   C47   1.446176 S    
C18   C22   1.423853 A    
O4    C2    1.300111 A    
N1    C29   1.349036 A    
C47   N3    1.157629 T    
C11   C19   1.402550 A    
C34   C38   1.437288 A    
C38   C39   1.422999 A    
C9    C13   1.399985 A    
O7    Cu2   1.918206 S    
O5    C3    1.295096 A    
O16   H18   1.013780 S    
O5    Cu1   1.914485 S    
O6    C4    1.295417 A    
C7    C8    1.401539 S    
C21   C24   1.416765 A    
C31   H12   1.068291 S    
O7    C3    1.296784 A    
O3    Cu2   1.937857 S    
O8    C4    1.296509 A    
C28   C48   1.446650 S    
C33   C35   1.428934 A    
C12   C14   1.393462 A    
O1    Cu1   1.946396 S    
C41   C45   1.483969 S    
C39   C43   1.494638 S    
C5    C7    1.199149 T    
C37   C40   1.433815 A    
O6    Cu2   1.914484 S    
C12   C20   1.403659 A    
C21   C22   1.423056 A    
C30   H13   1.082655 S    
O3    C1    1.302483 A    
O8    Cu1   1.918208 S    
Cu1   N2    2.022903 S    
Cu2   N1    2.022903 S    
C1    C9    1.468410 S    
C15   C17   1.405664 A    
C2    C10   1.469666 S    
C19   C25   1.390433 A    
C16   C18   1.404621 A    
C20   C26   1.391441 A    
C22   C23   1.415430 A    
C11   C13   1.391406 A    
O10   H15   1.013908 S    
C10   C16   1.398381 A    
C26   H2    1.084408 S    
C23   C25   1.385788 A    
C34   C36   1.422414 A    
C24   C26   1.388087 A    
C29   H14   1.083379 S    
C43   O9    1.222839 D    
C9    C15   1.397479 A    
C42   C46   1.485647 S    
O14   H17   1.013793 S    
N2    C30   1.350561 A    
C6    C8    1.199088 T    
