data_mof_unit_44601.cif
_audit_creation_date              2012-12-11T17:07:31-0500
_audit_creation_method            fapswitch 2.2
_symmetry_space_group_name_H-M    P1
_symmetry_Int_Tables_number       1
_space_group_crystal_system       triclinic
_cell_length_a                    6.987008
_cell_length_b                    14.432869
_cell_length_c                    16.201021
_cell_angle_alpha                 90.156005
_cell_angle_beta                  90.315012
_cell_angle_gamma                 90.120912
_cell_volume                      1633.71817502

loop_
_atom_site_label
_atom_site_type_symbol
_atom_type_description
_atom_site_fract_x
_atom_site_fract_y
_atom_site_fract_z
_atom_type_partial_charge
O1    O     O_R   0.505720 0.583900 0.413310 -0.542147
O2    O     O_R   0.175940 0.594920 0.586080 -0.538750
O3    O     O_R   0.005640 0.416100 0.586690 -0.544436
C1    C     C_R   0.345045 0.616452 0.614850 0.764503
O4    O     O_R   0.176000 0.594930 0.413930 -0.541454
O5    O     O_R   0.005700 0.416110 0.413310 -0.544810
C2    C     C_R   0.344539 0.617331 0.385523 0.690953
O6    O     O_R   0.505660 0.583890 0.586690 -0.520801
O7    O     O_3   0.339200 0.441330 0.500000 -0.374521
V1    V     V_3+5 0.064350 0.510880 0.500000 1.433488
O8    O     O_R   0.675980 0.405080 0.413920 -0.544431
C3    C     C_R   0.844450 0.381603 0.386649 0.683284
O9    O     O_R   0.675920 0.405070 0.586070 -0.535488
C4    C     C_R   0.845151 0.383204 0.614321 0.714572
V2    V     V_3+5 0.564340 0.489120 0.500000 1.443392
O10   O     O_3   0.839360 0.558670 0.500000 -0.368226
C5    C     C_R   0.041845 0.428164 0.765115 -0.115418
C6    C     C_R   0.146573 0.451619 0.834563 -0.207695
C7    C     C_R   0.146838 0.393539 0.901734 -0.201600
C8    C     C_R   0.032494 0.312834 0.901879 0.455676
C9    C     C_R   0.956557 0.277955 0.825638 -0.026785
C10   C     C_R   0.953151 0.340022 0.757175 0.015688
C11   C     C_R   0.883102 0.185418 0.815938 -0.174323
C12   C     C_R   0.812832 0.156013 0.736487 0.031265
C13   C     C_R   0.789275 0.223329 0.672367 -0.011949
C14   C     C_R   0.858007 0.315019 0.683071 -0.127886
C15   C     C_R   0.771059 0.061224 0.715826 0.066006
C16   C     C_R   0.690333 0.037972 0.639576 -0.213917
C17   C     C_R   0.661798 0.104257 0.579120 0.479328
C18   C     C_R   0.710423 0.195819 0.595283 -0.227552
H1    H     H_    0.035242 0.480513 0.717940 0.163689
H2    H     H_    0.218504 0.517830 0.838292 0.131516
H3    H     H_    0.220597 0.416630 0.956910 0.118258
H4    H     H_    0.660098 0.966240 0.624744 0.142574
H5    H     H_    0.692534 0.243658 0.544694 0.134791
C19   C     C_R   0.715994 0.190595 0.233603 -0.036919
C20   C     C_R   0.878170 0.185198 0.183898 -0.135756
C21   C     C_R   0.027820 0.246561 0.202838 -0.099393
H6    H     H_    0.143920 0.254129 0.161216 0.185983
C22   C     C_R   0.018659 0.307629 0.270038 -0.190248
H7    H     H_    0.133465 0.357147 0.278633 0.129788
C23   C     C_R   0.856678 0.310431 0.320992 -0.068962
C24   C     C_R   0.708369 0.247134 0.304022 -0.015453
C25   C     C_3   0.500865 0.267501 0.292212 -0.422083
C26   C     C_3   0.513729 0.215856 0.210002 0.817670
H8    H     H_    0.473350 0.343052 0.285868 0.163913
H9    H     H_    0.410872 0.234297 0.340017 0.157686
C27   C     C_R   0.420116 0.660103 0.761428 -0.079402
C28   C     C_R   0.354059 0.685001 0.682818 -0.178967
C29   C     C_R   0.288277 0.776880 0.672192 0.417419
C30   C     C_R   0.303031 0.841669 0.738387 -0.226469
H10   H     H_    0.259761 0.912644 0.728458 0.158015
C31   C     C_R   0.379406 0.816168 0.815871 -0.097658
C32   C     C_R   0.431342 0.723430 0.826252 0.000162
C33   C     C_3   0.607802 0.680430 0.862084 -0.462947
C34   C     C_3   0.595489 0.610054 0.790780 0.358696
H11   H     H_    0.578523 0.648470 0.923073 0.131503
H12   H     H_    0.732140 0.728308 0.862582 0.195559
H13   H     H_    0.559456 0.539389 0.812973 0.071670
C35   C     C_R   0.507207 0.749386 0.311210 0.103003
C36   C     C_R   0.352103 0.688302 0.319169 -0.104947
C37   C     C_R   0.200207 0.698400 0.262279 -0.173987
H14   H     H_    0.076877 0.653373 0.265934 0.128226
C38   C     C_R   0.212303 0.761837 0.196263 -0.179105
H15   H     H_    0.096776 0.764466 0.151662 0.127921
C39   C     C_R   0.377232 0.816743 0.184687 -0.116213
C40   C     C_R   0.519445 0.811805 0.245817 0.084063
C41   C     C_3   0.729484 0.797570 0.237634 -0.417567
C42   C     C_3   0.716286 0.729849 0.309154 -0.390666
H16   H     H_    0.812407 0.861227 0.252924 0.164608
H17   H     H_    0.766632 0.763861 0.178115 0.172644
H18   H     H_    0.791099 0.754560 0.365838 0.175414
H19   H     H_    0.746559 0.656952 0.291267 0.167246
O11   O     O_R   0.229140 0.916090 0.913340 -0.529896
O12   O     O_R   0.558860 0.905090 0.086080 -0.542991
O13   O     O_R   0.729100 0.083920 0.086690 -0.546520
C43   C     C_R   0.390011 0.882532 0.114366 0.686075
O14   O     O_R   0.558860 0.905090 0.913930 -0.526026
O15   O     O_R   0.729100 0.083920 0.913310 -0.536326
C44   C     C_R   0.390103 0.883565 0.884958 0.755382
O16   O     O_R   0.229140 0.916080 0.086720 -0.540916
O17   O     O_3   0.395570 0.058660 0.000020 -0.379454
V3    V     V_3+5 0.670450 0.989140 0.000000 1.446763
O18   O     O_R   0.058810 0.094980 0.913910 -0.526436
C45   C     C_R   0.890059 0.118887 0.886590 0.838426
O19   O     O_R   0.058810 0.094980 0.086060 -0.519319
C46   C     C_R   0.889777 0.117965 0.114184 0.738505
V4    V     V_3+5 0.170450 0.010950 0.999970 1.479121
O20   O     O_3   0.895460 0.941370 0.999990 -0.367914
O21   O     O_3   0.590598 0.079127 0.502531 -0.561133
C47   C     C_3   0.744579 0.048034 0.453778 -0.287097
H20   H     H_    0.818094 0.987521 0.482210 0.149650
H21   H     H_    0.848752 0.105002 0.442373 0.150361
H22   H     H_    0.688242 0.024813 0.393097 0.152695
O22   O     O_3   0.504304 0.284631 0.146850 -0.598816
C48   C     C_3   0.457912 0.251280 0.067260 -0.200239
H23   H     H_    0.330628 0.206346 0.065657 0.208626
H24   H     H_    0.580496 0.217323 0.037605 0.165653
H25   H     H_    0.423601 0.311780 0.028114 0.126378
O23   O     O_3   0.379872 0.141368 0.200145 -0.564399
C49   C     C_3   0.414617 0.064214 0.251661 -0.277332
H26   H     H_    0.419767 0.083392 0.317864 0.146814
H27   H     H_    0.547445 0.027594 0.233308 0.129608
H28   H     H_    0.293940 0.014867 0.244156 0.158174
O24   O     O_3   0.203797 0.801855 0.598066 -0.561328
C50   C     C_3   0.326530 0.862609 0.555510 -0.237072
H29   H     H_    0.474822 0.834736 0.551156 0.122010
H30   H     H_    0.326804 0.932403 0.584582 0.166341
H31   H     H_    0.271757 0.870688 0.491533 0.163894
O25   O     O_3   0.748220 0.606222 0.732802 -0.556805
C51   C     C_3   0.826951 0.693049 0.711224 -0.142922
H32   H     H_    0.719740 0.749317 0.706515 0.148832
H33   H     H_    0.892263 0.686643 0.649400 0.188354
H34   H     H_    0.942224 0.712111 0.755514 0.146777
O26   O     O_3   0.979464 0.274165 0.976611 -0.580977
C52   C     C_3   0.904094 0.344649 0.028241 -0.341019
H35   H     H_    0.806659 0.392782 0.994511 0.151596
H36   H     H_    0.020485 0.383432 0.060077 0.151476
H37   H     H_    0.818526 0.313449 0.077055 0.201108
I1    I     I_    0.861149 0.939692 0.777957 -0.468930

loop_
_geom_bond_atom_site_label_1
_geom_bond_atom_site_label_2
_ccdc_geom_bond_type
C21   C22   A    
C33   C34   S    
C49   H26   S    
C7    C8    A    
C12   C15   A    
C1    O6    A    
C15   I1    S    
C27   C32   A    
C16   C17   A    
C17   C18   A    
C18   H5    S    
C19   C20   A    
C20   C21   A    
O5    C3    A    
C21   H6    S    
O19   V4    S    
C50   H29   S    
V2    O10   S    
C48   H25   S    
C52   H35   S    
C6    C7    A    
O25   C51   S    
C2    C36   S    
C37   C38   A    
O8    V2    S    
O14   V3    S    
O22   C48   S    
C35   C40   A    
C41   C42   S    
C48   H24   S    
C29   O24   S    
C3    C23   S    
C11   C12   A    
C42   H19   S    
O1    V2    S    
O7    V1    S    
C25   H9    S    
V4    O20   S    
C22   C23   A    
C39   C40   A    
C16   H4    S    
C49   H27   S    
O11   C44   A    
O9    C4    A    
O13   V3    S    
C34   O25   S    
C17   O21   S    
C25   H8    S    
C5    C6    A    
C9    C11   A    
V3    O20   S    
C30   H10   S    
C31   C44   S    
C12   C13   A    
C7    H3    S    
C47   H20   S    
O4    C2    A    
O19   C46   A    
C13   C14   A    
C31   C32   A    
C4    C14   S    
C40   C41   S    
C35   C36   A    
C30   C31   A    
C38   C39   A    
C42   H18   S    
O2    C1    A    
C24   C25   S    
C37   H14   S    
C47   H21   S    
C43   O16   A    
C48   H23   S    
C29   C30   A    
C19   C26   S    
C51   H33   S    
O18   C45   A    
O12   C43   A    
O13   C46   A    
O3    C4    A    
C27   C28   A    
O17   V3    S    
C49   H28   S    
C33   H11   S    
C10   C14   A    
C5    H1    S    
C6    H2    S    
C23   C24   A    
O2    V1    S    
O15   C45   A    
C25   C26   S    
C13   C18   A    
C27   C34   S    
C39   C43   S    
C32   C33   S    
C22   H7    S    
C51   H32   S    
O1    C2    A    
C20   C46   S    
O18   V4    S    
C26   O23   S    
O5    V1    S    
C8    O26   S    
O8    C3    A    
C34   H13   S    
O6    V2    S    
O24   C50   S    
C5    C10   A    
C52   H37   S    
C1    C28   S    
C38   H15   S    
O9    V2    S    
O7    V2    S    
O4    V1    S    
O3    V1    S    
V1    O10   S    
C47   H22   S    
O15   V3    S    
O12   V3    S    
O21   C47   S    
C50   H30   S    
C35   C42   S    
C41   H17   S    
O17   V4    S    
O23   C49   S    
C52   H36   S    
C51   H34   S    
O14   C44   A    
C36   C37   A    
O16   V4    S    
C8    C9    A    
C41   H16   S    
C28   C29   A    
C11   C45   S    
C33   H12   S    
C15   C16   A    
C19   C24   A    
O11   V4    S    
C9    C10   A    
O26   C52   S    
C50   H31   S    
C26   O22   S    
