data_mof_unit_7287.cif
_audit_creation_date              2012-12-11T14:38:25-0500
_audit_creation_method            fapswitch 2.2
_symmetry_space_group_name_H-M    P1
_symmetry_Int_Tables_number       1
_space_group_crystal_system       triclinic
_cell_length_a                    19.526202
_cell_length_b                    11.137553
_cell_length_c                    19.60446
_cell_angle_alpha                 90.01501
_cell_angle_beta                  96.856738
_cell_angle_gamma                 89.943932
_cell_volume                      4232.96714754

loop_
_atom_site_label
_atom_site_type_symbol
_atom_type_description
_atom_site_fract_x
_atom_site_fract_y
_atom_site_fract_z
_atom_type_partial_charge
C1    C     C_R   0.725331 0.951662 0.359616 0.542359
C2    C     C_3   0.183889 0.468224 0.472318 -0.220371
C3    C     C_3   0.316095 0.967998 0.527695 -0.220840
C4    C     C_3   0.683889 0.968224 0.472318 -0.220580
C5    C     C_3   0.765419 0.275975 0.562038 -0.255045
C6    C     C_3   0.234598 0.276029 0.437960 -0.254996
C7    C     C_3   0.265418 0.775975 0.562038 -0.255124
C8    C     C_3   0.734598 0.776029 0.437960 -0.254980
C9    C     C_3   0.759390 0.412771 0.569345 0.067573
C10   C     C_3   0.240612 0.412813 0.430665 0.067199
C11   C     C_3   0.259390 0.912771 0.569345 0.067508
C12   C     C_R   0.274664 0.951612 0.640390 0.539995
C13   C     C_3   0.740611 0.912814 0.430665 0.066551
C14   C     C_3   0.737701 0.356856 0.439949 0.052064
C15   C     C_3   0.262277 0.356887 0.560061 0.054129
C16   C     C_3   0.237702 0.856857 0.439949 0.052707
C17   C     C_3   0.762276 0.856887 0.560061 0.054132
C18   C     C_3   0.791281 0.459695 0.450528 -0.233705
C19   C     C_3   0.208673 0.459847 0.549490 -0.234864
C20   C     C_3   0.291282 0.959695 0.450529 -0.233762
C21   C     C_3   0.708673 0.959847 0.549490 -0.234770
C22   C     C_3   0.767772 0.250124 0.485154 -0.247038
C23   C     C_R   0.225331 0.451662 0.359616 0.540317
C24   C     C_3   0.232239 0.250217 0.514839 -0.246792
C25   C     C_3   0.267771 0.750124 0.485154 -0.246896
C26   C     C_3   0.732238 0.750217 0.514839 -0.246845
C27   C     C_3   0.529475 0.298006 0.954132 -0.234798
C28   C     C_3   0.546208 0.303060 0.031202 -0.236165
C29   C     C_3   0.019272 0.803344 0.956449 -0.234979
C30   C     C_3   0.035147 0.806691 0.033283 -0.231334
C31   C     C_3   0.436997 0.138112 0.974248 -0.033058
C32   C     C_3   0.582760 0.083772 0.024007 -0.036082
C33   C     C_3   0.937028 0.626212 0.974103 -0.032268
C34   C     C_R   0.774664 0.451612 0.640390 0.539856
C35   C     C_3   0.086537 0.597429 0.023064 -0.045413
C36   C     C_3   0.553755 0.077198 0.946499 -0.221086
C37   C     C_3   0.462858 0.138956 0.051348 -0.191567
C38   C     C_3   0.057052 0.588790 0.945725 -0.249354
C39   C     C_3   0.963902 0.623954 0.051158 -0.202473
C40   C     C_R   0.536028 0.180328 0.338463 0.539973
C41   C     C_R   0.463993 0.180256 0.661548 0.529290
C42   C     C_R   0.036028 0.680328 0.338463 0.538455
C43   C     C_R   0.963993 0.680255 0.661548 0.529679
C44   C     C_3   0.497028 0.173603 0.931404 0.045839
C45   C     C_3   0.669364 0.399515 0.465157 -0.239657
C46   C     C_3   0.539712 0.176177 0.062533 0.032866
C47   C     C_3   0.994866 0.674676 0.931959 0.054001
C48   C     C_3   0.037805 0.676747 0.062736 0.062959
C49   C     C_1   0.760176 0.420503 0.902183 -0.003610
C50   C     C_1   0.241149 0.417080 0.098322 0.007077
C51   C     C_1   0.261668 0.924559 0.903311 -0.007149
C52   C     C_1   0.741061 0.918161 0.098151 0.014496
C53   C     C_1   0.741839 0.382727 0.029771 -0.051285
C54   C     C_1   0.254673 0.395754 0.967765 -0.044306
C55   C     C_1   0.244497 0.891017 0.031472 -0.051282
C56   C     C_3   0.330609 0.399368 0.534866 -0.239112
C57   C     C_1   0.753973 0.899646 0.967240 -0.016997
C58   C     C_1   0.750300 0.402063 0.960531 -0.041216
C59   C     C_1   0.250143 0.401901 0.039136 -0.035743
C60   C     C_1   0.252680 0.908922 0.962114 -0.049881
C61   C     C_1   0.749469 0.905570 0.038589 0.004447
C62   C     C_1   0.734620 0.359822 0.088333 -0.017272
C63   C     C_1   0.257707 0.387114 0.906846 -0.015392
C64   C     C_1   0.236484 0.866360 0.089565 0.010260
C65   C     C_1   0.757387 0.889234 0.906478 -0.013759
C66   C     C_R   0.726529 0.317313 0.367903 0.556004
C67   C     C_3   0.169365 0.899517 0.465157 -0.239509
C68   C     C_R   0.273461 0.317363 0.632109 0.553172
C69   C     C_R   0.226530 0.817315 0.367903 0.554267
C70   C     C_R   0.773460 0.817363 0.632109 0.553199
C71   C     C_R   0.723364 0.951006 0.164662 0.532053
C72   C     C_R   0.277804 0.953909 0.836394 0.540948
C73   C     C_R   0.223056 0.451692 0.164341 0.551524
C74   C     C_R   0.777546 0.453226 0.836108 0.540691
C75   C     C_R   0.561823 0.182446 0.137180 0.530093
C76   C     C_R   0.469470 0.179192 0.858347 0.534851
C77   C     C_R   0.061010 0.682459 0.137003 0.571529
C78   C     C_3   0.830609 0.899369 0.534866 -0.239103
C79   C     C_R   0.968181 0.679499 0.858905 0.539180
C80   C     C_R   0.725163 0.320385 0.155805 0.532393
C81   C     C_R   0.263935 0.358251 0.836525 0.543697
C82   C     C_R   0.225866 0.822907 0.155819 0.574490
C83   C     C_R   0.763949 0.858379 0.836487 0.543177
C84   C     C_1   0.485542 0.172501 0.594476 -0.029650
C85   C     C_1   0.514499 0.172650 0.405542 -0.030464
C86   C     C_1   0.985542 0.672501 0.594476 -0.029784
C87   C     C_1   0.014499 0.672650 0.405542 -0.029720
C88   C     C_1   0.504275 0.169250 0.464840 -0.071166
C89   C     C_3   0.816095 0.467997 0.527694 -0.220875
C90   C     C_1   0.495777 0.169176 0.535178 -0.070959
C91   C     C_1   0.004275 0.669250 0.464840 -0.071095
C92   C     C_1   0.995777 0.669176 0.535178 -0.071050
C93   C     C_3   0.684030 0.445029 0.539335 -0.238160
C94   C     C_3   0.315964 0.444837 0.460682 -0.238502
C95   C     C_3   0.184030 0.945030 0.539335 -0.238224
C96   C     C_3   0.815964 0.944837 0.460682 -0.238586
Cr1   Cr    Cr6+3 0.765780 0.160710 0.267420 1.007809
Cr2   Cr    Cr6+3 0.383970 0.323720 0.751490 1.005931
Cr3   Cr    Cr6+3 0.116030 0.823720 0.248510 1.014286
Cr4   Cr    Cr6+3 0.883970 0.823720 0.751490 1.006295
Cr5   Cr    Cr6+3 0.234220 0.160710 0.732580 1.010397
Cr6   Cr    Cr6+3 0.265780 0.660710 0.267420 1.015731
Cr7   Cr    Cr6+3 0.734220 0.660710 0.732580 1.010393
Cr8   Cr    Cr6+3 0.612200 0.009560 0.248850 1.010166
Cr9   Cr    Cr6+3 0.387800 0.009560 0.751150 1.008034
Cr10  Cr    Cr6+3 0.112200 0.509560 0.248850 1.015645
Cr11  Cr    Cr6+3 0.887800 0.509560 0.751150 1.008169
Cr12  Cr    Cr6+3 0.616030 0.323720 0.248510 1.010943
H1    H     H_    0.673979 0.541924 0.541156 0.125289
H2    H     H_    0.136092 0.413118 0.462330 0.138223
H3    H     H_    0.363898 0.912741 0.537652 0.138134
H4    H     H_    0.636091 0.913118 0.462330 0.138246
H5    H     H_    0.836727 0.444210 0.422415 0.148231
H6    H     H_    0.163222 0.444454 0.577585 0.145842
H7    H     H_    0.336728 0.944210 0.422415 0.147988
H8    H     H_    0.663222 0.944453 0.577584 0.145887
H9    H     H_    0.495002 0.375472 0.938981 0.150080
H10   H     H_    0.598463 0.341012 0.044851 0.125578
H11   H     H_    0.980032 0.874340 0.942135 0.149350
H12   H     H_    0.326038 0.541683 0.458843 0.125190
H13   H     H_    0.084210 0.856062 0.047901 0.138101
H14   H     H_    0.577215 0.312617 0.929337 0.121419
H15   H     H_    0.509415 0.366598 0.051530 0.151846
H16   H     H_    0.065813 0.829163 0.932115 0.123800
H17   H     H_    0.993754 0.859348 0.054242 0.144233
H18   H     H_    0.431452 0.201344 0.079454 0.171395
H19   H     H_    0.594968 0.090940 0.912623 0.138627
H20   H     H_    0.929031 0.675511 0.081450 0.165248
H21   H     H_    0.096664 0.611641 0.911421 0.120003
H22   H     H_    0.532249 0.986077 0.934470 0.112250
H23   H     H_    0.173979 0.041925 0.541156 0.125278
H24   H     H_    0.456319 0.047660 0.072785 0.119219
H25   H     H_    0.040852 0.494733 0.933305 0.113928
H26   H     H_    0.964106 0.529550 0.069862 0.118804
H27   H     H_    0.578234 0.993169 0.046984 0.172093
H28   H     H_    0.420448 0.044478 0.960373 0.156127
H29   H     H_    0.089324 0.505390 0.045413 0.163832
H30   H     H_    0.924605 0.531899 0.957991 0.161592
H31   H     H_    0.646760 0.402845 0.570853 0.121181
H32   H     H_    0.353236 0.402465 0.429178 0.122295
H33   H     H_    0.146759 0.902845 0.570852 0.121192
H34   H     H_    0.826038 0.041683 0.458842 0.125246
H35   H     H_    0.853236 0.902464 0.429178 0.122461
H36   H     H_    0.632182 0.323615 0.462762 0.124345
H37   H     H_    0.367820 0.323386 0.537283 0.125275
H38   H     H_    0.132182 0.823619 0.462760 0.124342
H39   H     H_    0.867820 0.823387 0.537283 0.125256
H40   H     H_    0.645227 0.473227 0.432281 0.139147
H41   H     H_    0.354709 0.473061 0.567741 0.138855
H42   H     H_    0.145229 0.973231 0.432281 0.139070
H43   H     H_    0.854709 0.973062 0.567741 0.138869
H44   H     H_    0.337531 0.056226 0.544534 0.100739
H45   H     H_    0.822450 0.235612 0.476450 0.130007
H46   H     H_    0.662455 0.056523 0.455504 0.099829
H47   H     H_    0.837530 0.556225 0.544533 0.100728
H48   H     H_    0.162455 0.556523 0.455504 0.099760
H49   H     H_    0.266572 0.043464 0.430974 0.122961
H50   H     H_    0.733350 0.043551 0.569082 0.121822
H51   H     H_    0.766570 0.543464 0.430974 0.123177
H52   H     H_    0.233351 0.543551 0.569082 0.121775
H53   H     H_    0.812667 0.239005 0.592167 0.136222
H54   H     H_    0.187355 0.239180 0.407828 0.137243
H55   H     H_    0.312667 0.739004 0.592167 0.136188
H56   H     H_    0.177561 0.235848 0.523532 0.130075
H57   H     H_    0.687355 0.739180 0.407828 0.137490
H58   H     H_    0.719923 0.232914 0.580800 0.112058
H59   H     H_    0.280095 0.232799 0.419197 0.113748
H60   H     H_    0.219923 0.732915 0.580800 0.112017
H61   H     H_    0.780095 0.732799 0.419197 0.114014
H62   H     H_    0.740990 0.169205 0.470146 0.110580
H63   H     H_    0.259038 0.169236 0.529842 0.110672
H64   H     H_    0.240990 0.669206 0.470145 0.110553
H65   H     H_    0.759038 0.669236 0.529842 0.110661
H66   H     H_    0.390525 0.304820 0.961669 0.247801
H67   H     H_    0.322450 0.735612 0.476450 0.129955
H68   H     H_    0.350756 0.194016 0.912299 0.254394
H69   H     H_    0.663722 0.189526 0.999905 0.238695
H70   H     H_    0.673476 0.135280 0.080919 0.216415
H71   H     H_    0.882779 0.786202 0.970379 0.239557
H72   H     H_    0.849704 0.681728 0.912669 0.253320
H73   H     H_    0.154947 0.726345 0.001338 0.231770
H74   H     H_    0.186836 0.591676 0.003583 0.236100
H75   H     H_    0.677561 0.735848 0.523532 0.130092
H76   H     H_    0.863897 0.412741 0.537651 0.138145
N1    N     N_3   0.375982 0.214624 0.960898 -0.632840
N2    N     N_3   0.655997 0.114758 0.030030 -0.648514
N3    N     N_3   0.872625 0.694869 0.963036 -0.636544
N4    N     N_3   0.156238 0.647382 0.029755 -0.661881
O1    O     O_R   0.783100 0.287550 0.345460 -0.519987
O2    O     O_R   0.454350 0.284910 0.836260 -0.524645
O3    O     O_R   0.045650 0.784910 0.163740 -0.531258
O4    O     O_R   0.954350 0.784910 0.836260 -0.525601
O5    O     O_R   0.677950 0.374280 0.185410 -0.494930
O6    O     O_R   0.322050 0.374280 0.814590 -0.496165
O7    O     O_R   0.177950 0.874280 0.185410 -0.501198
O8    O     O_R   0.822050 0.874280 0.814590 -0.496341
O9    O     O_3   0.664670 0.164660 0.254930 -0.304205
O10   O     O_3   0.335330 0.164660 0.745070 -0.273382
O11   O     O_3   0.164670 0.664660 0.254930 -0.299077
O12   O     O_R   0.216900 0.287550 0.654540 -0.527080
O13   O     O_3   0.835330 0.664660 0.745070 -0.274050
O14   O     O_R   0.760020 0.037400 0.337700 -0.522060
O15   O     O_R   0.239980 0.037400 0.662300 -0.523601
O16   O     O_R   0.260020 0.537400 0.337700 -0.524365
O17   O     O_R   0.739980 0.537400 0.662300 -0.523667
O18   O     O_R   0.666600 0.921990 0.332020 -0.521591
O19   O     O_R   0.333400 0.921990 0.667980 -0.523336
O20   O     O_R   0.166600 0.421990 0.332020 -0.523104
O21   O     O_R   0.833400 0.421990 0.667980 -0.523396
O22   O     O_R   0.557260 0.082670 0.312540 -0.490326
O23   O     O_R   0.283100 0.787550 0.345460 -0.522096
O24   O     O_R   0.442740 0.082670 0.687460 -0.497063
O25   O     O_R   0.057260 0.582670 0.312540 -0.492116
O26   O     O_R   0.942740 0.582670 0.687460 -0.496821
O27   O     O_R   0.548410 0.285740 0.316480 -0.514470
O28   O     O_R   0.451590 0.285740 0.683520 -0.518878
O29   O     O_R   0.048410 0.785740 0.316480 -0.515836
O30   O     O_R   0.951590 0.785740 0.683520 -0.518695
O31   O     O_R   0.680500 0.375040 0.327000 -0.495808
O32   O     O_R   0.319500 0.375040 0.673000 -0.502146
O33   O     O_R   0.180500 0.875040 0.327000 -0.498182
O34   O     O_R   0.716900 0.787550 0.654540 -0.526945
O35   O     O_R   0.819500 0.875040 0.673000 -0.502091
O36   O     O_R   0.780350 0.286720 0.192720 -0.489717
O37   O     O_R   0.219650 0.286720 0.807280 -0.503096
O38   O     O_R   0.280350 0.786720 0.192720 -0.496253
O39   O     O_R   0.719650 0.786720 0.807280 -0.502701
O40   O     O_R   0.757470 0.036630 0.196110 -0.511542
O41   O     O_R   0.242530 0.036630 0.803890 -0.497372
O42   O     O_R   0.257470 0.536630 0.196110 -0.499830
O43   O     O_R   0.742530 0.536630 0.803890 -0.497795
O44   O     O_R   0.663840 0.921160 0.179280 -0.512040
O45   O     O_R   0.554710 0.081900 0.170950 -0.502923
O46   O     O_R   0.336160 0.921160 0.820720 -0.511738
O47   O     O_R   0.163840 0.421160 0.179280 -0.514151
O48   O     O_R   0.836160 0.421160 0.820720 -0.511739
O49   O     O_R   0.445290 0.081900 0.829050 -0.508474
O50   O     O_R   0.054710 0.581900 0.170950 -0.506076
O51   O     O_R   0.945290 0.581900 0.829050 -0.508613
O52   O     O_R   0.545650 0.284910 0.163740 -0.523687

loop_
_geom_bond_atom_site_label_1
_geom_bond_atom_site_label_2
_ccdc_geom_bond_type
C40   C85   S    
C4    H46   S    
Cr11  O48   S    
Cr3   O33   S    
C21   H50   S    
C8    C13   S    
C53   C58   S    
C87   C91   T    
C23   O20   A    
C45   H40   S    
C94   H32   S    
C71   O40   A    
C14   C18   S    
H70   N2    S    
C3    C11   S    
C47   C79   S    
Cr1   O14   S    
Cr2   O2    S    
C42   O29   A    
C45   C93   S    
Cr5   O12   S    
H68   N1    S    
Cr4   O4    S    
C56   C94   S    
C80   O5    A    
C82   O38   A    
Cr4   O13   S    
C28   C46   S    
C3    H44   S    
C33   C39   S    
Cr9   O24   S    
C81   O37   A    
C63   C81   S    
C17   C26   S    
C32   C36   S    
Cr3   O7    S    
C30   C48   S    
H72   N3    S    
Cr11  O13   S    
Cr2   O32   S    
C52   C61   T    
Cr7   O34   S    
Cr10  O20   S    
Cr6   O23   S    
Cr8   O44   S    
H71   N3    S    
C54   C63   T    
C10   C94   S    
Cr7   O39   S    
C66   O1    A    
C40   O22   A    
C36   H22   S    
Cr6   O38   S    
C8    C26   S    
Cr2   O6    S    
Cr5   O37   S    
Cr8   O9    S    
C38   H25   S    
C56   H37   S    
C44   C76   S    
C24   H63   S    
Cr6   O16   S    
C79   O51   A    
C46   C75   S    
Cr12  O9    S    
C18   H51   S    
C81   O6    A    
Cr12  O31   S    
C94   H12   S    
C27   C44   S    
C27   H14   S    
C2    H2    S    
C5    C22   S    
Cr3   O29   S    
C78   C96   S    
C35   N4    S    
C77   O50   A    
C45   H36   S    
C71   O44   A    
C69   O23   A    
Cr8   O18   S    
C26   H75   S    
Cr12  O27   S    
Cr1   O1    S    
C4    H4    S    
C30   H17   S    
Cr4   O30   S    
C17   C70   S    
C55   C60   S    
C67   H42   S    
C67   C95   S    
C41   O24   A    
C75   O52   A    
C24   H56   S    
C84   C90   T    
C21   H8    S    
C1    O14   A    
C18   H5    S    
C73   O42   A    
H73   N4    S    
C78   H43   S    
Cr9   O19   S    
C14   C45   S    
C54   C59   S    
Cr4   O8    S    
C34   O17   A    
Cr7   O43   S    
C28   H15   S    
Cr10  O47   S    
Cr2   O10   S    
C13   C96   S    
C77   O3    A    
C38   H21   S    
C6    H54   S    
C35   C38   S    
C76   O2    A    
C72   O41   A    
C50   C73   S    
C9    C89   S    
C91   C92   S    
C41   O28   A    
Cr5   O10   S    
C74   O43   A    
C83   O39   A    
C18   C89   S    
C19   H6    S    
C2    C19   S    
C41   C84   S    
C7    H55   S    
C95   H23   S    
C17   C21   S    
H69   N2    S    
C31   C37   S    
C76   O49   A    
C7    H60   S    
C5    H53   S    
C48   C77   S    
C15   C19   S    
Cr7   O13   S    
C5    C9    S    
C29   C30   S    
C93   H31   S    
C34   O21   A    
Cr1   O9    S    
C80   O36   A    
C29   H11   S    
C89   H76   S    
C25   H67   S    
C7    C11   S    
C30   H13   S    
C33   H30   S    
C16   C20   S    
C6    C24   S    
C55   C64   T    
C31   N1    S    
C67   H38   S    
C70   O35   A    
C14   C66   S    
C3    C20   S    
C33   N3    S    
C16   C67   S    
H74   N4    S    
C5    H58   S    
C57   C61   S    
C1    O18   A    
C64   C82   S    
C38   C47   S    
C22   H62   S    
C78   H39   S    
C25   H64   S    
Cr9   O10   S    
C29   C47   S    
C95   H33   S    
C79   O4    A    
C12   O15   A    
C7    C25   S    
Cr5   O15   S    
Cr8   O22   S    
C33   C47   S    
C3    H3    S    
C36   C44   S    
C43   O30   A    
C1    C13   S    
C51   C72   S    
C50   C59   T    
C74   O48   A    
C2    C10   S    
C9    C93   S    
C8    H61   S    
C85   C88   T    
Cr6   O42   S    
C37   H18   S    
C27   H9    S    
C62   C80   S    
C16   C25   S    
C56   H41   S    
Cr10  O25   S    
Cr2   O28   S    
C6    H59   S    
C15   C24   S    
C2    H48   S    
C39   H20   S    
C68   O32   A    
C12   O19   A    
C83   O8    A    
C43   C86   S    
C32   C46   S    
C16   C69   S    
Cr7   O17   S    
C88   C90   S    
C31   H28   S    
C89   H47   S    
C6    C10   S    
C20   H7    S    
Cr5   O41   S    
C11   C12   S    
Cr1   O36   S    
Cr9   O46   S    
Cr8   O45   S    
Cr11  O21   S    
C36   H19   S    
Cr12  O52   S    
C10   C23   S    
C82   O7    A    
Cr4   O35   S    
C37   H24   S    
C32   N2    S    
C23   O16   A    
C68   O12   A    
C19   H52   S    
C14   C22   S    
C51   C60   T    
C37   C46   S    
H66   N1    S    
C42   O25   A    
C28   H10   S    
Cr6   O11   S    
C15   C56   S    
C96   H35   S    
Cr3   O3    S    
C4    C21   S    
C9    C34   S    
Cr11  O26   S    
Cr11  O51   S    
C20   H49   S    
C15   C68   S    
C40   O27   A    
C17   C78   S    
C70   O34   A    
C66   O31   A    
C72   O46   A    
C31   C44   S    
C75   O45   A    
C69   O33   A    
C73   O47   A    
C32   H27   S    
C35   C48   S    
C8    H57   S    
C49   C58   T    
C96   H34   S    
C29   H16   S    
Cr1   O40   S    
C11   C95   S    
C53   C62   T    
Cr10  O50   S    
Cr3   O11   S    
C27   C28   S    
C52   C71   S    
Cr9   O49   S    
C49   C74   S    
Cr10  O11   S    
C86   C92   T    
C42   C87   S    
Cr12  O5    S    
C26   H65   S    
C43   O26   A    
C39   H26   S    
C65   C83   S    
C35   H29   S    
C4    C13   S    
C93   H1    S    
C39   C48   S    
C57   C65   T    
C22   H45   S    
