data_mof_unit_68490.cif
_audit_creation_date              2013-03-05T15:53:45-0500
_audit_creation_method            fapswitch 2.2
_symmetry_space_group_name_H-M    P1
_symmetry_Int_Tables_number       1
_space_group_crystal_system       triclinic
_cell_length_a                    11.214601
_cell_length_b                    10.825911
_cell_length_c                    10.30262
_cell_angle_alpha                 86.325609
_cell_angle_beta                  90.103443
_cell_angle_gamma                 92.981938
_cell_volume                      1246.56043503

loop_
_atom_site_label
_atom_site_type_symbol
_atom_site_description
_atom_site_fract_x
_atom_site_fract_y
_atom_site_fract_z
_atom_type_partial_charge
O1    O     O_R   0.500000 0.316780 0.614690 -0.575594
O2    O     O_R   0.499990 0.316750 0.385360 -0.564573
C1    C     C_R   0.514471 0.261240 0.503175 1.017914
O3    O     O_R   0.314800 0.499990 0.614670 -0.597908
O4    O     O_R   0.314790 0.499970 0.385330 -0.586859
C2    C     C_R   0.260479 0.514373 0.498641 0.988352
Zn1   Zn    Zn3+2 0.500010 0.500020 0.653130 1.107210
Zn2   Zn    Zn3+2 0.499990 0.499980 0.346870 1.149539
O5    O     O_R   0.500010 0.683250 0.614640 -0.602585
O6    O     O_R   0.500000 0.683220 0.385310 -0.565399
O7    O     O_R   0.685210 0.500030 0.614670 -0.580141
O8    O     O_R   0.685200 0.500010 0.385330 -0.561645
C3    C     C_R   0.488435 0.739023 0.496200 0.896925
C4    C     C_R   0.741876 0.509380 0.499034 0.986390
C5    C     C_3   0.070978 0.454902 0.626334 0.266602
C6    C     C_3   0.933298 0.467425 0.629341 -0.029449
H1    H     H_    0.917911 0.540702 0.695062 0.225320
H2    H     H_    0.101062 0.690330 0.590255 0.201027
C7    C     C_3   0.079282 0.660295 0.493669 0.035204
C8    C     C_3   0.069902 0.467621 0.371157 -0.009115
C9    C     C_3   0.123652 0.524473 0.496847 -0.336121
H3    H     H_    0.112588 0.380986 0.357810 0.230828
C10   C     C_3   0.880348 0.519776 0.495047 -0.450706
C11   C     C_3   0.936409 0.662467 0.482363 0.307296
C12   C     C_3   0.929624 0.440761 0.380302 0.339016
C13   C     C_R   0.570360 0.053381 0.739213 0.299962
C14   C     C_R   0.550106 0.958028 0.837571 0.295519
C15   C     C_R   0.450030 0.875213 0.826365 0.199234
C16   C     C_R   0.391308 0.874948 0.708447 0.274140
C17   C     C_R   0.448065 0.935217 0.600456 -0.084222
C18   C     C_R   0.513075 0.046112 0.617798 -0.067031
C19   C     C_R   0.538474 0.126494 0.506561 -0.170191
C20   C     C_R   0.550779 0.070129 0.387176 0.260552
C21   C     C_R   0.509237 0.947205 0.378634 0.299050
C22   C     C_R   0.470919 0.874485 0.488371 -0.174116
C23   C     C_R   0.311589 0.366396 0.141870 0.204845
C24   C     C_R   0.209500 0.338163 0.067645 0.116429
C25   C     C_R   0.234429 0.288602 0.952469 0.277143
C26   C     C_R   0.338333 0.332484 0.883770 0.271018
C27   C     C_R   0.413199 0.429101 0.934172 -0.055613
C28   C     C_R   0.409813 0.433774 0.075837 0.003250
N1    N     N_R   0.498810 0.498800 0.142780 -0.143367
C29   C     C_R   0.581440 0.565046 0.065881 0.335508
C30   C     C_R   0.585662 0.561363 0.925998 0.307789
N2    N     N_R   0.498760 0.498720 0.857170 -0.162165
Br1   Br    Br    0.128712 0.531396 0.788000 -0.345745
N3    N     N_R   0.872711 0.468164 0.251369 0.255221
O9    O     O_R   0.887600 0.574014 0.186644 -0.229411
O10   O     O_R   0.807766 0.383172 0.196057 -0.204979
Br2   Br    Br    0.180212 0.790825 0.399931 -0.211507
N4    N     N_R   0.890740 0.732657 0.367230 0.290027
O11   O     O_R   0.783734 0.772922 0.373745 -0.311622
O12   O     O_R   0.959752 0.781262 0.274295 -0.149443
N5    N     N_R   0.632749 0.121707 0.288370 0.273722
O13   O     O_R   0.729764 0.064696 0.268482 -0.186656
O14   O     O_R   0.604329 0.210601 0.205163 -0.241592
Br3   Br    Br    0.664645 0.192284 0.784074 -0.171262
Br4   Br    Br    0.655403 0.953575 0.983488 -0.084330
Br5   Br    Br    0.384514 0.763256 0.961184 -0.296900
Br6   Br    Br    0.221247 0.866131 0.712522 -0.197347
Br7   Br    Br    0.455034 0.901038 0.215804 -0.171854
Br8   Br    Br    0.671783 0.688894 0.144904 -0.139545
N6    N     N_R   0.103875 0.324402 0.639993 0.269626
O15   O     O_R   0.076144 0.258763 0.745796 -0.227676
O16   O     O_R   0.175434 0.277317 0.560080 -0.281151
N7    N     N_R   0.336695 0.266750 0.232885 0.242747
O17   O     O_R   0.280849 0.254798 0.343300 -0.305520
O18   O     O_R   0.374439 0.166942 0.186972 -0.286228
N8    N     N_R   0.097637 0.296984 0.126865 0.224539
O19   O     O_R   0.091514 0.197660 0.204984 -0.200703
O20   O     O_R   0.001269 0.327578 0.065287 -0.195726
Br9   Br    Br    0.173697 0.114564 0.947194 0.005790
N9    N     N_R   0.394416 0.234147 0.831720 0.209839
O21   O     O_R   0.444339 0.162883 0.920090 -0.355372
O22   O     O_R   0.341760 0.182361 0.734879 -0.319150
N10   N     N_R   0.683209 0.625551 0.857958 0.238351
O23   O     O_R   0.663880 0.723344 0.783304 -0.358660
O24   O     O_R   0.791892 0.605797 0.894959 -0.239189
N11   N     N_R   0.871813 0.360881 0.698227 0.268907
O25   O     O_R   0.856754 0.367213 0.823052 -0.205794
O26   O     O_R   0.872853 0.251703 0.653079 -0.220015
Br10  Br    Br    0.888213 0.764402 0.625447 -0.205611
Br11  Br    Br    0.127786 0.567681 0.212510 -0.225004
N12   N     N_R   0.899506 0.307438 0.413573 0.247714
O27   O     O_R   0.787891 0.269154 0.424589 -0.338207
O28   O     O_R   0.978714 0.223804 0.421300 -0.199546

loop_
_geom_bond_atom_site_label_1
_geom_bond_atom_site_label_2
_geom_bond_distance
_ccdc_geom_bond_type
N7    O18   1.297784 A    
N6    O16   1.296314 A    
C24   N8    1.433346 S    
N9    O21   1.300236 A    
Zn2   N1    2.103533 S    
N3    O10   1.303000 A    
Zn1   O7    2.115100 S    
C13   C14   1.409406 A    
C16   C17   1.391048 A    
C17   C22   1.395480 A    
Zn1   N2    2.101360 S    
C15   C16   1.380921 A    
C7    C9    1.575005 S    
N10   O24   1.300616 A    
C3    C22   1.486767 S    
O4    C2    1.339354 A    
O7    C4    1.346842 A    
C23   N7    1.422415 S    
C8    C12   1.586725 S    
C5    C6    1.557508 S    
C30   N10   1.425564 S    
C21   C22   1.391090 A    
C28   N1    1.397859 A    
N8    O20   1.299224 A    
O5    C3    1.335494 A    
C11   Br10  1.989089 S    
N3    O9    1.291603 A    
C6    H1    1.095932 S    
C12   N12   1.483602 S    
C10   C11   1.634634 S    
C12   N3    1.491982 S    
C11   N4    1.472907 S    
C10   C12   1.617341 S    
N7    O17   1.295495 A    
C13   C18   1.409998 A    
N9    O22   1.301378 A    
C23   C28   1.436591 A    
N8    O19   1.300105 A    
O3    Zn1   2.113797 S    
C25   Br9   1.973880 S    
C25   C26   1.409516 A    
N5    O14   1.299152 A    
N4    O11   1.301179 A    
N10   O23   1.295495 A    
O3    C2    1.344518 A    
C26   C27   1.430135 A    
N11   O26   1.298243 A    
H2    C7    1.089920 S    
C2    C9    1.544011 S    
O6    C3    1.335723 A    
C21   Br7   1.872354 S    
N11   O25   1.303978 A    
N4    O12   1.299364 A    
C4    C10   1.551566 S    
C29   C30   1.445188 A    
C24   C25   1.368392 A    
C18   C19   1.413978 A    
C16   Br6   1.904986 S    
Zn2   O8    2.113799 S    
C8    C9    1.574726 S    
C20   C21   1.395025 A    
N12   O27   1.300762 A    
C27   C28   1.464258 A    
C8    H3    1.091425 S    
C6    C10   1.587336 S    
N1    C29   1.364337 A    
C30   N2    1.379467 A    
C15   Br5   1.906150 S    
C20   N5    1.438815 S    
Zn1   O5    1.997804 S    
N5    O13   1.301341 A    
C23   C24   1.406895 A    
O1    Zn1   2.047618 S    
O2    Zn2   1.997804 S    
O8    C4    1.338808 A    
C14   Br4   1.909704 S    
O4    Zn2   2.115099 S    
C6    N11   1.457280 S    
C19   C20   1.417675 A    
O2    C1    1.332960 A    
C7    Br2   1.968086 S    
C17   C18   1.393099 A    
C7    C11   1.607560 S    
C26   N9    1.400196 S    
C1    C19   1.495301 S    
C13   Br3   1.874782 S    
N6    O15   1.291831 A    
C5    C9    1.588619 S    
C27   N2    1.403203 A    
Zn2   O6    2.047617 S    
C8    Br11  1.992497 S    
C14   C15   1.408840 A    
C5    N6    1.476627 S    
N12   O28   1.299748 A    
C5    Br1   1.999066 S    
O1    C1    1.344314 A    
C29   Br8   1.866164 S    
