data_mof_unit_24406.cif
_audit_creation_date              2012-12-11T14:58:39-0500
_audit_creation_method            fapswitch 2.2
_symmetry_space_group_name_H-M    P1
_symmetry_Int_Tables_number       1
_space_group_crystal_system       triclinic
_cell_length_a                    11.063811
_cell_length_b                    11.097942
_cell_length_c                    18.78676
_cell_angle_alpha                 90.082068
_cell_angle_beta                  90.125885
_cell_angle_gamma                 59.062699
_cell_volume                      1978.55811729

loop_
_atom_site_label
_atom_site_type_symbol
_atom_type_description
_atom_site_fract_x
_atom_site_fract_y
_atom_site_fract_z
_atom_type_partial_charge
C1    C     C_R   0.357249 0.773430 0.397015 0.536256
C2    C     C_R   0.226510 0.406960 0.207105 -0.173217
C3    C     C_R   0.225571 0.422852 0.280191 -0.042819
C4    C     C_R   0.380891 0.350039 0.390443 0.547671
C5    C     C_R   0.832868 0.741055 0.373009 -0.085702
C6    C     C_R   0.839055 0.637545 0.328899 -0.105735
C7    C     C_R   0.964813 0.539970 0.296927 -0.112623
C8    C     C_R   0.089871 0.535902 0.311978 0.003977
C9    C     C_R   0.345468 0.321278 0.319178 0.019582
C10   C     C_R   0.972444 0.246478 0.315652 -0.156797
C11   C     C_R   0.016028 0.227239 0.244687 -0.185534
C12   C     C_R   0.612102 0.108630 0.177566 0.008552
C13   C     C_R   0.917707 0.303467 0.190580 0.031890
C14   C     C_R   0.772925 0.382221 0.206015 -0.021233
C15   C     C_R   0.731318 0.404983 0.277155 -0.139579
C16   C     C_R   0.780053 0.376329 0.403998 0.538333
C17   C     C_R   0.831213 0.342074 0.331635 0.018336
C18   C     C_R   0.459016 0.818914 0.289637 -0.138314
C19   C     C_R   0.469607 0.813428 0.214925 -0.046747
C20   C     C_R   0.357849 0.821811 0.174519 0.050451
C21   C     C_R   0.257907 0.801663 0.210595 0.135638
C22   C     C_R   0.235015 0.835160 0.282080 -0.137773
C23   C     C_R   0.346553 0.305684 0.170451 -0.016733
C24   C     C_R   0.343091 0.827008 0.323837 -0.022849
C25   C     C_R   0.318867 0.230354 0.690379 -0.151593
C26   C     C_R   0.299777 0.217726 0.762231 -0.133205
C27   C     C_R   0.298805 0.314289 0.811035 0.023077
C28   C     C_R   0.345142 0.767151 0.605140 0.539613
C29   C     C_R   0.306306 0.429201 0.788227 -0.161279
C30   C     C_R   0.321829 0.443868 0.716244 -0.121160
C31   C     C_R   0.331028 0.342919 0.667698 0.036166
C32   C     C_R   0.886116 0.395413 0.709429 -0.116656
C33   C     C_R   0.884393 0.409430 0.782050 0.001736
C34   C     C_R   0.453446 0.200388 0.283100 -0.012133
C35   C     C_R   0.853226 0.322633 0.826091 0.056339
C36   C     C_R   0.803699 0.240628 0.793907 -0.030649
C37   C     C_R   0.788437 0.245340 0.719940 -0.118132
C38   C     C_R   0.826418 0.325958 0.678558 -0.002520
C39   C     C_R   0.206126 0.827232 0.714633 -0.123271
C40   C     C_R   0.369500 0.351343 0.595717 0.540828
C41   C     C_R   0.202913 0.821949 0.788719 0.116756
C42   C     C_R   0.311341 0.824865 0.827939 0.017261
C43   C     C_R   0.434315 0.802132 0.792608 0.105180
C44   C     C_R   0.438675 0.797117 0.718669 -0.112998
C45   C     C_R   0.467042 0.203394 0.209281 0.003789
C46   C     C_R   0.324440 0.811391 0.679414 -0.051444
C47   C     C_R   0.967237 0.290697 0.118196 0.554515
C48   C     C_R   0.326525 0.288512 0.095041 0.538938
C49   C     C_R   0.310414 0.894013 0.104532 0.525522
C50   C     C_R   0.891631 0.307213 0.901841 0.556395
C51   C     C_R   0.294781 0.287987 0.885403 0.542404
C52   C     C_R   0.766464 0.373410 0.608701 0.542884
C53   C     C_R   0.278271 0.889826 0.898993 0.532306
C54   C     C_R   0.879263 0.948376 0.114060 -0.050444
C55   C     C_R   0.860594 0.034316 0.172411 -0.119772
C56   C     C_R   0.078022 0.651844 0.347022 -0.056952
C57   C     C_R   0.727324 0.115866 0.203106 -0.139238
C58   C     C_3   0.554355 0.065511 0.322038 -0.367797
C59   C     C_3   0.662602 0.436261 0.147956 -0.387835
C60   C     C_3   0.613539 0.753859 0.183547 -0.421034
C61   C     C_3   0.252888 0.638620 0.124868 -0.295420
C62   C     C_3   0.916423 0.709534 0.024768 -0.286345
C63   C     C_3   0.906096 0.526803 0.807337 -0.358538
C64   C     C_3   0.753274 0.160232 0.837043 -0.377173
C65   C     C_3   0.944248 0.870513 0.423631 -0.383296
C66   C     C_3   0.987748 0.801995 0.784438 -0.336217
C67   C     C_R   0.951991 0.752802 0.380391 -0.006861
C68   C     C_3   0.611297 0.865811 0.817963 -0.295638
C69   C     C_R   0.642186 0.000610 0.128975 -0.057070
C70   C     C_R   0.770485 0.927329 0.092918 0.124125
Cr1   Cr    Cr6+3 0.601770 0.606860 0.505860 1.004672
Cr2   Cr    Cr6+3 0.291380 0.601660 0.495070 0.991921
Cr3   Cr    Cr6+3 0.606880 0.291510 0.499120 0.995373
Cr4   Cr    Cr6+3 0.062440 0.063090 0.008210 1.004422
Cr5   Cr    Cr6+3 0.062880 0.375170 0.998920 0.951190
Cr6   Cr    Cr6+3 0.374700 0.061720 0.992470 0.982890
H1    H     H_    0.734867 0.813873 0.399173 0.101986
H2    H     H_    0.289536 0.130640 0.780209 0.128298
H3    H     H_    0.305864 0.503221 0.825971 0.107783
H4    H     H_    0.334419 0.529653 0.698688 0.138916
H5    H     H_    0.916696 0.455313 0.676193 0.136251
H6    H     H_    0.738936 0.193260 0.695129 0.139348
H7    H     H_    0.121594 0.831792 0.683613 0.146416
H8    H     H_    0.535116 0.773934 0.692143 0.156756
H9    H     H_    0.978245 0.896822 0.086314 0.178477
H10   H     H_    0.948810 0.040025 0.192608 0.160887
H11   H     H_    0.713725 0.183698 0.247280 0.142837
H12   H     H_    0.747774 0.630085 0.319634 0.136713
H13   H     H_    0.168076 0.660741 0.345399 0.176600
H14   H     H_    0.564255 0.973722 0.117934 0.174821
H15   H     H_    0.131297 0.478491 0.178194 0.137713
H16   H     H_    0.501362 0.048922 0.367917 0.136084
H17   H     H_    0.590378 0.974301 0.286683 0.117281
H18   H     H_    0.650266 0.065377 0.339587 0.160640
H19   H     H_    0.678176 0.502531 0.109457 0.157657
H20   H     H_    0.667722 0.347028 0.118555 0.162948
H21   H     H_    0.555884 0.500738 0.170730 0.113424
H22   H     H_    0.667008 0.806777 0.204839 0.129072
H23   H     H_    0.963803 0.470860 0.258355 0.136470
H24   H     H_    0.680413 0.645390 0.201720 0.147429
H25   H     H_    0.612591 0.751899 0.124577 0.138355
H26   H     H_    0.108347 0.740189 0.206698 0.241411
H27   H     H_    0.179602 0.611125 0.100061 0.134673
H28   H     H_    0.337910 0.546541 0.152814 0.138919
H29   H     H_    0.300642 0.666501 0.081038 0.156236
H30   H     H_    0.696778 0.832952 0.022522 0.241629
H31   H     H_    0.906086 0.647135 0.981481 0.158294
H32   H     H_    0.945332 0.647536 0.074801 0.164885
H33   H     H_    0.000683 0.730024 0.008821 0.128151
H34   H     H_    0.048871 0.192852 0.357654 0.116663
H35   H     H_    0.892916 0.599821 0.763621 0.094310
H36   H     H_    0.826731 0.593016 0.847557 0.172549
H37   H     H_    0.013077 0.484389 0.828191 0.174706
H38   H     H_    0.677482 0.229871 0.878209 0.141064
H39   H     H_    0.698495 0.120478 0.803360 0.113501
H40   H     H_    0.843602 0.068277 0.862958 0.195291
H41   H     H_    0.968802 0.937212 0.390092 0.128690
H42   H     H_    0.837223 0.939038 0.446125 0.110839
H43   H     H_    0.019492 0.826828 0.468765 0.170848
H44   H     H_    0.131537 0.742128 0.867572 0.254795
H45   H     H_    0.126700 0.159035 0.232215 0.119356
H46   H     H_    0.914378 0.795158 0.821924 0.130305
H47   H     H_    0.036357 0.707032 0.750100 0.143683
H48   H     H_    0.925847 0.898139 0.751792 0.151028
H49   H     H_    0.566144 0.739123 0.882763 0.257751
H50   H     H_    0.689647 0.849780 0.859514 0.127199
H51   H     H_    0.525235 0.976689 0.820067 0.191477
H52   H     H_    0.662977 0.843771 0.765103 0.128426
H53   H     H_    0.620582 0.470941 0.290430 0.124202
H54   H     H_    0.544348 0.807771 0.321773 0.118682
H55   H     H_    0.139995 0.850501 0.305805 0.110676
H56   H     H_    0.326376 0.152244 0.653076 0.112106
N1    N     N_2   0.176880 0.752889 0.174905 -0.517123
N2    N     N_2   0.784169 0.840278 0.033612 -0.544054
N3    N     N_2   0.095291 0.809674 0.824634 -0.489238
N4    N     N_2   0.557921 0.772996 0.830933 -0.517903
O1    O     O_R   0.748800 0.497470 0.428000 -0.515521
O2    O     O_R   0.417600 0.174890 0.067840 -0.525332
O3    O     O_R   0.375320 0.946260 0.070860 -0.535584
O4    O     O_R   0.476420 0.724060 0.429470 -0.504884
O5    O     O_R   0.160600 0.919630 0.926660 -0.507845
O6    O     O_R   0.933060 0.190520 0.936020 -0.491928
O7    O     O_R   0.908880 0.403460 0.925020 -0.544974
O8    O     O_R   0.179600 0.361450 0.918490 -0.522226
O9    O     O_R   0.391510 0.170860 0.907530 -0.522113
O10   O     O_R   0.351130 0.942530 0.922260 -0.504588
O11   O     O_3   0.166667 0.166667 0.999870 -0.256497
O12   O     O_R   0.300070 0.471040 0.567100 -0.505089
O13   O     O_R   0.264580 0.744340 0.416750 -0.555804
O14   O     O_R   0.309380 0.472470 0.418200 -0.509975
O15   O     O_R   0.501710 0.260430 0.414300 -0.529806
O16   O     O_R   0.728090 0.305600 0.428960 -0.506299
O17   O     O_R   0.738760 0.495930 0.588610 -0.521674
O18   O     O_R   0.467110 0.722640 0.578360 -0.503428
O19   O     O_R   0.254530 0.742800 0.577360 -0.535774
O20   O     O_R   0.491670 0.258900 0.574910 -0.521491
O21   O     O_R   0.718780 0.304180 0.577850 -0.511588
O22   O     O_3   0.500010 0.500010 0.500020 -0.244846
O23   O     O_R   0.186690 0.923650 0.086970 -0.514631
O24   O     O_R   0.957250 0.194250 0.084630 -0.499157
O25   O     O_R   0.934970 0.407490 0.085330 -0.539957
O26   O     O_R   0.203780 0.365190 0.067090 -0.534838

loop_
_geom_bond_atom_site_label_1
_geom_bond_atom_site_label_2
_ccdc_geom_bond_type
C25   C31   A    
C12   C69   A    
C23   C45   A    
C22   H55   S    
C27   C29   A    
C41   C42   A    
C35   C36   A    
C5    C67   A    
C8    C56   A    
C61   N1    S    
C7    C8    A    
Cr1   O1    S    
C51   O8    A    
C14   C59   S    
C28   C46   S    
C26   C27   A    
C37   C38   A    
C7    H23   S    
Cr4   O23   S    
Cr5   O26   S    
C64   H40   S    
C22   C24   A    
C36   C37   A    
C61   H27   S    
C58   H17   S    
C60   H22   S    
C42   C53   S    
C30   C31   A    
Cr6   O3    S    
C38   C52   S    
C51   O9    A    
C10   C17   A    
Cr1   O17   S    
Cr3   O21   S    
C52   O21   A    
C6    H12   S    
C31   C40   S    
C18   C19   A    
C63   H36   S    
Cr1   O22   S    
Cr4   O24   S    
C16   O1    A    
Cr6   O11   S    
C27   C51   S    
C16   C17   S    
C65   C67   S    
C54   C70   A    
C28   O19   A    
C65   H42   S    
C66   H46   S    
C1    O13   A    
C32   C38   A    
C29   C30   A    
C61   H29   S    
C68   H52   S    
C53   O5    A    
C60   H25   S    
C30   H4    S    
Cr4   O6    S    
Cr6   O10   S    
Cr2   O19   S    
C13   C14   A    
Cr3   O15   S    
C28   O18   A    
C11   H45   S    
C59   H19   S    
C21   N1    S    
C25   C26   A    
C44   C46   A    
C47   O24   A    
C62   H32   S    
C64   H38   S    
C40   O12   A    
Cr4   O11   S    
C68   N4    S    
C61   H28   S    
C39   C41   A    
C3    C8    S    
Cr5   O8    S    
C13   C47   S    
C62   H31   S    
Cr5   O11   S    
C52   O17   A    
Cr2   O12   S    
Cr1   O18   S    
Cr3   O22   S    
C60   H24   S    
C57   H11   S    
C47   O25   A    
C43   C44   A    
C20   C49   S    
C3    C9    A    
C29   H3    S    
C33   C63   S    
C35   C50   S    
C2    H15   S    
C65   H43   S    
C16   O16   A    
C34   C45   A    
C26   H2    S    
C68   H51   S    
Cr1   O4    S    
C1    O4    A    
Cr5   O7    S    
C39   C46   A    
C12   C57   A    
H49   N4    S    
C56   H13   S    
Cr4   O5    S    
Cr6   O9    S    
Cr2   O14   S    
C49   O3    A    
Cr3   O16   S    
C9    C34   A    
C59   H21   S    
C18   C24   A    
C37   H6    S    
C18   H54   S    
C42   C43   A    
C5    H1    S    
C69   H14   S    
C68   H50   S    
C41   N3    S    
C32   H5    S    
C50   O7    A    
C34   C58   S    
Cr2   O22   S    
C15   H53   S    
C15   C17   A    
C4    O15   A    
C54   C55   A    
C23   C48   S    
C66   H47   S    
C49   O23   A    
C12   C45   S    
C44   H8    S    
C64   H39   S    
C54   H9    S    
C6    C7    A    
Cr6   O2    S    
C19   C60   S    
C56   C67   A    
C4    O14   A    
C43   N4    S    
C48   O2    A    
Cr5   O25   S    
H44   N3    S    
C32   C33   A    
C62   N2    S    
C19   C20   A    
C55   C57   A    
C2    C3    A    
C58   H18   S    
H26   N1    S    
C39   H7    S    
C36   C64   S    
C11   C13   A    
C5    C6    A    
C62   H33   S    
C55   H10   S    
Cr3   O20   S    
C53   O10   A    
C33   C35   A    
C10   H34   S    
C66   H48   S    
C63   H35   S    
C69   C70   A    
C10   C11   A    
C66   N3    S    
C63   H37   S    
H30   N2    S    
C48   O26   A    
C20   C21   A    
C1    C24   S    
Cr2   O13   S    
C59   H20   S    
C2    C23   A    
C70   N2    S    
C65   H41   S    
C14   C15   A    
C40   O20   A    
C4    C9    S    
C21   C22   A    
C25   H56   S    
C58   H16   S    
C50   O6    A    
