data_mof_unit_64618.cif
_audit_creation_date              2013-03-05T16:35:57-0500
_audit_creation_method            fapswitch 2.2
_symmetry_space_group_name_H-M    P1
_symmetry_Int_Tables_number       1
_space_group_crystal_system       triclinic
_cell_length_a                    47.837074
_cell_length_b                    35.52183
_cell_length_c                    35.52005
_cell_angle_alpha                 90.000089
_cell_angle_beta                  138.261945
_cell_angle_gamma                 89.99873
_cell_volume                      40181.773423

loop_
_atom_site_label
_atom_site_type_symbol
_atom_site_description
_atom_site_fract_x
_atom_site_fract_y
_atom_site_fract_z
_atom_type_partial_charge
O1    O     O_R   0.000000 0.968690 0.444560 -0.586552
O2    O     O_R   0.000000 0.968690 0.555440 -0.586489
O3    O     O_R   0.500000 0.468690 0.444560 -0.586573
O4    O     O_R   0.500000 0.468690 0.555440 -0.586456
O5    O     O_R   0.999990 0.031300 0.444600 -0.595393
O6    O     O_R   0.000010 0.031300 0.555400 -0.595385
O7    O     O_R   0.499990 0.531300 0.444600 -0.595383
O8    O     O_R   0.500010 0.531300 0.555400 -0.595362
C1    C     C_R   0.999934 0.000002 0.426647 1.017027
C2    C     C_R   0.000064 0.000002 0.573351 1.016962
C3    C     C_R   0.499934 0.500002 0.426646 1.017041
C4    C     C_R   0.500064 0.500002 0.573351 1.016922
O9    O     O_R   0.061610 0.968700 0.561610 -0.583912
O10   O     O_R   0.938390 0.968700 0.438390 -0.584068
O11   O     O_R   0.561610 0.468700 0.561610 -0.583838
O12   O     O_R   0.438390 0.468700 0.438390 -0.584120
O13   O     O_R   0.061610 0.031300 0.561650 -0.600853
O14   O     O_R   0.938390 0.031300 0.438350 -0.601171
O15   O     O_R   0.561610 0.531300 0.561650 -0.600648
O16   O     O_R   0.438390 0.531300 0.438350 -0.601243
C5    C     C_R   0.081303 0.999996 0.581307 0.934431
C6    C     C_R   0.918697 0.999998 0.418692 0.934495
C7    C     C_R   0.581303 0.499996 0.581307 0.934367
C8    C     C_R   0.418697 0.499998 0.418692 0.934480
Zn1   Zn    Zn3+2 0.000000 0.958200 0.500000 1.180809
Zn2   Zn    Zn3+2 0.500000 0.458200 0.500000 1.180879
Zn3   Zn    Zn3+2 0.000000 0.041800 0.500000 1.144906
Zn4   Zn    Zn3+2 0.500000 0.541800 0.500000 1.145082
C9    C     C_3   0.264140 0.987144 0.729441 -0.218045
C10   C     C_3   0.735860 0.988753 0.271120 -0.218498
C11   C     C_3   0.764139 0.486135 0.729837 -0.217784
C12   C     C_3   0.235860 0.489138 0.271242 -0.218621
C13   C     C_3   0.235975 0.022455 0.707759 -0.331737
C14   C     C_3   0.764011 0.023725 0.291155 -0.332351
C15   C     C_3   0.735967 0.521622 0.707101 -0.331323
C16   C     C_3   0.264008 0.524019 0.290889 -0.332470
H1    H     H_    0.224103 0.041845 0.673751 0.226307
H2    H     H_    0.775869 0.044126 0.324226 0.225999
H3    H     H_    0.724089 0.540347 0.672521 0.226517
H4    H     H_    0.275864 0.544653 0.323731 0.225938
H5    H     H_    0.275984 0.976768 0.713843 0.220737
H6    H     H_    0.724015 0.979664 0.287170 0.220515
H7    H     H_    0.775983 0.474951 0.714556 0.220870
H8    H     H_    0.224015 0.480358 0.287390 0.220457
C17   C     C_1   0.125709 0.999946 0.625428 -0.024587
C18   C     C_1   0.874291 0.999953 0.374581 -0.024844
C19   C     C_1   0.625709 0.499944 0.625435 -0.024412
C20   C     C_1   0.374291 0.499954 0.374583 -0.024893
C21   C     C_1   0.374250 0.999732 0.873964 -0.111249
C22   C     C_1   0.625750 0.999732 0.126040 -0.111254
C23   C     C_1   0.874251 0.499733 0.873967 -0.111249
C24   C     C_1   0.125750 0.499732 0.126041 -0.111260
C25   C     C_3   0.236464 0.964787 0.729259 0.306530
C26   C     C_3   0.763551 0.965142 0.272392 0.306286
C27   C     C_3   0.736472 0.464602 0.730317 0.306668
C28   C     C_3   0.263553 0.465237 0.272780 0.306224
C29   C     C_3   0.208569 0.999232 0.707580 -0.156268
C30   C     C_3   0.791432 0.999262 0.292464 -0.156076
C31   C     C_3   0.708569 0.499215 0.707608 -0.156394
C32   C     C_3   0.291432 0.499269 0.292474 -0.156034
C33   C     C_3   0.264301 0.975634 0.791006 -0.357532
C34   C     C_3   0.735715 0.974396 0.210174 -0.357556
C35   C     C_3   0.764310 0.476451 0.791725 -0.357493
C36   C     C_3   0.235718 0.474110 0.210461 -0.357558
C37   C     C_3   0.291394 0.998966 0.790753 -0.101400
C38   C     C_3   0.708606 0.998974 0.209292 -0.101235
C39   C     C_3   0.791395 0.498963 0.790781 -0.101503
C40   C     C_3   0.208607 0.498976 0.209303 -0.101194
C41   C     C_3   0.236359 0.010807 0.768814 0.619471
C42   C     C_3   0.763642 0.009267 0.230724 0.619560
C43   C     C_3   0.736360 0.511779 0.768483 0.619409
C44   C     C_3   0.263643 0.508897 0.230625 0.619575
C45   C     C_3   0.263918 0.033772 0.769564 0.665562
C46   C     C_3   0.736068 0.033452 0.228858 0.666059
C47   C     C_3   0.763912 0.533939 0.768553 0.665250
C48   C     C_3   0.236066 0.533365 0.228487 0.666180
C49   C     C_1   0.163177 0.999708 0.662576 0.174981
C50   C     C_1   0.836823 0.999725 0.337447 0.174581
C51   C     C_1   0.663178 0.499700 0.662591 0.175231
C52   C     C_1   0.336823 0.499728 0.337452 0.174488
C53   C     C_1   0.336770 0.999419 0.836309 0.128548
C54   C     C_1   0.663230 0.999420 0.163710 0.128432
C55   C     C_1   0.836770 0.499418 0.836321 0.128619
C56   C     C_1   0.163230 0.499421 0.163715 0.128401
H9    H     H_    0.276011 0.956299 0.824971 0.225859
H10   H     H_    0.724018 0.954046 0.177144 0.225811
H11   H     H_    0.776026 0.457785 0.826260 0.225888
H12   H     H_    0.224023 0.453526 0.177659 0.225797
C57   C     C_R   0.970450 0.019465 0.143840 -0.212355
C58   C     C_R   0.029546 0.019458 0.856154 -0.212451
C59   C     C_R   0.470448 0.519467 0.143837 -0.212348
C60   C     C_R   0.529546 0.519457 0.856154 -0.212482
H13   H     H_    0.945939 0.034441 0.134185 0.222012
H14   H     H_    0.054057 0.034433 0.865807 0.221964
H15   H     H_    0.445936 0.534444 0.134180 0.222012
H16   H     H_    0.554057 0.534431 0.865807 0.221949
C61   C     C_R   0.969335 0.018008 0.103714 0.668425
C62   C     C_R   0.030663 0.018003 0.896282 0.668389
C63   C     C_R   0.469334 0.518010 0.103712 0.668423
C64   C     C_R   0.530663 0.518001 0.896282 0.668383
C65   C     C_R   0.000695 0.998551 0.115367 -0.308795
C66   C     C_R   0.999304 0.998548 0.884632 -0.308755
C67   C     C_R   0.500695 0.498553 0.115366 -0.308796
C68   C     C_R   0.499304 0.498548 0.884632 -0.308750
C69   C     C_R   0.033308 0.980001 0.167947 0.154507
C70   C     C_R   0.966691 0.979998 0.832053 0.154465
C71   C     C_R   0.533307 0.480003 0.167947 0.154510
C72   C     C_R   0.466690 0.479998 0.832053 0.154472
C73   C     C_R   0.034446 0.981879 0.208655 0.248320
C74   C     C_R   0.965551 0.981876 0.791342 0.248281
C75   C     C_R   0.534444 0.481883 0.208655 0.248335
C76   C     C_R   0.465550 0.481876 0.791342 0.248282
C77   C     C_R   0.002699 0.001673 0.195890 -0.154310
C78   C     C_R   0.997296 0.001667 0.804104 -0.154265
C79   C     C_R   0.502696 0.501676 0.195888 -0.154311
C80   C     C_R   0.497296 0.501666 0.804104 -0.154253
C81   C     C_1   0.001269 0.001856 0.234520 0.168259
C82   C     C_1   0.998723 0.001850 0.765472 0.168194
C83   C     C_1   0.501265 0.501859 0.234515 0.168269
C84   C     C_1   0.498722 0.501849 0.765471 0.168176
C85   C     C_1   0.000423 0.001195 0.267286 0.231389
C86   C     C_1   0.999568 0.001190 0.732704 0.231283
C87   C     C_1   0.500418 0.501198 0.267280 0.231427
C88   C     C_1   0.499567 0.501189 0.732703 0.231253
C89   C     C_R   0.972737 0.023668 0.298959 0.608850
C90   C     C_R   0.027261 0.023659 0.701040 0.608676
C91   C     C_R   0.472735 0.523672 0.298958 0.608891
C92   C     C_R   0.527261 0.523657 0.701040 0.608586
C93   C     C_R   0.972060 0.023740 0.337583 0.157850
C94   C     C_R   0.027940 0.023733 0.662418 0.157685
C95   C     C_R   0.472059 0.523743 0.337583 0.157880
C96   C     C_R   0.527940 0.523731 0.662418 0.157572
C97   C     C_R   0.999923 0.999965 0.385469 -0.394426
C98   C     C_R   0.000072 0.999965 0.614526 -0.394374
C99   C     C_R   0.499921 0.499965 0.385466 -0.394426
C100  C     C_R   0.500071 0.499964 0.614525 -0.394330
C101  C     C_R   0.027738 0.975932 0.393748 0.180181
C102  C     C_R   0.972249 0.975939 0.606236 0.179852
C103  C     C_R   0.527732 0.475930 0.393741 0.180395
C104  C     C_R   0.472247 0.475940 0.606233 0.179783
C105  C     C_R   0.027430 0.975613 0.353885 0.178106
C106  C     C_R   0.972554 0.975618 0.646097 0.178081
C107  C     C_R   0.527423 0.475611 0.353876 0.178113
C108  C     C_R   0.472552 0.475619 0.646095 0.178087
C109  C     C_R   0.999969 0.999782 0.306927 -0.255379
C110  C     C_R   0.000021 0.999779 0.693063 -0.255274
C111  C     C_R   0.499964 0.499784 0.306921 -0.255415
C112  C     C_R   0.500020 0.499778 0.693062 -0.255228
O17   O     O_R   0.499990 0.944470 0.968740 -0.556921
O18   O     O_R   0.500010 0.944470 0.031260 -0.556870
O19   O     O_R   0.999990 0.444470 0.968740 -0.556952
O20   O     O_R   0.000010 0.444470 0.031260 -0.556855
C113  C     C_R   0.500000 0.926420 1.000000 1.033949
C114  C     C_R   1.000000 0.426420 1.000000 1.033951
O21   O     O_R   0.438380 0.999930 0.907110 -0.599200
O22   O     O_R   0.561620 0.999930 0.092890 -0.599419
O23   O     O_R   0.938380 0.499930 0.907110 -0.599023
O24   O     O_R   0.061620 0.499930 0.092890 -0.599438
O25   O     O_R   0.438390 0.999990 0.969710 -0.605143
O26   O     O_R   0.561610 0.999990 0.030290 -0.604805
O27   O     O_R   0.938390 0.499990 0.969710 -0.605387
O28   O     O_R   0.061610 0.499990 0.030290 -0.604763
C115  C     C_R   0.418679 0.999982 0.918610 0.886418
C116  C     C_R   0.581321 0.999981 0.081390 0.886300
C117  C     C_R   0.918679 0.499983 0.918611 0.886485
C118  C     C_R   0.081321 0.499981 0.081390 0.886269
Zn5   Zn    Zn3+2 0.500000 0.999910 0.958220 1.107691
Zn6   Zn    Zn3+2 0.500000 0.999910 0.041780 1.107221
Zn7   Zn    Zn3+2 0.000000 0.499910 0.958220 1.107860
Zn8   Zn    Zn3+2 0.000000 0.499910 0.041780 1.106991
O29   O     O_R   0.500000 0.055370 0.968700 -0.619962
O30   O     O_R   0.500000 0.055370 0.031300 -0.620148
O31   O     O_R   0.000000 0.555370 0.968700 -0.619882
O32   O     O_R   0.000000 0.555370 0.031300 -0.620221
C119  C     C_R   0.500000 0.073370 0.000000 0.862238
C120  C     C_R   0.000000 0.573370 0.000000 0.862279
O33   O     O_R   0.034750 0.055350 0.034810 -0.591723
O34   O     O_R   0.965250 0.055350 0.965190 -0.591688
O35   O     O_R   0.534750 0.555350 0.034810 -0.591721
O36   O     O_R   0.465250 0.555350 0.965190 -0.591692
C121  C     C_R   0.999999 0.073234 0.999999 1.051681
C122  C     C_R   0.499999 0.573234 0.999999 1.051684
O37   O     O_R   0.034780 0.999900 0.090240 -0.588565
O38   O     O_R   0.965220 0.999900 0.909760 -0.588560
O39   O     O_R   0.534780 0.499900 0.090240 -0.588561
O40   O     O_R   0.465220 0.499900 0.909760 -0.588560
O41   O     O_R   0.965220 0.999880 0.020680 -0.558843
O42   O     O_R   0.034780 0.999880 0.979320 -0.558862
O43   O     O_R   0.465220 0.499880 0.020680 -0.558846
O44   O     O_R   0.534780 0.499880 0.979320 -0.558865
C123  C     C_R   0.000155 0.999259 0.073597 1.029496
C124  C     C_R   0.999845 0.999258 0.926402 1.029480
C125  C     C_R   0.500154 0.499259 0.073597 1.029500
C126  C     C_R   0.499845 0.499258 0.926402 1.029485
Zn9   Zn    Zn3+2 0.046450 0.999900 0.046470 1.212913
Zn10  Zn    Zn3+2 0.953550 0.999900 0.953530 1.213045
Zn11  Zn    Zn3+2 0.546450 0.499900 0.046470 1.212906
Zn12  Zn    Zn3+2 0.453550 0.499900 0.953530 1.213016
O45   O     O_R   0.034810 0.944450 0.034800 -0.586889
O46   O     O_R   0.965190 0.944450 0.965200 -0.586838
O47   O     O_R   0.534810 0.444450 0.034800 -0.586889
O48   O     O_R   0.465190 0.444450 0.965200 -0.586847
C127  C     C_R   0.000001 0.926531 0.000001 1.055593
C128  C     C_R   0.500001 0.426531 0.000000 1.055596
C129  C     C_R   0.025000 0.173470 0.050930 0.588984
C130  C     C_R   0.974991 0.173470 0.949062 0.588987
C131  C     C_R   0.525001 0.673470 0.050931 0.588990
C132  C     C_R   0.474992 0.673470 0.949063 0.588982
C133  C     C_R   0.024958 0.134120 0.051460 0.157081
C134  C     C_R   0.975036 0.134120 0.948535 0.157103
C135  C     C_R   0.524958 0.634120 0.051460 0.157077
C136  C     C_R   0.475036 0.634121 0.948535 0.157097
C137  C     C_R   0.999998 0.114317 0.999998 -0.427205
C138  C     C_R   0.499998 0.614317 0.999998 -0.427207
C139  C     C_R   0.999994 0.192798 0.999995 -0.320448
C140  C     C_R   0.499996 0.692797 0.999997 -0.320456
C141  C     C_1   0.999994 0.232839 0.999994 0.269184
C142  C     C_1   0.499996 0.732839 0.999996 0.269180
C143  C     C_1   0.499996 0.766457 0.999997 0.305549
C144  C     C_1   0.999994 0.266457 0.999994 0.305553
C145  C     C_R   0.511904 0.825931 0.044417 0.571349
C146  C     C_R   0.488092 0.825932 0.955579 0.571284
C147  C     C_R   0.011902 0.325931 0.044415 0.571369
C148  C     C_R   0.988089 0.325932 0.955576 0.571268
C149  C     C_R   0.511931 0.865108 0.044558 0.519072
C150  C     C_R   0.488067 0.865109 0.955439 0.518985
C151  C     C_R   0.011930 0.365108 0.044557 0.519103
C152  C     C_R   0.988065 0.365109 0.955438 0.518932
C153  C     C_R   0.499999 0.885097 0.999999 -0.546194
C154  C     C_R   0.999998 0.385097 0.999998 -0.546159
C155  C     C_R   0.499997 0.806481 0.999997 -0.424321
C156  C     C_R   0.999995 0.306481 0.999995 -0.424291
C157  C     C_R   0.972905 0.826122 0.996794 0.573907
C158  C     C_R   0.027102 0.826122 0.003213 0.573814
C159  C     C_R   0.472905 0.326122 0.996795 0.573876
C160  C     C_R   0.527101 0.326122 0.003213 0.573823
C161  C     C_R   0.972892 0.865477 0.997363 0.169278
C162  C     C_R   0.027113 0.865476 0.002642 0.169312
C163  C     C_R   0.472892 0.365477 0.997364 0.169271
C164  C     C_R   0.527113 0.365476 0.002641 0.169300
C165  C     C_R   0.000002 0.885354 0.000002 -0.415122
C166  C     C_R   0.500002 0.385354 0.000002 -0.415124
C167  C     C_R   0.000004 0.806780 0.000004 -0.285405
C168  C     C_R   0.500004 0.306780 0.000004 -0.285428
C169  C     C_1   0.000004 0.766709 0.000005 0.253123
C170  C     C_1   0.500004 0.266709 0.000005 0.253087
C171  C     C_1   0.500004 0.233075 0.000004 0.019639
C172  C     C_1   0.000004 0.733075 0.000005 0.019667
C173  C     C_R   0.499743 0.173633 0.033896 -0.098638
C174  C     C_R   0.500263 0.173633 0.966110 -0.098438
C175  C     C_R   0.999527 0.673633 0.033677 -0.098656
C176  C     C_R   0.000480 0.673633 0.966330 -0.098317
H17   H     H_    0.499538 0.188731 0.060203 0.174084
H18   H     H_    0.500469 0.188731 0.939804 0.174166
H19   H     H_    0.999151 0.688731 0.059811 0.174137
H20   H     H_    0.000856 0.688731 0.940197 0.174266
C177  C     C_R   0.499746 0.134468 0.033947 -0.151444
C178  C     C_R   0.500257 0.134468 0.966056 -0.151074
C179  C     C_R   0.999533 0.634468 0.033731 -0.151571
C180  C     C_R   0.000472 0.634468 0.966274 -0.150894
H21   H     H_    0.499540 0.119811 0.060474 0.180898
H22   H     H_    0.500462 0.119811 0.939529 0.181008
H23   H     H_    0.999153 0.619811 0.060082 0.180873
H24   H     H_    0.000851 0.619811 0.939922 0.181064
C181  C     C_R   0.500001 0.114595 0.000001 -0.052757
C182  C     C_R   0.000001 0.614595 0.000001 -0.052769
C183  C     C_R   0.500004 0.193073 0.000004 0.102888
C184  C     C_R   0.000004 0.693073 0.000004 0.102801
N1    N     N_R   0.066876 0.962722 0.261886 0.259800
O49   O     O_R   0.088154 0.980388 0.309073 -0.284185
O50   O     O_R   0.075248 0.927541 0.263381 -0.229357
N2    N     N_R   0.933119 0.962720 0.738113 0.259808
O51   O     O_R   0.911838 0.980387 0.690925 -0.284131
O52   O     O_R   0.924748 0.927540 0.736619 -0.229155
N3    N     N_R   0.566874 0.462726 0.261886 0.259796
O53   O     O_R   0.588151 0.480392 0.309072 -0.284207
O54   O     O_R   0.575248 0.427545 0.263383 -0.229390
N4    N     N_R   0.433118 0.462720 0.738112 0.259807
O55   O     O_R   0.411837 0.480387 0.690925 -0.284117
O56   O     O_R   0.424746 0.427540 0.736618 -0.229182
F1    F     F_    0.945906 0.046162 0.252480 -0.570960
F2    F     F_    0.054097 0.046145 0.747526 -0.571104
F3    F     F_    0.445906 0.546168 0.252482 -0.570932
F4    F     F_    0.554098 0.546142 0.747527 -0.571172
N5    N     N_R   0.941869 0.046840 0.326559 0.263020
O57   O     O_R   0.934512 0.081013 0.307737 -0.229742
O58   O     O_R   0.918231 0.032444 0.328989 -0.360257
N6    N     N_R   0.058137 0.046825 0.673451 0.263016
O59   O     O_R   0.065503 0.080995 0.692285 -0.229495
O60   O     O_R   0.081771 0.032426 0.671016 -0.360216
N7    N     N_R   0.441871 0.546844 0.326563 0.263025
O61   O     O_R   0.434517 0.581018 0.307745 -0.229782
O62   O     O_R   0.418232 0.532450 0.328991 -0.360281
N8    N     N_R   0.558138 0.546824 0.673453 0.263014
O63   O     O_R   0.565506 0.580993 0.692290 -0.229298
O64   O     O_R   0.581771 0.532424 0.671016 -0.360221
N9    N     N_R   0.056421 0.952011 0.442640 0.261510
O65   O     O_R   0.082900 0.966381 0.493161 -0.362301
O66   O     O_R   0.057327 0.916015 0.436818 -0.251950
N10   N     N_R   0.943561 0.952027 0.557337 0.261635
O67   O     O_R   0.917087 0.966404 0.506820 -0.361093
O68   O     O_R   0.942644 0.916030 0.563147 -0.251330
N11   N     N_R   0.556412 0.452006 0.442629 0.261431
O69   O     O_R   0.582894 0.466373 0.493152 -0.363053
O70   O     O_R   0.557314 0.416010 0.436802 -0.252294
N12   N     N_R   0.443558 0.452029 0.557333 0.261665
O71   O     O_R   0.417085 0.466408 0.506817 -0.360798
O72   O     O_R   0.442639 0.416033 0.563141 -0.251188
N13   N     N_R   0.055892 0.951715 0.362095 0.269672
O73   O     O_R   0.041940 0.929439 0.321823 -0.281413
O74   O     O_R   0.095811 0.951922 0.410020 -0.234084
N14   N     N_R   0.944085 0.951727 0.637877 0.269665
O75   O     O_R   0.958030 0.929446 0.678141 -0.281283
O76   O     O_R   0.904167 0.951945 0.589951 -0.233569
N15   N     N_R   0.555882 0.451711 0.362082 0.269680
O77   O     O_R   0.541927 0.429438 0.321806 -0.281447
O78   O     O_R   0.595801 0.451916 0.410007 -0.234366
N16   N     N_R   0.444082 0.451728 0.637873 0.269660
O79   O     O_R   0.458025 0.429447 0.678136 -0.281288
O80   O     O_R   0.404164 0.451948 0.589946 -0.233458
F5    F     F_    0.048274 0.193022 0.099759 -0.542006
F6    F     F_    0.951715 0.193022 0.900232 -0.542064
F7    F     F_    0.548276 0.693021 0.099760 -0.542003
F8    F     F_    0.451717 0.693022 0.900233 -0.542050
N17   N     N_R   0.048975 0.114694 0.103861 0.265227
O81   O     O_R   0.031817 0.088033 0.106478 -0.371095
O82   O     O_R   0.086411 0.126366 0.150379 -0.224818
N18   N     N_R   0.951021 0.114695 0.896135 0.265214
O83   O     O_R   0.968180 0.088033 0.893520 -0.371147
O84   O     O_R   0.913583 0.126366 0.849616 -0.224828
N19   N     N_R   0.548975 0.614694 0.103862 0.265228
O85   O     O_R   0.531817 0.588032 0.106478 -0.371098
O86   O     O_R   0.586412 0.626365 0.150379 -0.224804
N20   N     N_R   0.451021 0.614695 0.896135 0.265216
O87   O     O_R   0.468180 0.588033 0.893519 -0.371138
O88   O     O_R   0.413584 0.626367 0.849617 -0.224829
F9    F     F_    0.523615 0.806941 0.087678 -0.529729
F10   F     F_    0.476380 0.806943 0.912317 -0.529852
F11   F     F_    0.023614 0.306941 0.087676 -0.529715
F12   F     F_    0.976376 0.306944 0.912314 -0.529913
F13   F     F_    0.524291 0.883307 0.088723 -0.547085
F14   F     F_    0.475708 0.883309 0.911275 -0.547225
F15   F     F_    0.024291 0.383307 0.088723 -0.547069
F16   F     F_    0.975705 0.383310 0.911274 -0.547313
F17   F     F_    0.947536 0.806582 0.995083 -0.566769
F18   F     F_    0.052471 0.806580 0.004924 -0.566841
F19   F     F_    0.447537 0.306582 0.995085 -0.566771
F20   F     F_    0.552470 0.306580 0.004923 -0.566807
N21   N     N_R   0.946508 0.884798 0.997428 0.267564
O89   O     O_R   0.908236 0.873382 0.964813 -0.230769
O90   O     O_R   0.962066 0.910929 0.034611 -0.352844
N22   N     N_R   0.053496 0.884797 0.002576 0.267570
O91   O     O_R   0.091767 0.873378 0.035187 -0.230955
O92   O     O_R   0.037937 0.910929 0.965394 -0.352823
N23   N     N_R   0.446509 0.384798 0.997430 0.267564
O93   O     O_R   0.408238 0.373382 0.964817 -0.230817
O94   O     O_R   0.462069 0.410929 0.034614 -0.352839
N24   N     N_R   0.553495 0.384797 0.002574 0.267563
O95   O     O_R   0.591766 0.373378 0.035185 -0.230954
O96   O     O_R   0.537935 0.410929 0.965391 -0.352838
F21   F     F_    0.278890 0.069616 0.791668 -0.580717
F22   F     F_    0.721082 0.068925 0.205077 -0.580551
F23   F     F_    0.778877 0.569980 0.789583 -0.580816
F24   F     F_    0.221078 0.568738 0.204312 -0.580507
F25   F     F_    0.221660 0.023544 0.788381 -0.555971
F26   F     F_    0.778342 0.020396 0.210605 -0.556237
F27   F     F_    0.721662 0.525524 0.787659 -0.555829
F28   F     F_    0.278342 0.519642 0.210385 -0.556316
N25   N     N_R   0.222004 0.926545 0.707502 0.254389
O97   O     O_R   0.249246 0.899735 0.729914 -0.292990
O98   O     O_R   0.182107 0.918933 0.665798 -0.302557
N26   N     N_R   0.778029 0.927283 0.295943 0.254372
O99   O     O_R   0.750800 0.900722 0.274776 -0.292231
O100  O     O_R   0.817929 0.919773 0.338026 -0.300974
N27   N     N_R   0.722021 0.426160 0.709708 0.254393
O101  O     O_R   0.749269 0.399220 0.732917 -0.293455
O102  O     O_R   0.682126 0.418494 0.668246 -0.303528
N28   N     N_R   0.278035 0.427481 0.296753 0.254362
O103  O     O_R   0.250808 0.400987 0.275879 -0.292064
O104  O     O_R   0.317936 0.419996 0.338923 -0.300595
F29   F     F_    0.938141 0.036526 0.054016 -0.588658
F30   F     F_    0.061858 0.036519 0.945979 -0.588740
F31   F     F_    0.438140 0.536527 0.054013 -0.588669
F32   F     F_    0.561859 0.536518 0.945979 -0.588751
N29   N     N_R   0.065041 0.959173 0.180045 0.258962
O105  O     O_R   0.104596 0.966361 0.225492 -0.256398
O106  O     O_R   0.054512 0.931879 0.146929 -0.316697
N30   N     N_R   0.934958 0.959173 0.819958 0.258976
O107  O     O_R   0.895403 0.966363 0.774513 -0.256293
O108  O     O_R   0.945489 0.931878 0.853075 -0.316584
N31   N     N_R   0.565042 0.459176 0.180047 0.258962
O109  O     O_R   0.604597 0.466366 0.225495 -0.256406
O110  O     O_R   0.554514 0.431881 0.146933 -0.316690
N32   N     N_R   0.434958 0.459173 0.819958 0.258972
O111  O     O_R   0.395402 0.466365 0.774513 -0.256318
O112  O     O_R   0.445488 0.431878 0.853074 -0.316614

loop_
_geom_bond_atom_site_label_1
_geom_bond_atom_site_label_2
_geom_bond_distance
_ccdc_geom_bond_type
C63   C67   1.404567 A    
C97   C101  1.414797 A    
C27   C31   1.528775 S    
C106  C110  1.405280 A    
C45   F21   1.382546 S    
N7    O61   1.301218 A    
C180  H24   1.082981 S    
N11   O70   1.301143 A    
N10   O67   1.301164 A    
C11   C39   1.543224 S    
O24   C118  1.276556 A    
C177  H21   1.082966 S    
C174  C183  1.395949 A    
C146  F10   1.358441 S    
C179  H23   1.082983 S    
Zn8   O32   2.004905 S    
C32   C44   1.533616 S    
C9    C13   1.559827 S    
C64   C68   1.404564 A    
N26   O99   1.300268 A    
C34   C42   1.548105 S    
C24   C56   1.193673 T    
O17   C113  1.281868 A    
C73   N1    1.437770 S    
O23   Zn7   1.999624 S    
C157  C167  1.394616 A    
O21   Zn5   1.999624 S    
N2    O51   1.301171 A    
C42   C46   1.533574 S    
O4    C4    1.280218 A    
C132  C140  1.394865 A    
C5    C17   1.414295 S    
O30   C119  1.282531 A    
C100  C104  1.414798 A    
C147  F11   1.358438 S    
C12   C28   1.539758 S    
C94   C98   1.414022 A    
C148  C152  1.391631 A    
O36   C122  1.276036 A    
C132  F8    1.359497 S    
C57   C77   1.393169 A    
C22   C116  1.414918 S    
C177  C181  1.405081 A    
C94   N6    1.438167 S    
C34   C38   1.544088 S    
C30   C42   1.533613 S    
Zn5   O29   2.004904 S    
O16   Zn4   1.997226 S    
C62   C66   1.404565 A    
C133  C137  1.415834 A    
O7    Zn4   2.002491 S    
O13   Zn3   1.997203 S    
C129  F5    1.359497 S    
C38   C54   1.445148 S    
O20   Zn8   2.004533 S    
N23   O93   1.301194 A    
C132  C136  1.397925 A    
O18   Zn6   2.004533 S    
N22   O91   1.301192 A    
N12   O71   1.301160 A    
O9    C5    1.276427 A    
C103  C107  1.405060 A    
C60   C80   1.393170 A    
C33   H9    1.110127 S    
C93   C97   1.414026 A    
C13   C45   1.545427 S    
C35   C43   1.548104 S    
C157  F17   1.359487 S    
N1    O50   1.301207 A    
C145  F9    1.358442 S    
O8    Zn4   2.002493 S    
C159  F19   1.359487 S    
C180  C182  1.405079 A    
C23   C55   1.193668 T    
C147  C156  1.396435 A    
C176  C180  1.391228 A    
C130  F6    1.359494 S    
C71   N31   1.436267 S    
O33   Zn9   2.004610 S    
C41   F25   1.382552 S    
O3    Zn2   2.004180 S    
C65   C123  1.464667 S    
N27   O101  1.300261 A    
C83   C87   1.194592 T    
O35   Zn11  2.004610 S    
C95   N7    1.438165 S    
C93   N5    1.438162 S    
N5    O58   1.301251 A    
C74   N2    1.437771 S    
O28   Zn7   1.994939 S    
C131  C140  1.394865 A    
C86   C110  1.425200 S    
C91   C95   1.396282 A    
O3    C3    1.280224 A    
N32   O111  1.301139 A    
C33   C37   1.544086 S    
C61   F29   1.358074 S    
C169  C172  1.194741 T    
C14   C30   1.544964 S    
C67   C71   1.416963 A    
O39   Zn11  2.006011 S    
N28   O103  1.300275 A    
O27   C117  1.276455 A    
O44   Zn11  2.003375 S    
N29   O106  1.301221 A    
C1    C97   1.462256 S    
C104  N12   1.436795 S    
C39   C55   1.445139 S    
N21   O89   1.301193 A    
C145  C149  1.391631 A    
C101  N9    1.436789 S    
C63   F31   1.358071 S    
C47   F23   1.382549 S    
C10   C26   1.539753 S    
C11   H7    1.110090 S    
C36   C40   1.544090 S    
N7    O62   1.301252 A    
C140  C142  1.422340 S    
C147  C151  1.391631 A    
O22   Zn6   1.999620 S    
C38   C46   1.531744 S    
C60   H16   1.084136 S    
C131  F7    1.359494 S    
N14   O75   1.301139 A    
C82   C86   1.194596 T    
N17   O82   1.301210 A    
N16   O80   1.301191 A    
O5    Zn3   2.002491 S    
C25   C33   1.540569 S    
C59   C79   1.393168 A    
N30   O107  1.301138 A    
C27   C35   1.540566 S    
Zn12  O48   2.004253 S    
C28   C36   1.540586 S    
C74   C78   1.406633 A    
C103  N11   1.436786 S    
O8    C4    1.280687 A    
C171  C183  1.420934 S    
C58   C78   1.393172 A    
C131  C135  1.397925 A    
N9    O66   1.301144 A    
C113  C153  1.467879 S    
C178  H22   1.082967 S    
O7    C3    1.280687 A    
Zn9   O45   2.004272 S    
N13   O74   1.301193 A    
C7    C19   1.414295 S    
C10   C14   1.559826 S    
C8    C20   1.414291 S    
C62   F30   1.358072 S    
O36   Zn12  2.004630 S    
O23   C117  1.276580 A    
C72   N32   1.436273 S    
N20   O87   1.301211 A    
O24   Zn8   1.999620 S    
O21   C115  1.276570 A    
O34   Zn10  2.004630 S    
C80   C84   1.423895 S    
N6    O60   1.301248 A    
O5    C1    1.280689 A    
C89   C93   1.396283 A    
C130  C134  1.397925 A    
O37   Zn9   2.006011 S    
C96   C100  1.414023 A    
C26   C30   1.528768 S    
C10   C38   1.543232 S    
N24   O96   1.301110 A    
O15   Zn4   1.997203 S    
C77   C81   1.423892 S    
N23   O94   1.301108 A    
C89   F1    1.359774 S    
C105  N13   1.437653 S    
C9    C37   1.543228 S    
C23   C117  1.414906 S    
C39   C47   1.531738 S    
C92   F4    1.359776 S    
C76   C80   1.406630 A    
C161  N21   1.438162 S    
N31   O110  1.301224 A    
C69   C73   1.407407 A    
C170  C171  1.194741 T    
C32   C52   1.445818 S    
C9    H5    1.110091 S    
O14   C6    1.276603 A    
C71   C75   1.407407 A    
O40   C126  1.277603 A    
C10   H6    1.110090 S    
C143  C155  1.421733 S    
N18   O83   1.301213 A    
C43   F27   1.382552 S    
C128  C166  1.462686 S    
C105  C109  1.405275 A    
C40   C48   1.531742 S    
C134  C137  1.415835 A    
C79   C83   1.423887 S    
O19   Zn7   2.004534 S    
C161  C165  1.416974 A    
O42   C124  1.280018 A    
O10   C6    1.276436 A    
C179  C182  1.405078 A    
C89   C109  1.395292 A    
O33   C121  1.276040 A    
C168  C170  1.423385 S    
C85   C109  1.425203 S    
C57   H13   1.084138 S    
C21   C115  1.414912 S    
C59   H15   1.084140 S    
O43   C125  1.280014 A    
C135  C138  1.415835 A    
C76   N4    1.437768 S    
C135  N19   1.438449 S    
C4    C100  1.462243 S    
C68   C126  1.464673 S    
N4    O55   1.301169 A    
C69   N29   1.436269 S    
C59   C63   1.386884 A    
N25   O98   1.300285 A    
C130  C139  1.394863 A    
C174  H18   1.083754 S    
C35   H11   1.110125 S    
C148  F12   1.358434 S    
O41   Zn10  2.003375 S    
C46   F22   1.382548 S    
N3    O53   1.301170 A    
O17   Zn5   2.004534 S    
C152  C154  1.409540 A    
C141  C144  1.194169 T    
C88   C112  1.425200 S    
C162  C165  1.416978 A    
O48   C128  1.278334 A    
O26   C116  1.276478 A    
C133  N17   1.438449 S    
N8    O63   1.301220 A    
C90   C94   1.396284 A    
C164  N24   1.438161 S    
C15   C31   1.544968 S    
C158  C162  1.398108 A    
C21   C53   1.193668 T    
C175  C179  1.391231 A    
O28   C118  1.276481 A    
C176  C184  1.395949 A    
C152  F16   1.358013 S    
O42   Zn9   2.003375 S    
O18   C113  1.281866 A    
N22   O92   1.301109 A    
N12   O72   1.301145 A    
O38   C124  1.277605 A    
C41   C45   1.533586 S    
O25   C115  1.276464 A    
Zn10  O46   2.004253 S    
O35   C122  1.276040 A    
C163  N23   1.438164 S    
N15   O77   1.301140 A    
C149  F13   1.358016 S    
N1    O49   1.301169 A    
O45   C127  1.278333 A    
N10   O68   1.301142 A    
C58   H14   1.084139 S    
O12   Zn2   1.997213 S    
C40   C56   1.445151 S    
C29   C49   1.445821 S    
O1    C1    1.280219 A    
C102  C106  1.405061 A    
C31   C51   1.445821 S    
C18   C50   1.193394 T    
C25   C29   1.528773 S    
C160  C168  1.394615 A    
C92   C112  1.395300 A    
C26   C34   1.540580 S    
O38   Zn10  2.006011 S    
C13   H1    1.110105 S    
C72   C76   1.407403 A    
C160  F20   1.359493 S    
C15   H3    1.110103 S    
N19   O85   1.301211 A    
C44   F28   1.382545 S    
N5    O57   1.301221 A    
C3    C99   1.462259 S    
C34   H10   1.110131 S    
C37   C53   1.445143 S    
C27   N27   1.457141 S    
C70   N30   1.436272 S    
C121  C137  1.459368 S    
N32   O112  1.301220 A    
C14   C46   1.545426 S    
C127  C165  1.462686 S    
C174  C178  1.391238 A    
C6    C18   1.414290 S    
C136  C138  1.415835 A    
C11   C15   1.559829 S    
N28   O104  1.300295 A    
C12   C16   1.559833 S    
C68   C72   1.416966 A    
C22   C54   1.193673 T    
N29   O105  1.301138 A    
O20   C114  1.281867 A    
C101  C105  1.405060 A    
C42   F26   1.382550 S    
C159  C163  1.398108 A    
C104  C108  1.405064 A    
C173  C177  1.391238 A    
C26   N26   1.457144 S    
O6    C2    1.280685 A    
O4    Zn2   2.004172 S    
C99   C103  1.414797 A    
C157  C161  1.398111 A    
C139  C141  1.422340 S    
C173  C183  1.395952 A    
C90   F2    1.359776 S    
N14   O76   1.301191 A    
O2    Zn1   2.004172 S    
O10   Zn1   1.997213 S    
N17   O81   1.301212 A    
O32   C120  1.282534 A    
C159  C168  1.394614 A    
O34   C121  1.276037 A    
C30   C50   1.445817 S    
C28   C32   1.528767 S    
Zn6   O30   2.004905 S    
C129  C139  1.394864 A    
N30   O108  1.301222 A    
O40   Zn12  2.006011 S    
C67   C125  1.464666 S    
C11   C27   1.539739 S    
C107  N15   1.437652 S    
C175  C184  1.395949 A    
C36   H12   1.110134 S    
O13   C5    1.276610 A    
O43   Zn12  2.003375 S    
N8    O64   1.301251 A    
C134  N18   1.438448 S    
N9    O65   1.301162 A    
O12   C8    1.276439 A    
O15   C7    1.276617 A    
C19   C51   1.193395 T    
C108  C112  1.405278 A    
C162  N22   1.438164 S    
C119  C181  1.464387 S    
C90   C110  1.395293 A    
N31   O109  1.301139 A    
N13   O73   1.301138 A    
C107  C111  1.405275 A    
C15   C47   1.545432 S    
N3    O54   1.301208 A    
C95   C99   1.414027 A    
C148  C156  1.396437 A    
N20   O88   1.301210 A    
O26   Zn5   1.994939 S    
C146  C150  1.391631 A    
C173  H17   1.083755 S    
C37   C45   1.531741 S    
O25   Zn6   1.994942 S    
O19   C114  1.281863 A    
C91   F3    1.359775 S    
C81   C85   1.194587 T    
C16   C48   1.545423 S    
C24   C118  1.414918 S    
C64   F32   1.358071 S    
C175  H19   1.083771 S    
N11   O69   1.301160 A    
C25   N25   1.457144 S    
C167  C169  1.423385 S    
C106  N14   1.437651 S    
Zn11  O47   2.004272 S    
C75   N3    1.437771 S    
O41   C123  1.280015 A    
C73   C77   1.406634 A    
C158  C167  1.394616 A    
C12   C40   1.543238 S    
O11   C7    1.276418 A    
N21   O90   1.301107 A    
C114  C154  1.467883 S    
O1    Zn1   2.004180 S    
O9    Zn1   1.997233 S    
C151  F15   1.358011 S    
C92   C96   1.396277 A    
N27   O102  1.300282 A    
C65   C69   1.416965 A    
C35   C39   1.544091 S    
N15   O78   1.301193 A    
C144  C156  1.421733 S    
O16   C8    1.276600 A    
C16   H4    1.110109 S    
N18   O84   1.301209 A    
O11   Zn2   1.997233 S    
C120  C182  1.464387 S    
O29   C119  1.282538 A    
C160  C164  1.398111 A    
C57   C61   1.386890 A    
N26   O100  1.300291 A    
N16   O79   1.301140 A    
C136  N20   1.438447 S    
O6    Zn3   2.002493 S    
C129  C133  1.397925 A    
C145  C155  1.396430 A    
C164  C166  1.416975 A    
C12   H8    1.110083 S    
C44   C48   1.533573 S    
N19   O86   1.301208 A    
C78   C82   1.423888 S    
C108  N16   1.437647 S    
O27   Zn8   1.994942 S    
N2    O52   1.301205 A    
C87   C111  1.425198 S    
C146  C155  1.396434 A    
O47   C128  1.278333 A    
N4    O56   1.301210 A    
O2    C2    1.280222 A    
C60   C64   1.386893 A    
N25   O97   1.300262 A    
C70   C74   1.407403 A    
O31   C120  1.282535 A    
C33   C41   1.548106 S    
Zn7   O31   2.004904 S    
C158  F18   1.359490 S    
C14   H2    1.110101 S    
O14   Zn3   1.997226 S    
C2    C98   1.462243 S    
O39   C125  1.277609 A    
C16   C32   1.544961 S    
O37   C123  1.277605 A    
C98   C102  1.414800 A    
C17   C49   1.193392 T    
C172  C184  1.420926 S    
C13   C29   1.544968 S    
C150  C153  1.409539 A    
C176  H20   1.083771 S    
N6    O59   1.301218 A    
C20   C52   1.193392 T    
C150  F14   1.358016 S    
C48   F24   1.382553 S    
C43   C47   1.533588 S    
C142  C143  1.194169 T    
C9    C25   1.539747 S    
O46   C127  1.278334 A    
C96   N8    1.438170 S    
C66   C70   1.416966 A    
C163  C166  1.416970 A    
C66   C124  1.464672 S    
C36   C44   1.548111 S    
N24   O95   1.301194 A    
O44   C126  1.280021 A    
C151  C154  1.409538 A    
O22   C116  1.276559 A    
C149  C153  1.409540 A    
C91   C111  1.395293 A    
C122  C138  1.459368 S    
C75   C79   1.406636 A    
C29   C41   1.533610 S    
C178  C181  1.405081 A    
C102  N10   1.436793 S    
C58   C62   1.386890 A    
C61   C65   1.404564 A    
C84   C88   1.194592 T    
C31   C43   1.533611 S    
C28   N28   1.457150 S    
