data_mof_unit_15162.cif
_audit_creation_date              2012-12-10T18:47:42-0500
_audit_creation_method            fapswitch 2.2
_symmetry_space_group_name_H-M    P1
_symmetry_Int_Tables_number       1
_space_group_crystal_system       triclinic
_cell_length_a                    9.897799
_cell_length_b                    10.703158
_cell_length_c                    15.471421
_cell_angle_alpha                 90.921044
_cell_angle_beta                  67.976256
_cell_angle_gamma                 90.456219
_cell_volume                      1519.20650186

loop_
_atom_site_label
_atom_site_type_symbol
_atom_type_description
_atom_site_fract_x
_atom_site_fract_y
_atom_site_fract_z
_atom_type_partial_charge
C1    C     C_R   0.500180 0.739939 0.500325 0.878415
C2    C     C_R   0.499799 0.260058 0.499709 0.880361
C3    C     C_R   0.369504 0.641168 0.088414 -0.244254
C4    C     C_R   0.683084 0.508795 0.891230 -0.237830
C5    C     C_R   0.269310 0.661317 0.046795 -0.174252
C6    C     C_R   0.784118 0.489357 0.932054 -0.195381
C7    C     C_R   0.632364 0.936463 0.476603 -0.156171
C8    C     C_R   0.367583 0.063523 0.523495 -0.157133
C9    C     C_R   0.632172 0.064445 0.475970 -0.177347
C10   C     C_R   0.367772 0.935537 0.524148 -0.178872
C11   C     C_R   0.499754 0.127520 0.499479 -0.020681
C12   C     C_R   0.500198 0.872467 0.500610 -0.019574
C13   C     C_R   0.959272 0.420096 0.443484 -0.152866
C14   C     C_R   0.040719 0.579872 0.556549 -0.157450
C15   C     C_R   0.102418 0.419555 0.443095 0.228023
C16   C     C_R   0.897648 0.580576 0.556818 0.222691
C17   C     C_R   0.408850 0.501753 0.675920 0.906750
C18   C     C_R   0.591308 0.501126 0.324112 0.914342
C19   C     C_R   0.354413 0.523642 0.776330 -0.098469
C20   C     C_R   0.649526 0.507497 0.222715 -0.102229
C21   C     C_R   0.192924 0.633356 0.914821 0.506587
C22   C     C_R   0.840117 0.466884 0.071446 0.493823
C23   C     C_R   0.224519 0.588194 0.823396 -0.286968
C24   C     C_R   0.792226 0.471163 0.169128 -0.302363
C25   C     C_R   0.449865 0.500085 0.820682 -0.222286
C26   C     C_R   0.557131 0.547269 0.179776 -0.239233
C27   C     C_R   0.429608 0.554353 0.906974 0.024541
C28   C     C_R   0.601305 0.546408 0.082969 0.021279
C29   C     C_R   0.296150 0.616388 0.956656 0.107737
C30   C     C_R   0.743186 0.501761 0.028445 0.122753
C31   C     C_R   0.538637 0.546115 0.945226 0.110262
C32   C     C_R   0.502870 0.578727 0.039924 0.103768
H1    H     H_    0.169455 0.710566 0.086378 0.204235
H2    H     H_    0.892939 0.459658 0.887948 0.200675
H3    H     H_    0.447165 0.571871 0.223754 0.176742
H4    H     H_    0.542838 0.441332 0.784781 0.166400
H5    H     H_    0.863942 0.441204 0.203195 0.156855
H6    H     H_    0.151056 0.607508 0.788076 0.146493
H7    H     H_    0.341889 0.679857 0.157715 0.156597
H8    H     H_    0.722229 0.496994 0.816448 0.169735
H9    H     H_    0.735402 0.887973 0.457546 0.173637
H10   H     H_    0.264550 0.112015 0.542531 0.173631
H11   H     H_    0.735225 0.113637 0.456557 0.163371
H12   H     H_    0.264722 0.886336 0.543571 0.163357
H13   H     H_    0.929792 0.356415 0.398383 0.157440
H14   H     H_    0.070216 0.643572 0.601635 0.156575
N1    N     N_R   0.142780 0.500030 0.500020 -0.107244
N2    N     N_R   0.857220 0.499970 0.499980 -0.106469
O1    O     O_R   0.385370 0.683250 0.500010 -0.630961
O2    O     O_R   0.614630 0.316750 0.499990 -0.629196
O3    O     O_R   0.614700 0.683220 0.500000 -0.595024
O4    O     O_R   0.385300 0.316780 0.500000 -0.595655
O5    O     O_R   0.319830 0.500020 0.632250 -0.619552
O6    O     O_R   0.680170 0.499980 0.367750 -0.619989
O7    O     O_R   0.549160 0.499990 0.632240 -0.589141
O8    O     O_R   0.450840 0.500010 0.367760 -0.591241
Zn1   Zn    Zn3+2 0.346870 0.500020 0.500000 0.973117
Zn2   Zn    Zn3+2 0.653130 0.499980 0.500000 0.974541
O9    O     O_3   0.065403 0.697521 0.962804 -0.772713
H15   H     H_    0.006036 0.700739 0.923564 0.338733
O10   O     O_3   0.977752 0.423836 0.017416 -0.776576
H16   H     H_    0.031372 0.404727 0.058394 0.338203
I1    I     I_    0.245716 0.288408 0.350289 -0.369846
I2    I     I_    0.754954 0.712775 0.648888 -0.384701

loop_
_geom_bond_atom_site_label_1
_geom_bond_atom_site_label_2
_ccdc_geom_bond_type
C21   C29   A    
C13   N2    A    
C19   C23   A    
N2    Zn2   S    
C14   N1    A    
C14   C16   A    
C18   O8    A    
N1    Zn1   S    
C23   H6    S    
C1    O3    A    
C17   O7    A    
C26   C28   A    
C31   C32   A    
C15   N1    A    
C3    C5    A    
C16   N2    A    
C28   C30   A    
C24   H5    S    
C17   O5    A    
C3    H7    S    
O9    H15   S    
C14   H14   S    
O3    Zn2   S    
C22   O10   S    
C13   H13   S    
C9    C11   A    
O10   H16   S    
C1    C12   S    
C2    O4    A    
C8    C11   A    
C2    C11   S    
C10   C12   A    
C8    C10   A    
C17   C19   S    
C8    H10   S    
C16   I2    S    
C21   O9    S    
C5    C29   A    
C13   C15   A    
C2    O2    A    
C3    C32   A    
C19   C25   A    
C22   C24   A    
C7    C12   A    
C9    H11   S    
C4    C31   A    
C27   C29   A    
O4    Zn1   S    
C18   O6    A    
C25   H4    S    
C10   H12   S    
O2    Zn2   S    
C6    H2    S    
C26   H3    S    
C28   C32   A    
O1    Zn1   S    
O8    Zn1   S    
C18   C20   S    
C4    C6    A    
O6    Zn2   S    
O7    Zn2   S    
C7    C9    A    
O5    Zn1   S    
C15   I1    S    
C22   C30   A    
C6    C30   A    
C27   C31   A    
C21   C23   A    
C20   C24   A    
C4    H8    S    
C7    H9    S    
C5    H1    S    
C20   C26   A    
C25   C27   A    
C1    O1    A    
