data_mof_unit_44982.cif
_audit_creation_date              2012-12-11T17:28:19-0500
_audit_creation_method            fapswitch 2.2
_symmetry_space_group_name_H-M    P1
_symmetry_Int_Tables_number       1
_space_group_crystal_system       triclinic
_cell_length_a                    24.255047
_cell_length_b                    24.260514
_cell_length_c                    25.599423
_cell_angle_alpha                 89.648974
_cell_angle_beta                  90.375798
_cell_angle_gamma                 90.212117
_cell_volume                      15063.0143779

loop_
_atom_site_label
_atom_site_type_symbol
_atom_type_description
_atom_site_fract_x
_atom_site_fract_y
_atom_site_fract_z
_atom_type_partial_charge
C1    C     C_R   0.624470 0.440359 0.406063 -0.085719
C2    C     C_R   0.360536 0.426042 0.429356 -0.036105
C3    C     C_R   0.644203 0.294632 0.275324 -0.343450
C4    C     C_R   0.749963 0.691046 0.654853 -0.342230
C5    C     C_R   0.241909 0.310712 0.354382 -0.335137
C6    C     C_R   0.638028 0.299104 0.733103 -0.344494
C7    C     C_R   0.348786 0.702408 0.273536 -0.358211
C8    C     C_R   0.350907 0.610777 0.236512 -0.350595
C9    C     C_R   0.655201 0.392454 0.762166 -0.329625
C10   C     C_R   0.285711 0.239368 0.406033 -0.373659
C11   C     C_R   0.713769 0.757998 0.593142 -0.387680
C12   C     C_R   0.656692 0.386840 0.240460 -0.342150
C13   C     C_R   0.427504 0.637083 0.575936 -0.118237
C14   C     C_R   0.252049 0.677749 0.663497 -0.324896
C15   C     C_R   0.693891 0.753755 0.352815 -0.342259
C16   C     C_R   0.309818 0.249086 0.652730 -0.339915
C17   C     C_R   0.800174 0.854525 0.230254 -0.345325
C18   C     C_R   0.204612 0.158107 0.778385 -0.359429
C19   C     C_R   0.791068 0.259351 0.104383 -0.347061
C20   C     C_R   0.159727 0.782609 0.790886 -0.363130
C21   C     C_R   0.202948 0.139237 0.231818 -0.344334
C22   C     C_R   0.791996 0.853771 0.774226 -0.360142
C23   C     C_R   0.187892 0.747360 0.154061 -0.326579
C24   C     C_R   0.558581 0.375532 0.406292 -0.065847
C25   C     C_R   0.792473 0.262957 0.899659 -0.339591
C26   C     C_R   0.745177 0.191590 0.851370 -0.343884
C27   C     C_R   0.255985 0.783296 0.093981 -0.342169
C28   C     C_R   0.884520 0.848334 0.739830 -0.342452
C29   C     C_R   0.109714 0.154501 0.261445 -0.329460
C30   C     C_R   0.154545 0.872506 0.749315 -0.341681
C31   C     C_R   0.748052 0.185845 0.153908 -0.325801
C32   C     C_R   0.112175 0.157043 0.741815 -0.342692
C33   C     C_R   0.893959 0.842570 0.261266 -0.330140
C34   C     C_R   0.278595 0.327804 0.577166 0.604177
C35   C     C_R   0.361495 0.426105 0.572784 -0.121998
C36   C     C_R   0.724243 0.671290 0.424893 0.609867
C37   C     C_R   0.326771 0.716163 0.588090 0.606289
C38   C     C_R   0.624476 0.315738 0.322210 0.584909
C39   C     C_R   0.709294 0.653364 0.640558 0.548404
C40   C     C_R   0.281460 0.349126 0.370639 0.585219
C41   C     C_R   0.618693 0.318390 0.684858 0.586940
C42   C     C_R   0.369255 0.682390 0.321253 0.589728
C43   C     C_R   0.369532 0.589072 0.284675 0.580630
C44   C     C_R   0.635419 0.412810 0.714355 0.586701
C45   C     C_R   0.325636 0.277420 0.424139 0.613236
C46   C     C_R   0.638921 0.574567 0.428436 -0.114319
C47   C     C_R   0.673125 0.719932 0.576762 0.608277
C48   C     C_R   0.638930 0.409305 0.287968 0.592271
C49   C     C_R   0.294870 0.643948 0.648139 0.574310
C50   C     C_R   0.654253 0.715808 0.369574 0.591113
C51   C     C_R   0.347323 0.289417 0.637784 0.562365
C52   C     C_R   0.819023 0.875654 0.182638 0.587102
C53   C     C_R   0.185061 0.138946 0.826526 0.572389
C54   C     C_R   0.832825 0.223278 0.088389 0.601116
C55   C     C_R   0.143832 0.804953 0.838673 0.583072
C56   C     C_R   0.183259 0.119832 0.183750 0.596189
C57   C     C_R   0.558072 0.375897 0.594440 -0.093537
C58   C     C_R   0.812368 0.872152 0.822612 0.595013
C59   C     C_R   0.151528 0.789274 0.140116 0.563113
C60   C     C_R   0.834069 0.225529 0.913969 0.607072
C61   C     C_R   0.784507 0.152665 0.866998 0.595175
C62   C     C_R   0.219610 0.825568 0.078581 0.612950
C63   C     C_R   0.906338 0.864174 0.788490 0.595444
C64   C     C_R   0.088982 0.135053 0.213810 0.581339
C65   C     C_R   0.141340 0.896356 0.797288 0.606561
C66   C     C_R   0.788861 0.149258 0.138665 0.581795
C67   C     C_R   0.091168 0.140030 0.790294 0.605650
C68   C     C_R   0.441261 0.624672 0.405887 -0.045198
C69   C     C_R   0.913791 0.863883 0.213990 0.590895
C70   C     C_3   0.213965 0.385007 0.537395 -0.310306
C71   C     C_3   0.774885 0.648503 0.499722 -0.221607
C72   C     C_3   0.389090 0.781139 0.560040 -0.280091
C73   C     C_3   0.573149 0.241406 0.350292 -0.262155
C74   C     C_3   0.683264 0.607477 0.713870 -0.186764
C75   C     C_3   0.232233 0.429267 0.361181 -0.320944
C76   C     C_3   0.562835 0.246070 0.660813 -0.247915
C77   C     C_3   0.401450 0.766198 0.352421 -0.255515
C78   C     C_3   0.344154 0.498310 0.270209 -0.172486
C79   C     C_R   0.131389 0.933531 0.913612 -0.037885
C80   C     C_3   0.581531 0.488400 0.719834 -0.289718
C81   C     C_3   0.349062 0.225631 0.498013 -0.230031
C82   C     C_3   0.615846 0.782976 0.535151 -0.327666
C83   C     C_3   0.682894 0.493266 0.286130 -0.241744
C84   C     C_3   0.331678 0.595605 0.715736 -0.260149
C85   C     C_3   0.575314 0.766474 0.359422 -0.289526
C86   C     C_3   0.398565 0.318545 0.706745 -0.283273
C87   C     C_3   0.744925 0.928444 0.157693 -0.244831
C88   C     C_3   0.267146 0.102989 0.857937 -0.267347
C89   C     C_3   0.901848 0.286494 0.073013 -0.222642
C90   C     C_R   0.861696 0.073750 0.072662 -0.124976
C91   C     C_3   0.105525 0.727317 0.876138 -0.256680
C92   C     C_3   0.255854 0.065382 0.159375 -0.290038
C93   C     C_3   0.727773 0.905052 0.851584 -0.273419
C94   C     C_3   0.106663 0.818502 0.212113 -0.189441
C95   C     C_3   0.906574 0.285711 0.924590 -0.258407
C96   C     C_3   0.732172 0.073891 0.859035 -0.290165
C97   C     C_3   0.281531 0.890436 0.049267 -0.293966
C98   C     C_3   0.991753 0.823981 0.783544 -0.236251
C99   C     C_3   0.012574 0.081555 0.219699 -0.286118
C100  C     C_3   0.174239 0.984139 0.787547 -0.244804
C101  C     C_R   0.936951 0.873870 0.907545 -0.080612
C102  C     C_3   0.816114 0.092254 0.204278 -0.288048
C103  C     C_3   0.003425 0.174553 0.787356 -0.242633
C104  C     C_3   0.986728 0.921865 0.220951 -0.308729
C105  C     C_R   0.362805 0.571442 0.575797 -0.075573
C106  C     C_R   0.060117 0.123913 0.094508 -0.103122
C107  C     C_R   0.861317 0.074439 0.927809 -0.083193
C108  C     C_R   0.138540 0.925643 0.072927 -0.155216
C109  C     C_R   0.061033 0.127394 0.908235 -0.082360
C110  C     C_R   0.940810 0.875770 0.094644 -0.092843
C111  C     C_R   0.124669 0.058363 0.094102 -0.098084
C112  C     C_R   0.873555 0.940399 0.907292 -0.062591
C113  C     C_R   0.926964 0.138061 0.073832 -0.079277
C114  C     C_R   0.066658 0.868235 0.914256 -0.076031
C115  C     C_R   0.876005 0.941177 0.094202 -0.097890
C116  C     C_R   0.424608 0.361184 0.428621 -0.138878
C117  C     C_R   0.127474 0.063857 0.909039 -0.056353
C118  C     C_R   0.073294 0.861346 0.073024 -0.047168
C119  C     C_R   0.926772 0.138385 0.926186 -0.086076
C120  C     C_R   0.256463 0.249093 0.632349 0.050374
C121  C     C_R   0.748255 0.749941 0.370131 0.062053
C122  C     C_R   0.247145 0.730691 0.642799 0.045273
C123  C     C_R   0.660004 0.329851 0.234948 0.054405
C124  C     C_R   0.750937 0.743565 0.632684 0.051955
C125  C     C_R   0.244695 0.256147 0.371081 0.061092
C126  C     C_R   0.656771 0.335738 0.771035 0.040852
C127  C     C_R   0.573752 0.638223 0.573513 -0.144755
C128  C     C_R   0.339691 0.666881 0.231766 0.068568
C129  C     C_R   0.837290 0.837658 0.268954 0.041828
C130  C     C_R   0.168487 0.166468 0.736467 0.053316
C131  C     C_R   0.749659 0.240647 0.137439 0.044910
C132  C     C_R   0.164243 0.816208 0.746684 0.045881
C133  C     C_R   0.166518 0.156916 0.270069 0.037818
C134  C     C_R   0.827813 0.842304 0.733375 0.064238
C135  C     C_R   0.240246 0.745267 0.132185 0.046466
C136  C     C_R   0.749164 0.246081 0.867740 0.048086
C137  C     C_1   0.217030 0.216399 0.659292 0.003384
C138  C     C_R   0.376124 0.559058 0.405056 -0.097138
C139  C     C_1   0.788179 0.782285 0.342972 0.005148
C140  C     C_1   0.212349 0.767226 0.669873 0.000509
C141  C     C_1   0.687933 0.305630 0.192283 0.005832
C142  C     C_1   0.782828 0.784244 0.659048 0.002706
C143  C     C_1   0.212525 0.216564 0.343177 0.002630
C144  C     C_1   0.686572 0.312544 0.813780 0.009242
C145  C     C_1   0.309978 0.688288 0.188059 0.002945
C146  C     C_1   0.814967 0.808615 0.312578 0.008965
C147  C     C_1   0.190594 0.191578 0.690867 0.003484
C148  C     C_1   0.714752 0.278609 0.163127 0.004395
C149  C     C_R   0.623898 0.440635 0.594928 -0.095232
C150  C     C_1   0.187428 0.792753 0.701422 0.006850
C151  C     C_1   0.188997 0.187050 0.312955 0.007254
C152  C     C_1   0.805849 0.813786 0.689440 0.000860
C153  C     C_1   0.280150 0.711862 0.158099 0.001342
C154  C     C_1   0.714311 0.285351 0.842727 0.006455
C155  C     C_R   0.331802 0.329130 0.600182 -0.230273
C156  C     C_R   0.670129 0.672489 0.403430 -0.202114
C157  C     C_R   0.332065 0.662723 0.609868 -0.258864
C158  C     C_R   0.622960 0.373385 0.328910 -0.240752
C159  C     C_R   0.670664 0.667697 0.601548 -0.237588
C160  C     C_R   0.574683 0.639331 0.429529 -0.045554
C161  C     C_R   0.325447 0.331704 0.403242 -0.196329
C162  C     C_R   0.619733 0.375596 0.674525 -0.242833
C163  C     C_R   0.378013 0.625318 0.326965 -0.231556
C164  C     C_R   0.876253 0.878022 0.173561 -0.246829
C165  C     C_R   0.128007 0.130713 0.832464 -0.255748
C166  C     C_R   0.831150 0.167420 0.104927 -0.250178
C167  C     C_R   0.135717 0.862148 0.841849 -0.262151
C168  C     C_R   0.125904 0.120010 0.173789 -0.251010
C169  C     C_R   0.869945 0.876152 0.829774 -0.237987
C170  C     C_R   0.167039 0.828473 0.102029 -0.254471
C171  C     C_R   0.425861 0.361122 0.571789 -0.081369
C172  C     C_R   0.829961 0.169760 0.897751 -0.259122
C173  C     C_R   0.603373 0.395525 0.378612 0.174287
C174  C     C_R   0.374088 0.624691 0.591440 0.156620
C175  C     C_R   0.369589 0.371671 0.416453 0.168841
C176  C     C_R   0.628109 0.627423 0.587044 0.164316
C177  C     C_R   0.397119 0.603985 0.377529 0.186096
C178  C     C_R   0.602418 0.396032 0.622844 0.151565
C179  C     C_R   0.629092 0.629543 0.416648 0.176475
C180  C     C_R   0.371979 0.371553 0.585438 0.163493
C181  C     C_R   0.114407 0.885317 0.889968 0.199886
C182  C     C_R   0.638601 0.573624 0.572996 -0.035006
C183  C     C_R   0.872750 0.127486 0.087545 0.153726
C184  C     C_R   0.891911 0.894963 0.880218 0.179406
C185  C     C_R   0.104977 0.102613 0.122288 0.159048
C186  C     C_R   0.872073 0.128588 0.913095 0.169472
C187  C     C_R   0.127408 0.871443 0.086912 0.161947
C188  C     C_R   0.107205 0.109337 0.882117 0.190860
C189  C     C_R   0.896398 0.896669 0.122375 0.155966
C190  C     C_R   0.240768 0.287169 0.594090 -0.384549
C191  C     C_R   0.763678 0.709522 0.406160 -0.368918
C192  C     C_R   0.283553 0.750003 0.604931 -0.345653
H1    H     H_    0.659719 0.465429 0.395950 0.113272
H2    H     H_    0.320752 0.445259 0.433966 0.116857
H3    H     H_    0.578482 0.783103 0.509918 0.163324
H4    H     H_    0.692074 0.497856 0.243886 0.147733
H5    H     H_    0.717618 0.472413 0.306929 0.115373
H6    H     H_    0.679509 0.535337 0.302537 0.177464
H7    H     H_    0.311474 0.621951 0.745422 0.138353
H8    H     H_    0.373864 0.611342 0.707155 0.130420
H9    H     H_    0.336081 0.553717 0.732834 0.171702
H10   H     H_    0.589335 0.799850 0.332711 0.149760
H11   H     H_    0.581295 0.778803 0.400969 0.127383
H12   H     H_    0.530419 0.760992 0.353065 0.164415
H13   H     H_    0.447512 0.676957 0.576392 0.123645
H14   H     H_    0.371509 0.297787 0.735848 0.146663
H15   H     H_    0.385237 0.361962 0.700408 0.141480
H16   H     H_    0.440914 0.319696 0.723343 0.163481
H17   H     H_    0.765891 0.963155 0.178206 0.136915
H18   H     H_    0.711703 0.910727 0.182341 0.141323
H19   H     H_    0.725084 0.945877 0.122128 0.179009
H20   H     H_    0.299092 0.130097 0.840348 0.150498
H21   H     H_    0.258088 0.067274 0.832084 0.109250
H22   H     H_    0.284537 0.086162 0.894882 0.172765
H23   H     H_    0.912176 0.281849 0.115308 0.111213
H24   H     H_    0.531787 0.341732 0.395781 0.115578
H25   H     H_    0.878668 0.325192 0.065735 0.140795
H26   H     H_    0.941383 0.290050 0.051698 0.162004
H27   H     H_    0.127428 0.693535 0.855958 0.147748
H28   H     H_    0.067111 0.738601 0.854524 0.105908
H29   H     H_    0.092938 0.711317 0.914968 0.174138
H30   H     H_    0.234055 0.031021 0.179806 0.114222
H31   H     H_    0.289775 0.081838 0.184167 0.152357
H32   H     H_    0.274898 0.047815 0.123915 0.170962
H33   H     H_    0.697365 0.873178 0.839506 0.152514
H34   H     H_    0.732506 0.937009 0.820487 0.128638
H35   H     H_    0.321737 0.446104 0.571921 0.135103
H36   H     H_    0.710987 0.925817 0.886504 0.166431
H37   H     H_    0.120442 0.861949 0.206518 0.113158
H38   H     H_    0.135692 0.796180 0.238555 0.113476
H39   H     H_    0.066093 0.819223 0.231755 0.210595
H40   H     H_    0.885186 0.325565 0.930409 0.147296
H41   H     H_    0.915099 0.278944 0.882373 0.108624
H42   H     H_    0.947006 0.288573 0.944911 0.160586
H43   H     H_    0.700070 0.085700 0.829985 0.152190
H44   H     H_    0.718101 0.082845 0.899476 0.125254
H45   H     H_    0.737703 0.028715 0.856506 0.167377
H46   H     H_    0.678534 0.554381 0.429594 0.141232
H47   H     H_    0.318390 0.864893 0.041309 0.154635
H48   H     H_    0.282477 0.905893 0.090191 0.114872
H49   H     H_    0.283601 0.926977 0.023080 0.171915
H50   H     H_    0.997498 0.820010 0.740745 0.150192
H51   H     H_    0.971761 0.786326 0.800038 0.104507
H52   H     H_    0.033287 0.826940 0.801385 0.163556
H53   H     H_    0.019661 0.072919 0.261967 0.138807
H54   H     H_    0.031335 0.048640 0.195537 0.133835
H55   H     H_    0.967436 0.080454 0.212487 0.169059
H56   H     H_    0.183389 0.982746 0.745132 0.141124
H57   H     H_    0.530669 0.342735 0.605281 0.136300
H58   H     H_    0.211100 0.971958 0.811042 0.106897
H59   H     H_    0.164884 0.027521 0.796916 0.169855
H60   H     H_    0.796437 0.117875 0.234832 0.148808
H61   H     H_    0.860054 0.104522 0.199297 0.143333
H62   H     H_    0.815571 0.048857 0.218159 0.161758
H63   H     H_    0.999526 0.184045 0.745001 0.146091
H64   H     H_    0.019852 0.210951 0.808876 0.105630
H65   H     H_    0.961340 0.166285 0.802304 0.177828
H66   H     H_    0.979413 0.929372 0.263190 0.138764
H67   H     H_    0.965722 0.953888 0.196748 0.139699
H68   H     H_    0.467466 0.659080 0.395476 0.116418
H69   H     H_    0.031645 0.926023 0.214011 0.170530
H70   H     H_    0.169954 0.954554 0.907183 0.083424
H71   H     H_    0.821310 0.054987 0.069469 0.135169
H72   H     H_    0.958547 0.836554 0.898412 0.097512
H73   H     H_    0.322856 0.551481 0.574797 0.121200
H74   H     H_    0.035120 0.158708 0.105221 0.132510
H75   H     H_    0.821000 0.055882 0.931927 0.114002
H76   H     H_    0.178704 0.944940 0.071392 0.132064
H77   H     H_    0.036147 0.162865 0.898741 0.096903
H78   H     H_    0.966252 0.841056 0.105482 0.147897
H79   H     H_    0.158104 0.031353 0.104850 0.120712
H80   H     H_    0.839344 0.966807 0.897042 0.128292
H81   H     H_    0.947707 0.177461 0.073763 0.137174
H82   H     H_    0.045371 0.829773 0.908149 0.100044
H83   H     H_    0.842560 0.967885 0.104981 0.135434
H84   H     H_    0.444205 0.321291 0.430037 0.149182
H85   H     H_    0.164664 0.041856 0.900309 0.108785
H86   H     H_    0.053995 0.821198 0.070225 0.117241
H87   H     H_    0.947877 0.177531 0.926223 0.132269
H88   H     H_    0.199372 0.285172 0.578195 0.153920
H89   H     H_    0.806559 0.706642 0.417785 0.148701
H90   H     H_    0.278651 0.791255 0.589251 0.150937
H91   H     H_    0.649822 0.250578 0.271186 0.149900
H92   H     H_    0.778902 0.680244 0.685699 0.160374
H93   H     H_    0.211224 0.322528 0.325500 0.154064
H94   H     H_    0.641960 0.255125 0.739791 0.152327
H95   H     H_    0.553983 0.678096 0.572538 0.127344
H96   H     H_    0.337334 0.745362 0.269565 0.147729
H97   H     H_    0.344146 0.584349 0.203167 0.149331
H98   H     H_    0.670659 0.420738 0.791453 0.157957
H99   H     H_    0.287977 0.196265 0.416986 0.147885
H100  H     H_    0.716364 0.798716 0.575827 0.155409
H101  H     H_    0.668794 0.413448 0.208390 0.151966
H102  H     H_    0.224275 0.663519 0.693816 0.156401
H103  H     H_    0.683050 0.784165 0.323330 0.150360
H104  H     H_    0.321605 0.219512 0.682702 0.155893
H105  H     H_    0.756353 0.848378 0.236081 0.152579
H106  H     H_    0.341623 0.533278 0.393954 0.115131
H107  H     H_    0.247854 0.168314 0.773888 0.149828
H108  H     H_    0.791290 0.302079 0.091919 0.151034
H109  H     H_    0.170152 0.739319 0.788370 0.152728
H110  H     H_    0.246929 0.143935 0.238140 0.155122
H111  H     H_    0.748383 0.845683 0.768888 0.147508
H112  H     H_    0.176224 0.718250 0.184394 0.160235
H113  H     H_    0.794642 0.305489 0.912104 0.151194
H114  H     H_    0.712794 0.179968 0.824180 0.150927
H115  H     H_    0.296679 0.780563 0.077096 0.152516
H116  H     H_    0.911559 0.839256 0.707543 0.151538
H117  H     H_    0.658605 0.466179 0.605840 0.150716
H118  H     H_    0.081527 0.169381 0.290802 0.161472
H119  H     H_    0.157809 0.897668 0.714375 0.153750
H120  H     H_    0.716418 0.171870 0.180705 0.156691
H121  H     H_    0.084856 0.163365 0.708710 0.153548
H122  H     H_    0.922685 0.828890 0.291191 0.158318
H123  H     H_    0.202382 0.397017 0.577801 0.142536
H124  H     H_    0.183370 0.355828 0.520566 0.157089
H125  H     H_    0.212913 0.422940 0.512993 0.165670
H126  H     H_    0.766364 0.691420 0.512413 0.145925
H127  H     H_    0.817986 0.644714 0.485876 0.140108
H128  H     H_    0.556004 0.679389 0.434026 0.116635
H129  H     H_    0.770561 0.621466 0.534570 0.168566
H130  H     H_    0.406604 0.779721 0.600394 0.114025
H131  H     H_    0.362206 0.817734 0.554825 0.148997
H132  H     H_    0.424189 0.786014 0.532805 0.166973
H133  H     H_    0.592126 0.206659 0.328950 0.147472
H134  H     H_    0.538629 0.259617 0.327058 0.123759
H135  H     H_    0.555115 0.224182 0.386632 0.176371
H136  H     H_    0.640106 0.622580 0.710268 0.111338
H137  H     H_    0.707760 0.635054 0.739786 0.116349
H138  H     H_    0.682030 0.566372 0.732963 0.206895
H139  H     H_    0.444359 0.320818 0.568271 0.129190
H140  H     H_    0.219503 0.422755 0.402543 0.142092
H141  H     H_    0.198709 0.416572 0.334019 0.159628
H142  H     H_    0.238797 0.474190 0.355644 0.166308
H143  H     H_    0.529024 0.268422 0.680885 0.140864
H144  H     H_    0.578838 0.212199 0.685958 0.141833
H145  H     H_    0.544646 0.226912 0.625408 0.179647
H146  H     H_    0.371018 0.797082 0.338356 0.147389
H147  H     H_    0.434960 0.760996 0.323314 0.119453
H148  H     H_    0.420671 0.782682 0.388563 0.165781
H149  H     H_    0.348483 0.494275 0.227257 0.130554
H150  H     H_    0.678890 0.554958 0.570097 0.119958
H151  H     H_    0.301618 0.511296 0.280609 0.120331
H152  H     H_    0.350872 0.456776 0.287326 0.213437
H153  H     H_    0.574031 0.482510 0.762356 0.137162
H154  H     H_    0.548299 0.468176 0.696543 0.141811
H155  H     H_    0.579521 0.533215 0.711297 0.172372
H156  H     H_    0.350845 0.182474 0.483952 0.138311
H157  H     H_    0.306910 0.235618 0.511945 0.146844
H158  H     H_    0.377347 0.228871 0.532094 0.168256
H159  H     H_    0.644836 0.814017 0.518791 0.159729
H160  H     H_    0.602614 0.794645 0.575189 0.134237
N1    N     N_R   0.592620 0.447430 0.448130 -0.056452
N2    N     N_R   0.407380 0.447430 0.448130 -0.056392
N3    N     N_R   0.447430 0.592620 0.551870 -0.053234
N4    N     N_R   0.552570 0.407380 0.448130 -0.055478
N5    N     N_R   0.407380 0.447430 0.551870 -0.057057
N6    N     N_R   0.592620 0.552570 0.448130 -0.051926
N7    N     N_R   0.552570 0.407380 0.551870 -0.055951
N8    N     N_R   0.447430 0.592620 0.448130 -0.055936
N9    N     N_R   0.092620 0.947430 0.948130 -0.052790
N10   N     N_R   0.907380 0.052570 0.051870 -0.062033
N11   N     N_R   0.947430 0.907380 0.948130 -0.055114
N12   N     N_R   0.407380 0.552570 0.551870 -0.061217
N13   N     N_R   0.052570 0.092620 0.051870 -0.059776
N14   N     N_R   0.907380 0.052570 0.948130 -0.056292
N15   N     N_R   0.092620 0.947430 0.051870 -0.055236
N16   N     N_R   0.052570 0.092620 0.948130 -0.055733
N17   N     N_R   0.947430 0.907380 0.051870 -0.061224
N18   N     N_R   0.092620 0.052570 0.051870 -0.055170
N19   N     N_R   0.907380 0.947430 0.948130 -0.057689
N20   N     N_R   0.947430 0.092620 0.051870 -0.057845
N21   N     N_R   0.052570 0.907380 0.948130 -0.055343
N22   N     N_R   0.907380 0.947430 0.051870 -0.055460
N23   N     N_R   0.447430 0.407380 0.448130 -0.053264
N24   N     N_R   0.092620 0.052570 0.948130 -0.056468
N25   N     N_R   0.052570 0.907380 0.051870 -0.063033
N26   N     N_R   0.947430 0.092620 0.948130 -0.048625
N27   N     N_R   0.552570 0.592620 0.551870 -0.055089
N28   N     N_R   0.407380 0.552570 0.448130 -0.056996
N29   N     N_R   0.592620 0.447430 0.551870 -0.061030
N30   N     N_R   0.552570 0.592620 0.448130 -0.060861
N31   N     N_R   0.447430 0.407380 0.551870 -0.062757
N32   N     N_R   0.592620 0.552570 0.551870 -0.063841
Ni1   Ni    Ni4+2 0.591800 0.500000 0.500000 0.222805
Ni2   Ni    Ni4+2 0.408200 0.500000 0.500000 0.214862
Ni3   Ni    Ni4+2 0.500000 0.408200 0.500000 0.227824
Ni4   Ni    Ni4+2 0.500000 0.591800 0.500000 0.225372
Ni5   Ni    Ni4+2 0.091800 0.000000 0.000000 0.231428
Ni6   Ni    Ni4+2 0.908200 0.000000 0.000000 0.216885
Ni7   Ni    Ni4+2 0.000000 0.908200 0.000000 0.219074
Ni8   Ni    Ni4+2 1.000000 0.091800 0.000000 0.225384
O1    O     O_3   0.267515 0.362688 0.535039 -0.618448
O2    O     O_3   0.634167 0.469073 0.705963 -0.610035
O3    O     O_3   0.367539 0.262325 0.458782 -0.634935
O4    O     O_3   0.639274 0.729866 0.533653 -0.612543
O5    O     O_3   0.632157 0.465717 0.293581 -0.599278
O6    O     O_3   0.299395 0.591837 0.669897 -0.615304
O7    O     O_3   0.601720 0.716266 0.347847 -0.605958
O8    O     O_3   0.399729 0.289182 0.659418 -0.627439
O9    O     O_3   0.782302 0.887205 0.142273 -0.605995
O10   O     O_3   0.219493 0.133582 0.869913 -0.603873
O11   O     O_3   0.872563 0.240628 0.053258 -0.570157
O12   O     O_3   0.737630 0.630095 0.460908 -0.635798
O13   O     O_3   0.140873 0.772983 0.883785 -0.595913
O14   O     O_3   0.219573 0.107893 0.143737 -0.599311
O15   O     O_3   0.778349 0.880185 0.865573 -0.609802
O16   O     O_3   0.100489 0.791588 0.163745 -0.606077
O17   O     O_3   0.876364 0.241810 0.947095 -0.568131
O18   O     O_3   0.782987 0.099536 0.847204 -0.602849
O19   O     O_3   0.232601 0.861092 0.037769 -0.597990
O20   O     O_3   0.962553 0.872514 0.795390 -0.589597
O21   O     O_3   0.032616 0.134181 0.205637 -0.613437
O22   O     O_3   0.127734 0.951683 0.800033 -0.584589
O23   O     O_3   0.360467 0.732266 0.547128 -0.592921
O24   O     O_3   0.786714 0.095441 0.156663 -0.625068
O25   O     O_3   0.035773 0.127029 0.795757 -0.588132
O26   O     O_3   0.970012 0.868255 0.206711 -0.606938
O27   O     O_3   0.613373 0.281025 0.364220 -0.606655
O28   O     O_3   0.707749 0.602040 0.664360 -0.607469
O29   O     O_3   0.281860 0.401859 0.349385 -0.632998
O30   O     O_3   0.605930 0.281716 0.645131 -0.606522
O31   O     O_3   0.374693 0.716050 0.364851 -0.598873
O32   O     O_3   0.384764 0.534156 0.290575 -0.611012

loop_
_geom_bond_atom_site_label_1
_geom_bond_atom_site_label_2
_ccdc_geom_bond_type
C72   H132  S    
C29   C133  A    
C13   N3    A    
C36   C191  A    
C132  C150  S    
C96   H45   S    
C67   O25   S    
C133  C151  S    
N9    N21   A    
C41   O30   S    
N2    N23   A    
C112  C184  A    
C34   C155  A    
C176  C182  A    
C36   C156  A    
C40   O29   S    
C190  H88   S    
C35   H35   S    
C38   O27   S    
C99   O21   S    
C71   H126  S    
C119  H87   S    
C57   C178  A    
C128  C145  S    
C93   O15   S    
C56   O14   S    
C12   H101  S    
C103  H63   S    
C58   O15   S    
C7    C42   A    
C78   H152  S    
C89   O11   S    
C45   C161  A    
C109  H77   S    
C82   H159  S    
C74   H138  S    
C68   N8    A    
C35   N5    A    
C170  C187  S    
C69   C164  A    
C25   C60   A    
C111  H79   S    
C7    C128  A    
C83   H5    S    
C10   C125  A    
C98   H52   S    
C33   C69   A    
C37   O23   S    
C143  C151  T    
C29   C64   A    
C41   C162  A    
C19   C131  A    
C103  H64   S    
C70   H123  S    
C20   C132  A    
C80   O2    S    
C17   C52   A    
C21   C133  A    
C3    C123  A    
C48   O5    S    
C111  N18   A    
C117  H85   S    
C79   N9    A    
C62   C170  A    
C25   H113  S    
C114  N21   A    
C100  O22   S    
C92   H32   S    
C95   H40   S    
C191  H89   S    
C70   O1    S    
C118  H86   S    
C48   C158  A    
C104  H67   S    
C1    H1    S    
C52   O9    S    
C123  C141  S    
N2    Ni2   S    
C51   O8    S    
C99   H54   S    
N11   N19   A    
C82   H3    S    
C72   O23   S    
C85   H10   S    
C11   H100  S    
C63   O20   S    
C127  N27   A    
C171  H139  S    
C87   H18   S    
C18   C130  A    
C29   H118  S    
C77   H147  S    
C57   H57   S    
C155  C180  S    
N16   N24   A    
C171  N31   A    
C80   H153  S    
C182  H150  S    
C182  N32   A    
C46   C179  A    
C86   H15   S    
C22   C58   A    
C114  C181  A    
C102  H61   S    
C119  C186  A    
N1    Ni1   S    
N14   N26   A    
C92   O14   S    
N27   N32   A    
N18   Ni5   S    
C144  C154  T    
C57   N7    A    
C98   H50   S    
C26   C136  A    
N17   N22   A    
C115  C189  A    
C28   C63   A    
C93   H33   S    
C90   C183  A    
C90   N10   A    
C88   H20   S    
C109  N16   A    
C1    N1    A    
C79   H70   S    
C118  N25   A    
C73   H133  S    
N15   N25   A    
C11   C124  A    
N6    Ni1   S    
N4    Ni3   S    
C47   C159  A    
C42   O31   S    
C23   C59   A    
C110  N17   A    
C51   C155  A    
C21   H110  S    
C16   C120  A    
C105  H73   S    
C68   C177  A    
C50   O7    S    
C4    C124  A    
C116  H84   S    
C119  N26   A    
C37   C157  A    
C108  H76   S    
C31   C131  A    
C87   O9    S    
C85   H12   S    
C71   H127  S    
C8    C128  A    
C76   H145  S    
C7    H96   S    
C138  H106  S    
C30   H119  S    
C34   O1    S    
C157  C174  S    
C67   C165  A    
C80   H155  S    
N13   Ni8   S    
C28   H116  S    
C56   C168  A    
N31   Ni3   S    
C8    H97   S    
C97   O19   S    
C84   H7    S    
C96   H44   S    
C97   H47   S    
C75   H142  S    
C17   H105  S    
C71   H129  S    
C88   H21   S    
C34   C190  A    
C58   C169  A    
C2    N2    A    
C113  H81   S    
C110  H78   S    
N15   Ni5   S    
C101  N11   A    
C169  C184  S    
C27   C62   A    
C2    C175  A    
C76   H143  S    
C10   C45   A    
C66   O24   S    
N28   Ni2   S    
C104  H66   S    
C43   O32   S    
N25   Ni7   S    
C46   N6    A    
N26   Ni8   S    
C32   C67   A    
C73   H135  S    
C19   C54   A    
C159  C176  S    
C26   H114  S    
C160  N30   A    
C99   H55   S    
C45   O3    S    
C94   H38   S    
N9    Ni5   S    
C60   O17   S    
C116  C175  A    
C130  C147  S    
C87   H19   S    
C36   O12   S    
C117  C188  A    
C121  C191  A    
C118  C187  A    
C122  C192  A    
N19   Ni6   S    
C113  N20   A    
C27   C135  A    
C121  C139  S    
C71   O12   S    
C122  C140  S    
C24   H24   S    
C113  C183  A    
C12   C123  A    
C125  C143  S    
C30   C132  A    
C126  C144  S    
C149  C178  A    
C4    H92   S    
C96   H43   S    
C5    H93   S    
C105  N12   A    
C162  C178  S    
C30   C65   A    
C82   H160  S    
C149  N29   A    
C37   C192  A    
N17   Ni7   S    
C101  H72   S    
C102  O24   S    
C18   H107  S    
C138  C177  A    
C94   O16   S    
C95   O17   S    
C84   H9    S    
C75   H140  S    
C139  C146  T    
C14   C122  A    
N27   Ni4   S    
C81   H157  S    
C11   C47   A    
C8    C43   A    
C84   O6    S    
C12   C48   A    
C100  H59   S    
C75   O29   S    
N3    N12   A    
C107  C186  A    
C160  H128  S    
C16   H104  S    
C28   C134  A    
C26   C61   A    
N16   Ni8   S    
C9    H98   S    
C19   H108  S    
N24   Ni5   S    
C142  C152  T    
C91   H28   S    
C23   H112  S    
C18   C53   A    
C89   H26   S    
C24   N4    A    
C163  C177  S    
C16   C51   A    
C95   H42   S    
C99   H53   S    
N12   Ni2   S    
C116  N23   A    
N5    Ni2   S    
C72   H131  S    
C49   O6    S    
C87   H17   S    
C86   H14   S    
C44   C162  A    
C77   H146  S    
C54   C166  A    
C24   C173  A    
C53   O10   S    
C74   H136  S    
C80   H154  S    
C13   C174  A    
C106  H74   S    
C165  C188  S    
C6    C126  A    
C86   H16   S    
C88   O10   S    
C112  N19   A    
C79   C181  A    
C54   O11   S    
C2    H2    S    
C78   H151  S    
C100  H56   S    
C74   H137  S    
C127  H95   S    
C136  C154  S    
C158  C173  S    
C1    C173  A    
C83   H6    S    
C76   O30   S    
C38   C158  A    
C98   H51   S    
C52   C164  A    
C53   C165  A    
C104  O26   S    
C13   H13   S    
C104  H69   S    
N21   Ni7   S    
C192  H90   S    
C55   C167  A    
N1    N4    A    
C114  H82   S    
C68   H68   S    
C33   C129  A    
C82   O4    S    
C39   C159  A    
C137  C147  T    
C92   H31   S    
C96   O18   S    
C166  C183  S    
C106  C185  A    
C64   O21   S    
C21   C56   A    
C10   H99   S    
N8    N28   A    
C65   C167  A    
C110  C189  A    
C100  H58   S    
C20   H109  S    
C23   C135  A    
C22   H111  S    
C40   C161  A    
C64   C168  A    
C81   H158  S    
C32   H121  S    
C156  C179  S    
C27   H115  S    
C98   O20   S    
C85   H11   S    
C97   H49   S    
N29   Ni1   S    
N10   Ni6   S    
C69   O26   S    
C5    C40   A    
C91   O13   S    
C120  C137  S    
C77   H148  S    
C102  H62   S    
C106  N13   A    
C43   C163  A    
C31   C66   A    
C14   H102  S    
C108  C187  A    
C115  N22   A    
N32   Ni1   S    
C112  H80   S    
C32   C130  A    
C84   H8    S    
C149  H117  S    
C75   H141  S    
C15   H103  S    
C88   H22   S    
N3    Ni4   S    
C22   C134  A    
C102  H60   S    
C78   H149  S    
C6    H94   S    
C127  C176  A    
C120  C190  A    
C161  C175  S    
C107  N14   A    
C63   C169  A    
C14   C49   A    
C81   O3    S    
C15   C50   A    
C83   H4    S    
C25   C136  A    
N11   Ni7   S    
C141  C148  T    
C93   H34   S    
C76   H144  S    
C3    C38   A    
C172  C186  S    
C65   O22   S    
C6    C41   A    
C44   O2    S    
C91   H29   S    
C59   C170  A    
C78   O32   S    
N22   Ni6   S    
C108  N15   A    
C89   H23   S    
C145  C153  T    
C73   H134  S    
C3    H91   S    
C134  C152  S    
C73   O27   S    
C74   O28   S    
C103  H65   S    
C124  C142  S    
C20   C55   A    
C94   H39   S    
C138  N28   A    
C109  C188  A    
C72   H130  S    
C111  C185  A    
C103  O25   S    
C66   C166  A    
C17   C129  A    
C60   C172  A    
C49   C157  A    
C50   C156  A    
C42   C163  A    
C39   O28   S    
N10   N20   A    
C160  C179  A    
C33   H122  S    
N23   Ni3   S    
C4    C39   A    
N30   Ni4   S    
C70   H124  S    
C61   O18   S    
C85   O7    S    
C129  C146  S    
C86   O8    S    
C131  C148  S    
C61   C172  A    
C59   O16   S    
C90   H71   S    
C101  C184  A    
N13   N18   A    
C105  C174  A    
C107  H75   S    
C171  C180  A    
N14   Ni6   S    
C77   O31   S    
C5    C125  A    
C164  C189  S    
C140  C150  T    
C62   O19   S    
C35   C180  A    
C97   H48   S    
C9    C44   A    
C168  C185  S    
C15   C121  A    
C81   H156  S    
C70   H125  S    
N6    N30   A    
C47   O4    S    
N20   Ni8   S    
C31   H120  S    
C9    C126  A    
C135  C153  S    
C92   H30   S    
C93   H36   S    
C167  C181  S    
N5    N31   A    
C55   O13   S    
C46   H46   S    
C91   H27   S    
N7    N29   A    
C89   H25   S    
C115  H83   S    
N8    Ni4   S    
C117  N24   A    
C83   O5    S    
C95   H41   S    
N7    Ni3   S    
C94   H37   S    
