data_mof_unit_9378.cif
_audit_creation_date              2012-12-10T17:43:36-0500
_audit_creation_method            fapswitch 2.2
_symmetry_space_group_name_H-M    P1
_symmetry_Int_Tables_number       1
_space_group_crystal_system       triclinic
_cell_length_a                    14.860387
_cell_length_b                    11.058874
_cell_length_c                    10.110912
_cell_angle_alpha                 87.393907
_cell_angle_beta                  90.256912
_cell_angle_gamma                 94.467573
_cell_volume                      1654.85589579

loop_
_atom_site_label
_atom_site_type_symbol
_atom_type_description
_atom_site_fract_x
_atom_site_fract_y
_atom_site_fract_z
_atom_type_partial_charge
C1    C     C_R   0.503837 0.261127 0.503614 0.919317
C2    C     C_R   0.912827 0.611783 0.547903 0.094253
C3    C     C_R   0.945461 0.297018 0.442193 0.174055
C4    C     C_R   0.038650 0.293634 0.457923 0.118920
C5    C     C_R   0.089833 0.399759 0.493389 0.047068
C6    C     C_R   0.048559 0.507991 0.516438 -0.013741
C7    C     C_R   0.101344 0.617631 0.540327 0.017894
C8    C     C_R   0.059930 0.712726 0.600281 0.164545
C9    C     C_R   0.964922 0.706475 0.609973 0.110550
C10   C     C_R   0.182558 0.402098 0.500028 -0.272236
C11   C     C_R   0.233402 0.511718 0.501042 -0.068406
C12   C     C_R   0.328517 0.506656 0.499596 0.889918
C13   C     C_R   0.194452 0.622089 0.512328 0.119121
C14   C     C_R   0.470330 0.100109 0.755451 0.172342
C15   C     C_R   0.417427 0.019380 0.842260 0.170405
C16   C     C_R   0.423099 0.895954 0.829702 0.149943
C17   C     C_R   0.488938 0.863257 0.745600 0.151304
C18   C     C_R   0.499888 0.930945 0.624320 -0.019235
C19   C     C_R   0.495189 0.057029 0.629698 -0.042373
C20   C     C_R   0.515503 0.130373 0.512085 -0.163848
C21   C     C_R   0.544068 0.075818 0.396832 0.159259
C22   C     C_R   0.531000 0.950046 0.386649 0.159377
C23   C     C_R   0.502917 0.740451 0.498318 0.868924
C24   C     C_R   0.510960 0.875203 0.501284 -0.196701
C25   C     C_R   0.342339 0.412033 0.138854 0.200883
C26   C     C_R   0.259420 0.436098 0.077836 0.157839
C27   C     C_R   0.258377 0.462369 0.940973 0.119260
C28   C     C_R   0.335793 0.442808 0.869290 0.223646
C29   C     C_R   0.421246 0.465714 0.930070 0.021207
C30   C     C_R   0.423116 0.457816 0.073204 0.041644
C31   C     C_R   0.574082 0.538991 0.069118 0.245921
C32   C     C_R   0.577198 0.523358 0.929920 0.153853
C33   C     C_R   0.672571 0.500425 0.500635 0.927085
C34   C     C_R   0.819766 0.614852 0.521010 0.094991
C35   C     C_R   0.769092 0.503982 0.503590 -0.111275
C36   C     C_R   0.810029 0.394779 0.501037 0.104767
C37   C     C_R   0.902972 0.398579 0.484163 -0.013518
C38   C     C_R   0.954855 0.506285 0.515858 -0.066543
H1    H     H_    0.217187 0.320502 0.492254 0.185457
N1    N     N_R   0.499150 0.498800 0.142780 -0.125173
N2    N     N_R   0.499120 0.498720 0.857170 -0.103279
O1    O     O_R   0.500000 0.316780 0.614690 -0.574664
O2    O     O_R   0.499990 0.316750 0.385360 -0.613725
O3    O     O_R   0.367850 0.499980 0.614680 -0.600166
O4    O     O_R   0.367840 0.499960 0.385350 -0.623744
O5    O     O_R   0.500010 0.683250 0.614640 -0.612736
O6    O     O_R   0.500000 0.683220 0.385310 -0.571912
O7    O     O_R   0.632160 0.500040 0.614650 -0.634397
O8    O     O_R   0.632150 0.500020 0.385320 -0.573765
Zn1   Zn    Zn3+2 0.500010 0.500020 0.653130 0.990984
Zn2   Zn    Zn3+2 0.499990 0.499980 0.346870 1.020604
C39   C     C_3   0.774603 0.733048 0.503299 -0.826535
H2    H     H_    0.732068 0.732556 0.413415 0.265174
H3    H     H_    0.730298 0.744808 0.588792 0.211911
H4    H     H_    0.824184 0.812745 0.489159 0.276637
I1    I     I_    0.568318 0.205637 0.863029 -0.245358
I2    I     I_    0.356366 0.070678 0.017391 -0.252933
I3    I     I_    0.352203 0.759818 0.951604 -0.294610
C40   C     C_3   0.573947 0.826619 0.812846 -0.724141
H5    H     H_    0.621344 0.793407 0.741239 0.221402
H6    H     H_    0.608881 0.906378 0.859469 0.258173
H7    H     H_    0.557705 0.755687 0.891380 0.249635
I4    I     I_    0.534961 0.883938 0.191740 -0.233272
I5    I     I_    0.685058 0.645770 0.151947 -0.296291
C41   C     C_3   0.342383 0.296239 0.224830 -0.708173
H8    H     H_    0.332103 0.306838 0.331039 0.232330
H9    H     H_    0.285495 0.231544 0.196736 0.246392
H10   H     H_    0.405224 0.251259 0.209617 0.268975
C42   C     C_3   0.171621 0.417309 0.152397 -0.812597
H11   H     H_    0.182768 0.385086 0.254670 0.250908
H12   H     H_    0.138723 0.503960 0.154010 0.252553
H13   H     H_    0.125805 0.347221 0.106048 0.261755
C43   C     C_3   0.172093 0.486900 0.869177 -0.774340
H14   H     H_    0.141740 0.564919 0.912040 0.257683
H15   H     H_    0.185693 0.510867 0.763615 0.253854
H16   H     H_    0.123323 0.405596 0.875893 0.254668
I6    I     I_    0.305638 0.283336 0.761024 -0.306161
I7    I     I_    0.740204 0.232898 0.583405 -0.284444
C44   C     C_3   0.668963 0.526925 0.866616 -0.711565
H17   H     H_    0.676302 0.440269 0.819249 0.281565
H18   H     H_    0.680772 0.608384 0.799456 0.232011
H19   H     H_    0.725846 0.527810 0.937066 0.226362
I8    I     I_    0.877327 0.168329 0.315897 -0.196911
I9    I     I_    0.101236 0.129448 0.419367 -0.300504
C45   C     C_3   0.250693 0.739125 0.477345 -0.789939
H20   H     H_    0.291569 0.728471 0.387478 0.242994
H21   H     H_    0.207882 0.814516 0.451469 0.276379
H22   H     H_    0.297314 0.763026 0.559923 0.246071
I10   I     I_    0.137615 0.848558 0.709113 -0.303217
C46   C     C_3   0.922060 0.787263 0.705097 -0.780404
H23   H     H_    0.925306 0.882337 0.664014 0.273118
H24   H     H_    0.851566 0.755312 0.730268 0.236479
H25   H     H_    0.957313 0.784424 0.801984 0.262479
I11   I     I_    0.620389 0.178769 0.241703 -0.172014

loop_
_geom_bond_atom_site_label_1
_geom_bond_atom_site_label_2
_ccdc_geom_bond_type
C14   I1    S    
C43   H15   S    
C43   H14   S    
C35   C36   A    
O8    Zn2   S    
C7    C8    A    
C45   H20   S    
C26   C27   A    
C29   C30   A    
C18   C24   A    
C28   C29   A    
C18   C19   A    
C5    C6    A    
C21   I11   S    
O4    Zn2   S    
C33   O8    A    
C15   C16   A    
C31   N1    A    
C34   C35   A    
C42   H12   S    
C22   I4    S    
C1    O2    A    
C19   C20   A    
C8    C9    A    
C40   H7    S    
C23   C24   S    
C6    C38   A    
C39   H4    S    
C2    C34   A    
O7    Zn1   S    
C40   H5    S    
C23   O5    A    
C21   C22   A    
C15   I2    S    
C31   I5    S    
C39   H3    S    
C45   H21   S    
C40   H6    S    
C23   O6    A    
C25   C41   S    
C44   H18   S    
C16   C17   A    
O6    Zn2   S    
C41   H9    S    
C25   C26   A    
C10   H1    S    
C42   H13   S    
C37   C38   A    
C2    C38   A    
C46   H24   S    
C31   C32   A    
C4    I9    S    
C7    C13   A    
C32   N2    A    
C41   H10   S    
C17   C18   A    
C30   N1    A    
C16   I3    S    
C28   I6    S    
C17   C40   S    
O1    Zn1   S    
C3    I8    S    
C43   H16   S    
C22   C24   A    
C3    C4    A    
N2    Zn1   S    
C39   H2    S    
C46   H25   S    
C45   H22   S    
O3    Zn1   S    
C25   C30   A    
C33   O7    A    
C36   C37   A    
C1    C20   S    
C29   N2    A    
C14   C19   A    
C12   O4    A    
C9    C46   S    
C44   H19   S    
C11   C12   S    
C6    C7    A    
N1    Zn2   S    
O5    Zn1   S    
C34   C39   S    
C5    C10   A    
C12   O3    A    
C36   I7    S    
C32   C44   S    
C11   C13   A    
O2    Zn2   S    
C46   H23   S    
C33   C35   S    
C42   H11   S    
C10   C11   A    
C44   H17   S    
C1    O1    A    
C4    C5    A    
C20   C21   A    
C3    C37   A    
C41   H8    S    
C13   C45   S    
C27   C28   A    
C26   C42   S    
C14   C15   A    
C8    I10   S    
C27   C43   S    
C2    C9    A    
