data_mof_unit_14332.cif
_audit_creation_date              2012-12-10T17:35:03-0500
_audit_creation_method            fapswitch 2.2
_symmetry_space_group_name_H-M    P1
_symmetry_Int_Tables_number       1
_space_group_crystal_system       triclinic
_cell_length_a                    12.36527
_cell_length_b                    13.305294
_cell_length_c                    13.882203
_cell_angle_alpha                 105.754773
_cell_angle_beta                  73.731962
_cell_angle_gamma                 116.983809
_cell_volume                      1925.77463579

loop_
_atom_site_label
_atom_site_type_symbol
_atom_type_description
_atom_site_fract_x
_atom_site_fract_y
_atom_site_fract_z
_atom_type_partial_charge
C1    C     C_R   0.144016 0.712826 0.510151 0.805487
C2    C     C_1   0.972709 0.503135 0.791086 -0.126175
C3    C     C_R   0.696209 0.019558 0.592953 -0.179643
C4    C     C_R   0.772527 0.166837 0.491753 -0.073091
C5    C     C_R   0.206320 0.859258 0.410253 -0.183011
C6    C     C_R   0.305335 0.929319 0.347906 0.193687
C7    C     C_R   0.424038 0.973020 0.369220 -0.186313
C8    C     C_R   0.443661 0.961762 0.460753 0.034646
C9    C     C_R   0.341995 0.886067 0.521885 0.040801
C10   C     C_R   0.562030 0.017571 0.490719 0.039746
C11   C     C_R   0.579386 0.978212 0.568527 0.137373
C12   C     C_R   0.983560 0.503388 0.686200 0.824610
C13   C     C_R   0.478646 0.905686 0.628243 -0.240446
C14   C     C_R   0.360036 0.866618 0.610461 -0.027976
C15   C     C_R   0.660789 0.116971 0.454634 -0.067143
C16   C     C_R   0.792864 0.112285 0.553389 -0.203258
C17   C     C_R   0.226062 0.828566 0.490406 -0.126915
C18   C     C_R   0.635183 0.667328 0.668224 -0.290142
C19   C     C_R   0.256323 0.354997 0.359627 0.102571
C20   C     C_R   0.362063 0.331845 0.324276 -0.101021
C21   C     C_R   0.459848 0.389298 0.376560 -0.227183
C22   C     C_R   0.454234 0.469699 0.465217 -0.016709
C23   C     C_R   0.855977 0.286803 0.486854 0.807437
C24   C     C_R   0.347322 0.494789 0.496381 0.265623
C25   C     C_R   0.552017 0.527309 0.522950 -0.018919
C26   C     C_R   0.541357 0.609414 0.610271 0.167804
C27   C     C_R   0.437298 0.633386 0.639147 -0.250152
C28   C     C_R   0.343814 0.579066 0.582311 -0.153638
C29   C     C_R   0.659884 0.505954 0.498979 0.032641
C30   C     C_R   0.738796 0.642803 0.640284 0.085548
C31   C     C_R   0.016438 0.496524 0.313751 0.828829
C32   C     C_1   0.029168 0.498517 0.208909 -0.136823
C33   C     C_2   0.053579 0.505137 0.015742 -0.003445
C34   C     C_2   0.958292 0.499961 0.983471 -0.204256
C35   C     C_1   0.964887 0.502055 0.878980 0.030507
C36   C     C_1   0.040782 0.501305 0.120725 -0.022862
Cu1   Cu    Cu3+1 0.899780 0.525060 0.522890 0.962617
Cu2   Cu    Cu3+1 0.100220 0.474940 0.477110 0.957040
H1    H     H_    0.872624 0.492990 0.036332 0.162470
H2    H     H_    0.811179 0.686727 0.685130 0.136512
H3    H     H_    0.427821 0.694952 0.706718 0.158348
H4    H     H_    0.628210 0.730860 0.734877 0.142666
H5    H     H_    0.675177 0.443825 0.435222 0.146851
H6    H     H_    0.539869 0.370342 0.345315 0.169685
H7    H     H_    0.270467 0.606295 0.608137 0.208387
H8    H     H_    0.879129 0.149617 0.580896 0.157502
H9    H     H_    0.491842 0.886642 0.694206 0.139986
H10   H     H_    0.710434 0.985839 0.649014 0.140715
H11   H     H_    0.117146 0.815696 0.386777 0.159915
H12   H     H_    0.499670 0.008717 0.309950 0.153491
N1    N     N_R   0.748810 0.563010 0.557590 -0.188425
N2    N     N_R   0.250540 0.437620 0.443020 -0.231479
O1    O     O_R   0.025040 0.682470 0.528790 -0.582479
O2    O     O_R   0.194310 0.640150 0.490130 -0.590758
O3    O     O_R   0.903380 0.524130 0.659910 -0.572746
O4    O     O_R   0.072660 0.481800 0.621240 -0.597715
O5    O     O_R   0.805690 0.359850 0.509870 -0.571232
O6    O     O_R   0.974960 0.317530 0.471210 -0.584017
O7    O     O_R   0.927340 0.518200 0.378760 -0.582422
O8    O     O_R   0.096620 0.475870 0.340090 -0.572434
C37   C     C_1   0.258756 0.814550 0.688936 0.194186
N3    N     N_1   0.178089 0.773475 0.752154 -0.295702
C38   C     C_1   0.154360 0.290627 0.305659 0.329328
N4    N     N_1   0.073498 0.238103 0.261490 -0.288226
C39   C     C_1   0.373633 0.251085 0.232437 0.232897
N5    N     N_1   0.383095 0.186946 0.158696 -0.275438
C40   C     C_1   0.169595 0.514900 0.948376 0.300049
N6    N     N_1   0.262339 0.522772 0.894408 -0.280582
C41   C     C_1   0.647507 0.178333 0.389925 0.226144
N7    N     N_1   0.638433 0.227682 0.337745 -0.323569
N8    N     N_3   0.285337 0.945519 0.257310 -0.570438
H13   H     H_    0.231908 0.993189 0.280044 0.230015
H14   H     H_    0.369029 0.994495 0.215250 0.240669

loop_
_geom_bond_atom_site_label_1
_geom_bond_atom_site_label_2
_ccdc_geom_bond_type
C2    C35   T    
C4    C16   A    
C23   O6    A    
C9    C14   A    
C34   H1    S    
C24   N2    A    
C6    C7    A    
C18   C30   A    
C21   H6    S    
C27   H3    S    
C1    C17   S    
C19   C20   A    
C18   C26   A    
C30   N1    A    
Cu1   O1    S    
C21   C22   A    
C4    C15   A    
C33   C34   D    
C2    C12   S    
N8    H13   S    
Cu1   O7    S    
C13   C14   A    
C29   H5    S    
C5    C17   A    
C11   C13   A    
C5    H11   S    
C26   C27   A    
C12   O4    A    
N8    H14   S    
C1    O2    A    
Cu2   O8    S    
C5    C6    A    
C32   C36   T    
Cu2   N2    S    
C9    C17   A    
C20   C39   S    
Cu1   Cu2   S    
C39   N5    T    
C22   C24   A    
C10   C15   A    
C18   H4    S    
C25   C29   A    
C37   N3    T    
Cu1   N1    S    
C15   C41   S    
C41   N7    T    
C28   H7    S    
C12   O3    A    
C3    C11   A    
C10   C11   A    
C30   H2    S    
C40   N6    T    
Cu1   O3    S    
C24   C28   A    
C3    H10   S    
C7    C8    A    
C33   C36   S    
Cu2   O4    S    
C20   C21   A    
C33   C40   S    
C8    C10   A    
C34   C35   S    
C29   N1    A    
C16   H8    S    
C27   C28   A    
C23   O5    A    
C4    C23   S    
C1    O1    A    
C31   O8    A    
C25   C26   A    
Cu2   O6    S    
C14   C37   S    
C13   H9    S    
C19   N2    A    
C22   C25   A    
C31   C32   S    
Cu1   O5    S    
C3    C16   A    
C38   N4    T    
C7    H12   S    
C19   C38   S    
C8    C9    A    
C6    N8    S    
C31   O7    A    
Cu2   O2    S    
