data_mof_unit_57094.cif
_audit_creation_date              2012-12-10T17:48:48-0500
_audit_creation_method            fapswitch 2.2
_symmetry_space_group_name_H-M    P1
_symmetry_Int_Tables_number       1
_space_group_crystal_system       triclinic
_cell_length_a                    10.797354
_cell_length_b                    14.722323
_cell_length_c                    14.488221
_cell_angle_alpha                 64.979321
_cell_angle_beta                  106.124929
_cell_angle_gamma                 102.334315
_cell_volume                      1992.57587373

loop_
_atom_site_label
_atom_site_type_symbol
_atom_type_description
_atom_site_fract_x
_atom_site_fract_y
_atom_site_fract_z
_atom_type_partial_charge
C1    C     C_R   0.478896 0.119860 0.310259 0.788437
C2    C     C_3   0.878594 0.998288 0.501554 0.122784
C3    C     C_3   0.957344 0.941809 0.614684 -0.124907
C4    C     C_3   0.941778 0.107814 0.451401 -0.376964
C5    C     C_R   0.476795 0.188036 0.199211 -0.117050
C6    C     C_R   0.556509 0.812738 0.800141 -0.105559
C7    C     C_R   0.423225 0.226119 0.013330 -0.226336
C8    C     C_R   0.416606 0.158121 0.114881 -0.002925
C9    C     C_R   0.538230 0.287359 0.177732 -0.233068
C10   C     C_R   0.535509 0.359149 0.074652 0.091932
C11   C     C_R   0.475948 0.326237 0.992643 0.055839
C12   C     C_R   0.259588 0.000786 0.498558 0.762557
C13   C     C_R   0.578235 0.464130 0.050618 0.004529
C14   C     C_R   0.547384 0.535123 0.946203 -0.049814
C15   C     C_R   0.477913 0.498249 0.866941 0.417014
C16   C     C_R   0.454601 0.395245 0.890105 -0.299275
C17   C     C_R   0.643054 0.500678 0.128964 -0.248718
C18   C     C_R   0.658174 0.603219 0.112090 -0.036688
C19   C     C_R   0.611777 0.674441 0.009904 0.044880
C20   C     C_R   0.575699 0.640213 0.926474 0.058853
C21   C     C_R   0.600761 0.778332 0.985271 -0.021618
C22   C     C_R   0.570179 0.845057 0.880411 -0.246790
C23   C     C_R   0.527597 0.880481 0.689322 0.809193
C24   C     C_R   0.568399 0.712531 0.824762 -0.197923
C25   C     C_R   0.721855 0.284505 0.670393 -0.330502
C26   C     C_R   0.688527 0.204046 0.639149 0.065267
C27   C     C_R   0.514222 0.284445 0.508111 0.006443
C28   C     C_R   0.544111 0.371084 0.533295 -0.019588
C29   C     C_R   0.647985 0.367073 0.620872 0.109707
C30   C     C_R   0.470715 0.457399 0.480797 -0.060561
C31   C     C_R   0.506345 0.537238 0.518878 0.047321
C32   C     C_R   0.604939 0.527006 0.608279 -0.228505
C33   C     C_R   0.674338 0.443851 0.659593 -0.022210
C34   C     C_R   0.740401 0.998952 0.501122 0.751168
C35   C     C_R   0.359810 0.467655 0.395803 -0.140848
C36   C     C_R   0.276309 0.540383 0.369219 0.402078
C37   C     C_R   0.319859 0.622795 0.398272 0.008040
C38   C     C_R   0.438981 0.624858 0.469055 -0.054320
C39   C     C_R   0.248478 0.705926 0.352664 -0.306996
C40   C     C_R   0.297396 0.791293 0.374689 0.049736
C41   C     C_R   0.485404 0.715404 0.486814 0.059977
C42   C     C_3   0.029071 0.942313 0.432684 -0.378148
C43   C     C_3   0.886608 0.942453 0.433194 -0.403299
C44   C     C_3   0.101380 0.944672 0.612691 -0.400410
C45   C     C_3   0.085329 0.107525 0.455078 -0.399268
C46   C     C_3   0.121666 0.998880 0.499687 0.147694
Cu1   Cu    Cu3+1 0.465900 0.918260 0.475680 0.915368
Cu2   Cu    Cu3+1 0.534100 0.081740 0.524320 0.928374
H1    H     H_    0.050895 0.862872 0.463838 0.170914
H2    H     H_    0.932467 0.156531 0.489633 0.174041
H3    H     H_    0.169096 0.982925 0.662072 0.164035
H4    H     H_    0.404610 0.369974 0.827597 0.161074
H5    H     H_    0.574155 0.691848 0.763125 0.202531
H6    H     H_    0.557800 0.922574 0.861511 0.159714
H7    H     H_    0.373965 0.203604 0.948731 0.135967
H8    H     H_    0.580381 0.308683 0.243168 0.158195
H9    H     H_    0.043473 0.978991 0.351101 0.152838
H10   H     H_    0.682522 0.449459 0.205687 0.141504
H11   H     H_    0.578138 0.724792 0.536306 0.108965
H12   H     H_    0.241649 0.854775 0.340356 0.151919
H13   H     H_    0.804321 0.280727 0.734218 0.150491
H14   H     H_    0.743036 0.139557 0.678962 0.150902
H15   H     H_    0.432794 0.276015 0.449978 0.141270
H16   H     H_    0.833176 0.980334 0.351862 0.160165
H17   H     H_    0.624548 0.580904 0.644399 0.155265
H18   H     H_    0.157522 0.706504 0.297451 0.188286
H19   H     H_    0.840803 0.863134 0.462990 0.170620
H20   H     H_    0.127551 0.866162 0.645795 0.141514
H21   H     H_    0.916261 0.861056 0.637144 0.107184
H22   H     H_    0.147143 0.149195 0.503144 0.164938
H23   H     H_    0.102899 0.146130 0.375218 0.148526
H24   H     H_    0.890232 0.142988 0.368720 0.152306
N1    N     N_R   0.585360 0.204570 0.560800 -0.180837
N2    N     N_R   0.414550 0.795430 0.439160 -0.186923
O1    O     O_R   0.455060 0.022100 0.338110 -0.571500
O2    O     O_R   0.512640 0.160150 0.379180 -0.580018
O3    O     O_R   0.288900 0.930980 0.479450 -0.598632
O4    O     O_R   0.346480 0.069030 0.520520 -0.586602
O5    O     O_R   0.487360 0.839850 0.620820 -0.579950
O6    O     O_R   0.544940 0.977900 0.661890 -0.574111
O7    O     O_R   0.653520 0.930970 0.479480 -0.604049
O8    O     O_R   0.711100 0.069020 0.520550 -0.579176
C47   C     C_R   0.946769 0.974808 0.698773 0.126112
C48   C     C_R   0.885951 0.906335 0.780211 -0.156370
C49   C     C_R   0.885197 0.930697 0.863273 -0.131126
C50   C     C_R   0.941860 0.024546 0.865234 -0.123001
C51   C     C_R   0.002931 0.093217 0.785451 -0.166283
C52   C     C_R   0.006654 0.068397 0.703288 -0.133536
H25   H     H_    0.841665 0.832763 0.781054 0.109635
H26   H     H_    0.842365 0.875845 0.926920 0.130029
H27   H     H_    0.940405 0.043518 0.929342 0.131967
H28   H     H_    0.049315 0.165184 0.788094 0.127707
H29   H     H_    0.060826 0.121120 0.646169 0.118606
C53   C     C_R   0.733013 0.630905 0.202151 0.122513
C54   C     C_R   0.836441 0.708304 0.189766 -0.098873
C55   C     C_R   0.904432 0.735306 0.273566 -0.130363
C56   C     C_R   0.875654 0.681715 0.371952 -0.132458
C57   C     C_R   0.779324 0.600332 0.387099 -0.135066
C58   C     C_R   0.708797 0.574603 0.303280 -0.160308
H30   H     H_    0.861947 0.749095 0.114497 0.102949
H31   H     H_    0.980404 0.797201 0.263038 0.113144
H32   H     H_    0.929750 0.701939 0.436850 0.114395
H33   H     H_    0.760223 0.556562 0.464091 0.144492
H34   H     H_    0.637051 0.509597 0.318560 0.125759
C59   C     C_R   0.326686 0.065236 0.124883 0.139712
C60   C     C_R   0.343136 0.999595 0.082678 -0.156971
C61   C     C_R   0.246377 0.921826 0.074783 -0.106150
C62   C     C_R   0.131221 0.910882 0.106172 -0.128341
C63   C     C_R   0.113025 0.976889 0.146688 -0.214730
C64   C     C_R   0.210978 0.053116 0.157262 -0.125017
H35   H     H_    0.429143 0.010718 0.052946 0.141923
H36   H     H_    0.259231 0.871694 0.041797 0.137028
H37   H     H_    0.055500 0.852325 0.097178 0.124269
H38   H     H_    0.022350 0.970245 0.168329 0.122851
H39   H     H_    0.194223 0.105541 0.185956 0.102677
O9    O     O_3   0.421824 0.560321 0.767543 -0.595528
C65   C     C_3   0.293520 0.569444 0.766194 0.059938
H40   H     H_    0.293563 0.608537 0.817353 0.139483
H41   H     H_    0.235441 0.494232 0.792201 0.141506
C66   C     C_3   0.227439 0.631175 0.655465 -0.778695
H42   H     H_    0.225901 0.593857 0.602594 0.248685
H43   H     H_    0.126156 0.637936 0.653420 0.176015
H44   H     H_    0.280017 0.707921 0.627607 0.276638
C67   C     C_R   0.604814 0.818570 0.064301 0.124922
C68   C     C_R   0.693271 0.902002 0.071479 -0.163948
C69   C     C_R   0.700066 0.936431 0.149322 -0.157065
C70   C     C_R   0.617085 0.889192 0.219083 -0.108082
C71   C     C_R   0.525374 0.809436 0.209168 -0.114428
C72   C     C_R   0.517283 0.775623 0.130900 -0.155513
H45   H     H_    0.758977 0.938751 0.018816 0.111214
H46   H     H_    0.769747 0.999492 0.155616 0.115094
H47   H     H_    0.621103 0.915896 0.278968 0.149834
H48   H     H_    0.458580 0.775224 0.260518 0.156722
H49   H     H_    0.441969 0.717128 0.121018 0.120263
C73   C     C_R   0.765977 0.436602 0.759497 0.117060
C74   C     C_R   0.871992 0.510635 0.761509 -0.171782
C75   C     C_R   0.951187 0.508953 0.856632 -0.146469
C76   C     C_R   0.924126 0.434226 0.950208 -0.116779
C77   C     C_R   0.819107 0.360161 0.948845 -0.138556
C78   C     C_R   0.740241 0.361181 0.853909 -0.136756
H50   H     H_    0.892090 0.570151 0.689550 0.111836
H51   H     H_    0.032522 0.566318 0.857847 0.120651
H52   H     H_    0.983827 0.434141 0.023801 0.140679
H53   H     H_    0.797823 0.302691 0.021380 0.129186
H54   H     H_    0.657493 0.304638 0.853947 0.132548
O10   O     O_3   0.158277 0.537918 0.300915 -0.576849
C79   C     C_3   0.063693 0.480537 0.360109 0.072737
H55   H     H_    0.028623 0.529029 0.386903 0.164364
H56   H     H_    0.100288 0.413545 0.429640 0.117362
C80   C     C_3   0.950298 0.441773 0.292158 -0.783831
H57   H     H_    0.980513 0.386929 0.270966 0.239392
H58   H     H_    0.871324 0.403436 0.335524 0.191880
H59   H     H_    0.914898 0.505633 0.219612 0.264413
C81   C     C_R   0.337487 0.425875 0.314485 0.135308
C82   C     C_R   0.380203 0.487652 0.222045 -0.115913
C83   C     C_R   0.331675 0.467869 0.131711 -0.111560
C84   C     C_R   0.243381 0.383487 0.133254 -0.115139
C85   C     C_R   0.197079 0.322629 0.223392 -0.155874
C86   C     C_R   0.240970 0.345425 0.312655 -0.112739
H60   H     H_    0.443415 0.555735 0.217948 0.116581
H61   H     H_    0.359646 0.519686 0.059625 0.126094
H62   H     H_    0.207009 0.367608 0.063443 0.124116
H63   H     H_    0.122396 0.261302 0.221243 0.103710
H64   H     H_    0.197031 0.303772 0.379190 0.103828

loop_
_geom_bond_atom_site_label_1
_geom_bond_atom_site_label_2
_ccdc_geom_bond_type
C59   C64   A    
C69   C70   A    
C40   H12   S    
C45   H23   S    
C61   H36   S    
Cu2   O2    S    
C54   C55   A    
C35   C81   S    
Cu1   O5    S    
C75   H51   S    
C71   C72   A    
C56   C57   A    
C73   C74   A    
C22   H6    S    
C49   C50   A    
O9    C65   S    
C7    C11   A    
C84   C85   A    
C30   C35   A    
C47   C48   A    
C1    C5    S    
C69   H46   S    
C28   C29   A    
C79   H56   S    
C50   H27   S    
C65   H41   S    
C30   C31   A    
C60   C61   A    
C15   C16   A    
C6    C22   A    
C29   C33   A    
C26   N1    A    
C62   C63   A    
C18   C19   A    
C42   C46   S    
Cu2   O4    S    
C70   H47   S    
C79   H55   S    
C41   N2    A    
C68   H45   S    
C20   C24   A    
C44   C46   S    
C80   H59   S    
C12   O4    A    
C61   C62   A    
C34   O7    A    
C7    H7    S    
C23   O6    A    
C9    C10   A    
C56   H32   S    
C66   H44   S    
C17   H10   S    
C60   H35   S    
C2    C34   S    
C77   H53   S    
C47   C52   A    
C82   H60   S    
C13   C14   A    
C12   O3    A    
C42   H9    S    
C66   H43   S    
C43   H16   S    
C4    C45   S    
C25   C29   A    
C73   C78   A    
C3    C44   S    
C82   C83   A    
C1    O1    A    
C14   C20   A    
C7    C8    A    
C79   C80   S    
C55   H31   S    
C48   C49   A    
C41   H11   S    
C38   C41   A    
C12   C46   S    
C10   C11   A    
C65   C66   S    
C39   C40   A    
C15   O9    S    
C54   H30   S    
C25   C26   A    
C45   C46   S    
C4    H2    S    
C35   C36   A    
C62   H37   S    
C2    C4    S    
C43   H19   S    
C5    C9    A    
C37   C38   A    
C11   C16   A    
C33   C73   S    
Cu1   Cu2   S    
Cu2   O8    S    
C2    C43   S    
C77   C78   A    
C6    C24   A    
C55   C56   A    
C14   C15   A    
C17   C18   A    
C9    H8    S    
C25   H13   S    
C81   C82   A    
C27   H15   S    
C85   H63   S    
C63   H38   S    
C44   H3    S    
C36   O10   S    
C83   H61   S    
C3    C47   S    
C85   C86   A    
C18   C53   S    
C39   H18   S    
C80   H58   S    
C44   H20   S    
C42   C43   S    
Cu1   O3    S    
C70   C71   A    
C4    H24   S    
C51   H28   S    
C66   H42   S    
C8    C59   S    
O10   C79   S    
C59   C60   A    
C52   H29   S    
C83   C84   A    
C3    H21   S    
C45   H22   S    
C50   C51   A    
C1    O2    A    
Cu2   N1    S    
C31   C32   A    
C16   H4    S    
Cu1   N2    S    
C74   C75   A    
C10   C13   A    
C78   H54   S    
C5    C8    A    
C49   H26   S    
C75   C76   A    
C65   H40   S    
C80   H57   S    
C31   C38   A    
C13   C17   A    
C76   H52   S    
C32   C33   A    
Cu2   O6    S    
C19   C20   A    
C28   C30   A    
C2    C3    S    
C24   H5    S    
Cu1   O1    S    
C81   C86   A    
C37   C39   A    
C27   N1    A    
C71   H48   S    
C68   C69   A    
C53   C58   A    
C21   C67   S    
C6    C23   S    
C64   H39   S    
C74   H50   S    
C40   N2    A    
C67   C72   A    
C58   H34   S    
Cu1   O7    S    
C26   H14   S    
C53   C54   A    
C76   C77   A    
C42   H1    S    
C72   H49   S    
C51   C52   A    
C36   C37   A    
C57   C58   A    
C48   H25   S    
C63   C64   A    
C27   C28   A    
C86   H64   S    
C32   H17   S    
C34   O8    A    
C23   O5    A    
C21   C22   A    
C84   H62   S    
C57   H33   S    
C67   C68   A    
C19   C21   A    
