data_mof_unit_53825.cif
_audit_creation_date              2012-12-10T16:37:40-0500
_audit_creation_method            fapswitch 2.2
_symmetry_space_group_name_H-M    P1
_symmetry_Int_Tables_number       1
_space_group_crystal_system       triclinic
_cell_length_a                    10.884374
_cell_length_b                    10.835537
_cell_length_c                    15.458297
_cell_angle_alpha                 96.800766
_cell_angle_beta                  75.184473
_cell_angle_gamma                 98.996543
_cell_volume                      1734.94475582

loop_
_atom_site_label
_atom_site_type_symbol
_atom_type_description
_atom_site_fract_x
_atom_site_fract_y
_atom_site_fract_z
_atom_type_partial_charge
Br1   Br    Br    0.688263 0.044281 0.386351 -0.040786
Br2   Br    Br    0.625845 0.673338 0.131130 -0.057645
Br3   Br    Br    0.328862 0.883742 0.023133 -0.090934
Br4   Br    Br    0.347050 0.269713 0.782816 -0.075003
C1    C     C_R   0.158674 0.478025 0.519339 0.549972
C2    C     C_R   0.558161 0.500158 0.106384 -0.003748
C3    C     C_R   0.571402 0.285890 0.130971 -0.127445
C4    C     C_R   0.842112 0.522549 0.481075 0.524821
C5    C     C_R   0.419354 0.574492 0.840283 0.006922
C6    C     C_2   0.978599 0.539777 0.480416 0.250626
C7    C     C_2   0.022557 0.464673 0.526173 0.266909
C8    C     C_2   0.543578 0.967900 0.472743 0.002028
C9    C     C_2   0.455891 0.034654 0.525927 -0.107534
C10   C     C_R   0.466989 0.167466 0.520884 0.502707
C11   C     C_R   0.530087 0.833700 0.480191 0.498432
C12   C     C_R   0.381482 0.726286 0.969485 0.004660
C13   C     C_R   0.554818 0.443776 0.258320 0.514131
C14   C     C_R   0.443484 0.551674 0.742000 0.498719
C15   C     C_R   0.548801 0.244444 0.047526 -0.131601
C16   C     C_R   0.573033 0.412724 0.161731 0.035107
C17   C     C_R   0.387224 0.692619 0.879216 -0.124994
C18   C     C_3   0.953681 0.346191 0.649476 0.011931
C19   C     C_3   0.020972 0.232835 0.650754 -0.267078
C20   C     C_3   0.017364 0.208073 0.746529 -0.482178
C21   C     C_3   0.046141 0.749568 0.476204 0.001685
C22   C     C_3   0.149644 0.847076 0.427467 -0.241861
C23   C     C_R   0.418827 0.647265 0.019856 -0.100779
C24   C     C_3   0.133798 0.979067 0.471723 -0.474299
C25   C     C_R   0.462349 0.532604 0.980734 0.002511
C26   C     C_R   0.441811 0.487607 0.894576 0.021031
C27   C     C_R   0.512672 0.455830 0.028245 0.025794
C28   C     C_R   0.515136 0.327128 0.997298 0.019305
C29   C     C_R   0.476296 0.279579 0.919414 -0.124952
C30   C     C_R   0.437666 0.357061 0.868869 0.030835
H1    H     H_    0.583417 0.217971 0.173318 0.127783
H2    H     H_    0.122427 0.249431 0.612139 0.169539
H3    H     H_    0.064128 0.291533 0.780535 0.160515
H4    H     H_    0.069191 0.127071 0.745112 0.152050
H5    H     H_    0.916680 0.185787 0.785294 0.153545
H6    H     H_    0.055442 0.752100 0.546653 0.124589
H7    H     H_    0.950434 0.774510 0.476890 0.149174
H8    H     H_    0.245776 0.824944 0.428128 0.179495
H9    H     H_    0.143833 0.843736 0.356431 0.187702
H10   H     H_    0.038666 0.003553 0.471127 0.159728
H11   H     H_    0.209220 0.047514 0.434020 0.187615
H12   H     H_    0.373502 0.991402 0.573642 0.101285
H13   H     H_    0.142959 0.985760 0.542128 0.135992
H14   H     H_    0.470781 0.179830 0.899551 0.118128
H15   H     H_    0.548451 0.145705 0.025256 0.122322
H16   H     H_    0.367378 0.759531 0.839406 0.141231
H17   H     H_    0.406683 0.673897 0.090661 0.135262
H18   H     H_    0.854040 0.329871 0.691400 0.169747
H19   H     H_    0.001336 0.431803 0.681584 0.109183
H20   H     H_    0.972544 0.148561 0.618592 0.176997
O1    O     O_3   0.500000 0.500000 0.500000 -0.447438
O2    O     O_R   0.463530 0.379110 0.309170 -0.536928
O3    O     O_R   0.388210 0.611730 0.699360 -0.554072
O4    O     O_R   0.624720 0.532760 0.292120 -0.523303
O5    O     O_R   0.523540 0.476390 0.699360 -0.534477
O6    O     O_3   0.945761 0.357949 0.560836 -0.572676
O7    O     O_3   0.062701 0.630171 0.430603 -0.587828
O8    O     O_R   0.537910 0.240570 0.564270 -0.515422
O9    O     O_R   0.438950 0.782540 0.540270 -0.555919
O10   O     O_R   0.222350 0.398740 0.468260 -0.528984
O11   O     O_R   0.800790 0.578160 0.427210 -0.533954
O12   O     O_R   0.212140 0.566330 0.564260 -0.567033
O13   O     O_R   0.764730 0.456770 0.540270 -0.515360
O14   O     O_R   0.412790 0.208310 0.468260 -0.556697
O15   O     O_R   0.610350 0.768590 0.427210 -0.528513
Zn1   Zn    Zn3+2 0.580150 0.419820 0.574680 0.953371
Zn2   Zn    Zn3+2 0.401380 0.373730 0.437510 0.946401
Zn3   Zn    Zn3+2 0.631680 0.593260 0.413140 0.961512
Zn4   Zn    Zn3+2 0.386790 0.613180 0.574670 0.918147

loop_
_geom_bond_atom_site_label_1
_geom_bond_atom_site_label_2
_ccdc_geom_bond_type
O15   Zn3   S    
C20   H4    S    
C19   C20   S    
C24   H13   S    
C12   C17   A    
C23   C25   A    
O11   Zn3   S    
C2    C16   A    
C5    C14   S    
C14   O3    A    
C22   C24   S    
C27   C28   A    
C8    C11   S    
C11   O9    A    
C13   O4    A    
O2    Zn2   S    
O4    Zn3   S    
C28   C29   A    
O13   Zn1   S    
C12   C23   A    
C20   H3    S    
C4    O11   A    
C25   C27   A    
C21   O7    S    
C9    C10   S    
C13   O2    A    
C5    C17   A    
C25   C26   A    
Br1   C8    S    
C3    H1    S    
C5    C26   A    
C19   H20   S    
O14   Zn2   S    
C15   C28   A    
C4    C6    S    
C17   H16   S    
C23   H17   S    
C22   H9    S    
C1    C7    S    
C18   H19   S    
C3    C15   A    
C24   H10   S    
C21   H6    S    
C18   O6    S    
C9    H12   S    
C11   O15   A    
Br4   C30   S    
C24   H11   S    
C6    O7    S    
C6    C7    D    
C26   C30   A    
O5    Zn1   S    
O3    Zn4   S    
C7    O6    S    
C10   O8    A    
C14   O5    A    
C13   C16   S    
C29   C30   A    
C8    C9    D    
O8    Zn1   S    
C4    O13   A    
C18   H18   S    
C19   H2    S    
O10   Zn2   S    
C21   H7    S    
C22   H8    S    
C29   H14   S    
C10   O14   A    
C18   C19   S    
O1    Zn1   S    
C2    C27   A    
O9    Zn4   S    
O1    Zn3   S    
C21   C22   S    
O12   Zn4   S    
C15   H15   S    
C20   H5    S    
C3    C16   A    
O1    Zn2   S    
Br3   C12   S    
Br2   C2    S    
C1    O10   A    
C1    O12   A    
O1    Zn4   S    
