data_mof_unit_38074.cif
_audit_creation_date              2012-12-11T15:06:34-0500
_audit_creation_method            fapswitch 2.2
_symmetry_space_group_name_H-M    P1
_symmetry_Int_Tables_number       1
_space_group_crystal_system       triclinic
_cell_length_a                    7.239973
_cell_length_b                    14.813349
_cell_length_c                    22.516768
_cell_angle_alpha                 89.999829
_cell_angle_beta                  89.995487
_cell_angle_gamma                 88.965391
_cell_volume                      2414.49018747

loop_
_atom_site_label
_atom_site_type_symbol
_atom_type_description
_atom_site_fract_x
_atom_site_fract_y
_atom_site_fract_z
_atom_type_partial_charge
O1    O     O_R   0.390810 0.844810 0.447340 -0.533672
O2    O     O_R   0.109190 0.155190 0.947340 -0.533662
O3    O     O_R   0.890810 0.655190 0.552660 -0.535753
O4    O     O_R   0.609190 0.344810 0.052660 -0.535774
O5    O     O_R   0.720550 0.655820 0.440420 -0.533185
O6    O     O_R   0.779450 0.344180 0.940420 -0.533222
O7    O     O_R   0.220550 0.844180 0.559580 -0.541967
O8    O     O_R   0.279450 0.155820 0.059580 -0.541966
C1    C     C_R   0.553620 0.626197 0.426395 0.672917
C2    C     C_R   0.946389 0.373801 0.926395 0.672895
C3    C     C_R   0.050835 0.873432 0.573693 0.720135
C4    C     C_R   0.449155 0.126570 0.073695 0.720147
O9    O     O_R   0.720530 0.844130 0.440420 -0.529547
O10   O     O_R   0.779470 0.155870 0.940420 -0.529555
O11   O     O_R   0.220530 0.655870 0.559580 -0.537958
O12   O     O_R   0.279470 0.344130 0.059580 -0.537950
O13   O     O_R   0.890830 0.844810 0.552660 -0.527685
O14   O     O_R   0.609170 0.155190 0.052660 -0.527713
O15   O     O_R   0.390830 0.655190 0.447340 -0.534394
O16   O     O_R   0.109170 0.344810 0.947340 -0.534380
C5    C     C_R   0.550843 0.873532 0.426381 0.681501
C6    C     C_R   0.949168 0.126468 0.926381 0.681482
C7    C     C_R   0.053594 0.626709 0.573956 0.672381
C8    C     C_R   0.446397 0.373288 0.073958 0.672343
O17   O     O_3   0.557310 0.749980 0.536820 -0.377073
O18   O     O_3   0.942690 0.250020 0.036820 -0.377077
O19   O     O_3   0.057310 0.750020 0.463180 -0.371178
O20   O     O_3   0.442690 0.249980 0.963180 -0.371169
V1    V     V_3+5 0.832160 0.749980 0.493170 1.456212
V2    V     V_3+5 0.667840 0.250020 0.993170 1.456100
V3    V     V_3+5 0.332160 0.750020 0.506830 1.430683
V4    V     V_3+5 0.167840 0.249980 0.006830 1.430687
C9    C     C_R   0.865223 0.605182 0.858692 -0.170019
C10   C     C_R   0.635169 0.394867 0.358660 -0.170120
C11   C     C_R   0.521113 0.891888 0.135635 -0.201747
C12   C     C_R   0.978419 0.108088 0.635629 -0.201796
H1    H     H_    0.832828 0.724414 0.771744 0.126830
H2    H     H_    0.667696 0.275664 0.271698 0.126820
H3    H     H_    0.587001 0.769336 0.218753 0.127429
H4    H     H_    0.912343 0.230616 0.718751 0.127429
H5    H     H_    0.813408 0.671180 0.872280 0.126894
H6    H     H_    0.687173 0.328897 0.372231 0.126842
H7    H     H_    0.543181 0.823682 0.119283 0.114101
H8    H     H_    0.956128 0.176279 0.619275 0.114083
C13   C     C_R   0.947304 0.450412 0.884216 -0.069022
C14   C     C_R   0.552741 0.549585 0.384214 -0.069017
C15   C     C_R   0.463535 0.050776 0.116076 -0.049026
C16   C     C_R   0.036413 0.949229 0.616071 -0.049032
C17   C     C_R   0.123827 0.467989 0.598270 -0.145300
C18   C     C_R   0.375903 0.531973 0.098298 -0.145256
C19   C     C_R   0.507396 0.035859 0.407115 -0.145878
C20   C     C_R   0.992955 0.964162 0.907116 -0.145798
C21   C     C_R   0.146792 0.396839 0.637961 -0.130399
C22   C     C_R   0.352810 0.603098 0.138002 -0.130396
C23   C     C_R   0.475807 0.109156 0.369710 -0.126320
C24   C     C_R   0.024700 0.890879 0.869710 -0.126296
C25   C     C_R   0.102288 0.407798 0.697744 -0.168784
C26   C     C_R   0.397397 0.592148 0.197776 -0.168791
C27   C     C_R   0.470349 0.097475 0.308332 -0.165462
C28   C     C_R   0.030039 0.902556 0.808331 -0.165500
C29   C     C_R   0.028523 0.490495 0.719431 0.092550
C30   C     C_R   0.471393 0.509488 0.219442 0.092558
C31   C     C_R   0.500402 0.011465 0.282371 0.090781
C32   C     C_R   0.999696 0.988544 0.782370 0.090789
C33   C     C_R   0.003646 0.563378 0.678115 0.069215
C34   C     C_R   0.496398 0.436628 0.178113 0.069221
C35   C     C_R   0.534572 0.936395 0.321198 0.067588
C36   C     C_R   0.965359 0.063599 0.821198 0.067587
C37   C     C_R   0.981495 0.503679 0.780825 0.075650
C38   C     C_R   0.518526 0.496317 0.280826 0.075646
C39   C     C_R   0.495717 0.997311 0.219329 0.079555
C40   C     C_R   0.004258 0.002693 0.719327 0.079560
C41   C     C_R   0.912055 0.589418 0.799129 0.093101
C42   C     C_R   0.588202 0.410614 0.299109 0.093153
C43   C     C_R   0.525312 0.908586 0.196969 0.108800
C44   C     C_R   0.974375 0.091398 0.696965 0.108822
C45   C     C_R   0.888242 0.659304 0.757921 -0.198094
C46   C     C_R   0.612117 0.340748 0.257890 -0.198108
C47   C     C_R   0.560684 0.836699 0.235811 -0.195675
C48   C     C_R   0.938864 0.163270 0.735809 -0.195703
C49   C     C_R   0.933699 0.646786 0.698525 -0.198685
C50   C     C_R   0.566554 0.353253 0.198504 -0.198741
C51   C     C_R   0.564501 0.850098 0.296837 -0.195821
C52   C     C_R   0.935163 0.149876 0.796836 -0.195866
C53   C     C_R   0.998038 0.434750 0.824659 -0.260320
C54   C     C_R   0.501875 0.565228 0.324670 -0.260342
C55   C     C_R   0.465095 0.067921 0.177488 -0.278423
C56   C     C_R   0.035020 0.932095 0.677485 -0.278432
C57   C     C_R   0.882284 0.537125 0.901453 0.204764
C58   C     C_R   0.617997 0.462904 0.401431 0.204815
C59   C     C_R   0.490580 0.962268 0.094995 0.197617
C60   C     C_R   0.009066 0.037718 0.594988 0.197627
C61   C     C_R   0.053354 0.551590 0.617382 -0.082244
C62   C     C_R   0.446591 0.448404 0.117389 -0.082258
C63   C     C_R   0.536197 0.949280 0.383796 -0.075666
C64   C     C_R   0.963863 0.050721 0.883797 -0.075670
H9    H     H_    0.044436 0.367273 0.813705 0.108558
H10   H     H_    0.455311 0.632683 0.313730 0.108577
H11   H     H_    0.446089 0.137269 0.190931 0.105159
H12   H     H_    0.054237 0.862760 0.690930 0.105171
H13   H     H_    0.164372 0.458249 0.552340 0.114394
H14   H     H_    0.335275 0.541703 0.052377 0.114342
H15   H     H_    0.506595 0.046492 0.454741 0.110170
H16   H     H_    0.993875 0.953537 0.954743 0.110098
H17   H     H_    0.130023 0.350554 0.725979 0.112810
H18   H     H_    0.369537 0.649364 0.226024 0.112795
H19   H     H_    0.440261 0.157052 0.282517 0.113676
H20   H     H_    0.060277 0.842996 0.782515 0.113674
H21   H     H_    0.203042 0.332838 0.622453 0.120400
H22   H     H_    0.296387 0.667071 0.122511 0.120396
H23   H     H_    0.452419 0.175674 0.388509 0.119424
H24   H     H_    0.048317 0.824379 0.888509 0.119442
H25   H     H_    0.913119 0.703285 0.668622 0.113570
H26   H     H_    0.587222 0.296770 0.168593 0.113648
H27   H     H_    0.592208 0.792061 0.324879 0.106552
H28   H     H_    0.907334 0.207901 0.824880 0.106614
N1    N     N_3   0.830180 0.558601 0.961616 -0.668332
H29   H     H_    0.851321 0.504074 0.990283 0.223368
H30   H     H_    0.917763 0.609183 0.976533 0.216788
N2    N     N_3   0.670259 0.441452 0.461582 -0.668315
H31   H     H_    0.648718 0.495912 0.490272 0.223333
H32   H     H_    0.583039 0.390715 0.476484 0.216772
N3    N     N_3   0.490415 0.944777 0.032173 -0.669776
H33   H     H_    0.355998 0.956706 0.016708 0.217682
H34   H     H_    0.521363 0.876759 0.023740 0.226355
N4    N     N_3   0.009042 0.055196 0.532164 -0.669782
H35   H     H_    0.143477 0.043388 0.516668 0.217688
H36   H     H_    0.977800 0.123187 0.523730 0.226328

loop_
_geom_bond_atom_site_label_1
_geom_bond_atom_site_label_2
_ccdc_geom_bond_type
O17   V3    S    
C25   H17   S    
C26   C30   A    
N4    H35   S    
C23   C27   A    
O19   V1    S    
O13   V1    S    
O3    C7    A    
C10   H6    S    
C48   C52   A    
O15   V3    S    
C36   C52   A    
N3    H33   S    
O1    C5    A    
C11   C43   A    
C36   C64   A    
C32   C36   A    
O9    V1    S    
C9    C57   A    
N1    H30   S    
C17   H13   S    
O4    C8    A    
N3    H34   S    
C19   H15   S    
O1    V3    S    
C30   C38   A    
O2    V4    S    
O3    V1    S    
C38   C42   A    
C12   C44   A    
C1    O15   A    
C20   H16   S    
C2    O16   A    
C19   C63   A    
O2    C6    A    
C16   C56   A    
C37   C41   A    
O14   V2    S    
C11   H7    S    
O5    V1    S    
C28   H20   S    
O16   V4    S    
C40   C44   A    
C34   C62   A    
C12   C60   A    
O11   C7    A    
C1    C14   S    
O12   C8    A    
C59   N3    S    
C35   C63   A    
C3    C16   S    
C15   C59   A    
O10   V2    S    
C4    C15   S    
C40   C56   A    
N2    H32   S    
C55   H11   S    
C31   C35   A    
C39   C43   A    
O7    V3    S    
C30   C34   A    
O8    V4    S    
C51   H27   S    
C50   H26   S    
C21   C25   A    
O18   V4    S    
C18   C62   A    
H2    C46   S    
H1    C45   S    
C27   H19   S    
C7    C61   S    
C26   H18   S    
C22   H22   S    
C15   C55   A    
O7    C3    A    
C10   C58   A    
O5    C1    A    
C8    C62   S    
C34   C50   A    
C46   C50   A    
C33   C49   A    
C45   C49   A    
O8    C4    A    
C2    C13   S    
H4    C48   S    
O9    C5    A    
C18   C22   A    
C35   C51   A    
C25   C29   A    
C56   H12   S    
C10   C42   A    
C39   C55   A    
C9    C41   A    
O6    V2    S    
C57   N1    S    
C18   H14   S    
C16   C60   A    
C12   H8    S    
C4    O14   A    
C38   C54   A    
C37   C53   A    
N2    H31   S    
C22   C26   A    
C29   C37   A    
C58   N2    S    
C3    O13   A    
N4    H36   S    
C13   C57   A    
C23   H23   S    
C6    C64   S    
C44   C48   A    
C31   C39   A    
C60   N4    S    
O6    C2    A    
O11   V3    S    
C14   C58   A    
O12   V4    S    
C5    C63   S    
C27   C31   A    
C13   C53   A    
C28   C32   A    
C9    H5    S    
O10   C6    A    
O20   V2    S    
N1    H29   S    
C47   C51   A    
C17   C21   A    
C33   C61   A    
C20   C64   A    
C19   C23   A    
C32   C40   A    
C54   H10   S    
C53   H9    S    
C29   C33   A    
C24   C28   A    
C52   H28   S    
C42   C46   A    
C49   H25   S    
C41   C45   A    
C21   H21   S    
C17   C61   A    
C43   C47   A    
C24   H24   S    
O4    V2    S    
C20   C24   A    
H3    C47   S    
C14   C54   A    
C11   C59   A    
