data_mof_unit_38769.cif
_audit_creation_date              2012-12-11T17:19:13-0500
_audit_creation_method            fapswitch 2.2
_symmetry_space_group_name_H-M    P1
_symmetry_Int_Tables_number       1
_space_group_crystal_system       triclinic
_cell_length_a                    15.216531
_cell_length_b                    7.321658
_cell_length_c                    12.9989
_cell_angle_alpha                 89.699998
_cell_angle_beta                  100.358127
_cell_angle_gamma                 90.633082
_cell_volume                      1424.51448939

loop_
_atom_site_label
_atom_site_type_symbol
_atom_type_description
_atom_site_fract_x
_atom_site_fract_y
_atom_site_fract_z
_atom_type_partial_charge
O1    O     O_R   0.648180 0.355050 0.151550 -0.520578
O2    O     O_R   0.351820 0.644950 0.848450 -0.540990
O3    O     O_R   0.851820 0.855050 0.348450 -0.542743
O4    O     O_R   0.148180 0.144950 0.651550 -0.526200
O5    O     O_R   0.835240 0.681980 0.154280 -0.549636
O6    O     O_R   0.164760 0.318020 0.845720 -0.545806
O7    O     O_R   0.664760 0.181980 0.345720 -0.555559
O8    O     O_R   0.335240 0.818020 0.654280 -0.548859
C1    C     C_R   0.861685 0.516914 0.130183 0.723293
C2    C     C_R   0.139448 0.481888 0.871194 0.718144
C3    C     C_R   0.641562 0.015803 0.373296 0.696349
C4    C     C_R   0.362412 0.984461 0.631270 0.689558
O9    O     O_R   0.647870 0.684600 0.139630 -0.540630
O10   O     O_R   0.352130 0.315400 0.860370 -0.513139
O11   O     O_R   0.852130 0.184600 0.360370 -0.535319
O12   O     O_R   0.147870 0.815400 0.639630 -0.554259
O13   O     O_R   0.663110 0.857440 0.333700 -0.530655
O14   O     O_R   0.336890 0.142560 0.666300 -0.532739
O15   O     O_R   0.836890 0.357440 0.166300 -0.503026
O16   O     O_R   0.163110 0.642560 0.833700 -0.533448
C5    C     C_R   0.614118 0.516155 0.114945 0.724329
C6    C     C_R   0.384747 0.484201 0.886795 0.777840
C7    C     C_R   0.885942 0.016627 0.384976 0.770912
C8    C     C_R   0.114228 0.983260 0.614671 0.738080
O17   O     O_3   0.755220 0.522230 0.313690 -0.390085
O18   O     O_3   0.244780 0.477770 0.686310 -0.382373
O19   O     O_3   0.744780 0.022230 0.186310 -0.358705
O20   O     O_3   0.255220 0.977770 0.813690 -0.378765
V1    V     V_3+5 0.749030 0.796100 0.238190 1.405411
V2    V     V_3+5 0.250970 0.203900 0.761810 1.421787
V3    V     V_3+5 0.750970 0.296100 0.261810 1.435979
V4    V     V_3+5 0.249030 0.703900 0.738190 1.372791
C9    C     C_1   0.967105 0.005783 0.465267 -0.099001
C10   C     C_1   0.033943 0.993630 0.533215 -0.123993
C11   C     C_1   0.532883 0.505524 0.034842 -0.203727
C12   C     C_1   0.465395 0.494989 0.967678 -0.161629
C13   C     C_R   0.551136 0.008857 0.726866 0.055557
C14   C     C_R   0.455496 0.990472 0.278236 0.071059
C15   C     C_R   0.948237 0.501987 0.774535 0.069598
C16   C     C_R   0.055036 0.525191 0.222217 0.061998
C17   C     C_R   0.638191 0.961295 0.772221 0.180039
C18   C     C_R   0.374590 0.910871 0.230669 0.177608
C19   C     C_R   0.861381 0.556907 0.730418 0.170604
C20   C     C_R   0.141890 0.471406 0.270114 0.175220
C21   C     C_R   0.707130 0.003574 0.717675 0.140525
C22   C     C_R   0.303799 0.906903 0.285725 0.132253
C23   C     C_R   0.792917 0.530438 0.788295 0.110553
C24   C     C_R   0.204385 0.423750 0.207819 0.148709
C25   C     C_R   0.684540 0.045692 0.609003 -0.093871
C26   C     C_R   0.320472 0.947381 0.394455 -0.065979
C27   C     C_R   0.816108 0.488741 0.896503 -0.086765
C28   C     C_R   0.175730 0.399051 0.099276 -0.091394
C29   C     C_R   0.594061 0.022364 0.553489 -0.085229
C30   C     C_R   0.410356 0.976293 0.451213 -0.072130
C31   C     C_R   0.907401 0.499685 0.949748 -0.020896
C32   C     C_R   0.089306 0.457408 0.048250 -0.088767
C33   C     C_R   0.524747 0.010965 0.614688 0.029718
C34   C     C_R   0.479736 0.994567 0.390364 0.026664
C35   C     C_R   0.975464 0.496007 0.886627 0.016663
C36   C     C_R   0.024663 0.500608 0.111287 0.027595
C37   C     C_R   0.571114 0.013678 0.440779 -0.117028
C38   C     C_R   0.432791 0.994722 0.563980 -0.110764
C39   C     C_R   0.932075 0.509846 0.062447 -0.102610
C40   C     C_R   0.067031 0.477701 0.936292 -0.130122
C41   C     C_3   0.654956 0.877134 0.880878 -0.729082
H1    H     H_    0.715661 0.793160 0.894490 0.197577
H2    H     H_    0.661490 0.982008 0.942562 0.253758
H3    H     H_    0.598531 0.784550 0.889957 0.190740
C42   C     C_3   0.363122 0.842131 0.118882 -0.725380
H4    H     H_    0.338236 0.699257 0.114564 0.202719
H5    H     H_    0.315074 0.926777 0.065549 0.232884
H6    H     H_    0.427217 0.841005 0.089471 0.210198
C43   C     C_3   0.841183 0.622730 0.617623 -0.721964
H7    H     H_    0.793550 0.736846 0.607688 0.224398
H8    H     H_    0.902461 0.675776 0.591990 0.212443
H9    H     H_    0.812766 0.511043 0.564977 0.203571
C44   C     C_3   0.167330 0.466500 0.388833 -0.642011
H10   H     H_    0.229111 0.390491 0.418470 0.235047
H11   H     H_    0.179078 0.605524 0.419746 0.153953
H12   H     H_    0.112998 0.400809 0.423083 0.228390
C45   C     C_3   0.498624 0.099318 0.800254 -0.672004
H13   H     H_    0.540333 0.140235 0.875666 0.194553
H14   H     H_    0.474339 0.231795 0.765543 0.203567
H15   H     H_    0.445651 0.007325 0.819893 0.221410
C46   C     C_3   0.500079 0.113055 0.208193 -0.685534
H16   H     H_    0.453674 0.152967 0.136004 0.237052
H17   H     H_    0.519326 0.244771 0.248015 0.205493
H18   H     H_    0.556767 0.043368 0.182703 0.220698
C47   C     C_3   0.999754 0.408859 0.700300 -0.684374
H19   H     H_    0.957463 0.372138 0.624442 0.221458
H20   H     H_    0.054368 0.497146 0.681727 0.215147
H21   H     H_    0.023009 0.274866 0.733625 0.213965
C48   C     C_3   0.003264 0.638371 0.288013 -0.723959
H22   H     H_    0.043957 0.695823 0.359654 0.191246
H23   H     H_    0.978668 0.762768 0.243691 0.214955
H24   H     H_    0.950018 0.555511 0.314370 0.220649
C49   C     C_3   0.209002 0.887274 0.224699 -0.693843
H25   H     H_    0.183609 0.023669 0.198005 0.212039
H26   H     H_    0.203942 0.797110 0.155836 0.196670
H27   H     H_    0.162956 0.829558 0.272881 0.223787
C50   C     C_3   0.802392 0.025222 0.777642 -0.634717
H28   H     H_    0.809298 0.006421 0.863086 0.220732
H29   H     H_    0.847475 0.927018 0.749954 0.217968
H30   H     H_    0.827465 0.165159 0.767046 0.229348
C51   C     C_3   0.302286 0.407801 0.258022 -0.720500
H31   H     H_    0.321715 0.520246 0.314745 0.193404
H32   H     H_    0.314258 0.276251 0.299456 0.228460
H33   H     H_    0.348884 0.422526 0.202581 0.238376
C52   C     C_3   0.696727 0.520994 0.729574 -0.759987
H34   H     H_    0.688739 0.403994 0.675405 0.207268
H35   H     H_    0.645670 0.504960 0.779585 0.194044
H36   H     H_    0.678905 0.645277 0.682453 0.216354
C53   C     C_2   0.752129 0.143263 0.560575 0.306129
H37   H     H_    0.732877 0.262392 0.513200 0.080384
O21   O     O_2   0.830188 0.098568 0.577666 -0.565055
C54   C     C_2   0.241411 0.957414 0.444123 0.302426
H38   H     H_    0.230408 0.854858 0.499345 0.069533
O22   O     O_2   0.184127 0.070985 0.416309 -0.555394
C55   C     C_2   0.746077 0.405755 0.946694 0.382320
H39   H     H_    0.684971 0.477746 0.948311 0.010341
O23   O     O_2   0.755002 0.251374 0.982030 -0.530102
C56   C     C_2   0.222889 0.259907 0.048705 0.370848
H40   H     H_    0.185475 0.143624 0.011397 0.063057
O24   O     O_2   0.302285 0.273152 0.046633 -0.556872

loop_
_geom_bond_atom_site_label_1
_geom_bond_atom_site_label_2
_ccdc_geom_bond_type
C19   C43   S    
C25   C53   S    
O1    C5    A    
C48   H22   S    
C16   C36   A    
C31   C35   A    
O19   V1    S    
O13   V1    S    
C43   H7    S    
O12   C8    A    
O3    C7    A    
C11   C12   T    
C16   C48   S    
O15   V3    S    
C45   H15   S    
C49   H25   S    
C33   C38   A    
C44   H10   S    
O7    C3    A    
C51   H32   S    
C35   C40   A    
C50   H28   S    
C36   C39   A    
O9    V1    S    
C20   C44   S    
C14   C18   A    
C52   H35   S    
C46   H16   S    
O4    C8    A    
C46   H18   S    
O1    V3    S    
C54   H38   S    
O2    V4    S    
C18   C22   A    
C42   H5    S    
C45   H14   S    
C14   C34   A    
C29   C37   A    
C1    O15   A    
C2    O16   A    
C7    C9    S    
C31   C39   A    
O2    C6    A    
C27   C55   S    
C32   C40   A    
O14   V2    S    
C47   H20   S    
C16   C20   A    
C27   C31   A    
C34   C37   A    
O11   C7    A    
C48   H23   S    
C13   C17   A    
C43   H8    S    
C13   C45   S    
C28   C56   S    
O10   V2    S    
C49   H26   S    
C45   H13   S    
O5    V1    S    
C44   H11   S    
C51   H33   S    
O7    V3    S    
C46   H17   S    
O8    V4    S    
C52   H36   S    
C29   C33   A    
O18   V4    S    
C15   C19   A    
C30   C38   A    
C41   H2    S    
C23   C52   S    
C18   C42   S    
C8    C10   S    
C32   C36   A    
C42   H6    S    
O5    C1    A    
C4    C38   S    
C24   C51   S    
C21   C25   A    
C14   C46   S    
O8    C4    A    
C41   H3    S    
C15   C35   A    
C30   C34   A    
C9    C10   T    
O9    C5    A    
C26   C30   A    
C47   H21   S    
C55   O23   D    
C21   C50   S    
O6    V2    S    
C22   C49   S    
C48   H24   S    
C43   H9    S    
O12   V4    S    
C56   O24   D    
C49   H27   S    
C53   H37   S    
O16   V4    S    
C44   H12   S    
C3    O13   A    
C1    C39   S    
O17   V3    S    
C2    C40   S    
C3    C37   S    
O6    C2    A    
C23   C27   A    
C55   H39   S    
O11   V3    S    
C5    C11   S    
C50   H30   S    
C6    C12   S    
C51   H31   S    
C22   C26   A    
O10   C6    A    
O20   V2    S    
C47   H19   S    
C52   H34   S    
O3    V1    S    
C25   C29   A    
C54   O22   D    
C26   C54   S    
C17   C41   S    
C42   H4    S    
O4    V2    S    
C28   C32   A    
C24   C28   A    
C50   H29   S    
C41   H1    S    
C4    O14   A    
C17   C21   A    
C56   H40   S    
C19   C23   A    
C15   C47   S    
C13   C33   A    
C20   C24   A    
C53   O21   D    
