data_mof_unit_49361.cif
_audit_creation_date              2012-12-10T20:03:13-0500
_audit_creation_method            fapswitch 2.2
_symmetry_space_group_name_H-M    P1
_symmetry_Int_Tables_number       1
_space_group_crystal_system       triclinic
_cell_length_a                    8.573641
_cell_length_b                    19.083446
_cell_length_c                    18.467806
_cell_angle_alpha                 89.944712
_cell_angle_beta                  98.737927
_cell_angle_gamma                 90.186035
_cell_volume                      2986.51678162

loop_
_atom_site_label
_atom_site_type_symbol
_atom_type_description
_atom_site_fract_x
_atom_site_fract_y
_atom_site_fract_z
_atom_type_partial_charge
C1    C     C_R   0.498639 0.365587 0.499956 0.885497
C2    C     C_R   0.454548 0.558581 0.270675 -0.067593
C3    C     C_R   0.594725 0.547885 0.808951 0.136906
C4    C     C_R   0.457717 0.560838 0.194527 0.136750
C5    C     C_R   0.495204 0.501587 0.841041 0.111749
C6    C     C_R   0.505318 0.500713 0.158867 0.111479
C7    C     C_R   0.401165 0.454339 0.794917 -0.325516
C8    C     C_R   0.548307 0.440773 0.201389 -0.328139
C9    C     C_R   0.403855 0.454953 0.719183 0.009889
C10   C     C_R   0.546593 0.441740 0.277196 0.005042
C11   C     C_R   0.355702 0.512864 0.953563 0.190972
C12   C     C_R   0.498321 0.634592 0.499779 0.890949
C13   C     C_R   0.643718 0.487883 0.046351 0.187038
C14   C     C_R   0.362590 0.511619 0.030354 -0.197747
C15   C     C_R   0.636267 0.487721 0.969544 -0.197170
C16   C     C_R   0.200855 0.499705 0.480864 0.962756
C17   C     C_R   0.799138 0.499748 0.519141 0.981007
C18   C     C_R   0.504629 0.499110 0.077490 0.068382
C19   C     C_R   0.494110 0.499911 0.922342 0.066384
C20   C     C_2   0.035769 0.499224 0.470505 -0.385603
C21   C     C_2   0.964217 0.499258 0.529517 -0.394340
C22   C     C_R   0.351778 0.735062 0.443050 -0.261746
C23   C     C_R   0.357880 0.963670 0.548678 -0.318353
C24   C     C_R   0.343719 0.264344 0.526535 -0.267068
C25   C     C_R   0.316258 0.805895 0.439988 -0.128445
C26   C     C_R   0.306094 0.193816 0.519515 -0.125930
C27   C     C_R   0.402492 0.851915 0.489677 0.111995
C28   C     C_R   0.401548 0.148899 0.485743 0.114973
C29   C     C_R   0.522315 0.826552 0.543392 -0.251759
C30   C     C_R   0.532186 0.175343 0.456873 -0.265528
C31   C     C_R   0.554894 0.755063 0.548532 0.200610
C32   C     C_R   0.569682 0.246474 0.462713 0.206246
C33   C     C_R   0.470449 0.709413 0.497133 -0.063646
C34   C     C_R   0.375079 0.036896 0.419166 -0.319333
C35   C     C_R   0.474433 0.290755 0.498141 -0.045074
C36   C     C_3   0.201831 0.531342 0.906525 -0.930443
C37   C     C_3   0.801836 0.479300 0.093786 -0.921634
C38   C     C_3   0.635856 0.728460 0.675914 -0.795205
C39   C     C_3   0.839345 0.288009 0.486466 -0.800478
C40   C     C_3   0.521368 0.088081 0.655382 -0.782980
C41   C     C_3   0.561844 0.912303 0.346887 -0.789339
C42   C     C_3   0.613343 0.657552 0.874877 -0.791433
C43   C     C_3   0.542910 0.664910 0.137210 -0.783398
C44   C     C_R   0.361729 0.036548 0.550072 0.229996
C45   C     C_R   0.379581 0.963945 0.418634 0.231759
C46   C     C_R   0.373350 0.073351 0.484825 0.051005
C47   C     C_R   0.374095 0.927262 0.484501 0.049337
C48   C     C_R   0.596231 0.544938 0.732709 -0.076079
H1    H     H_    0.973608 0.499136 0.414563 0.184747
H2    H     H_    0.268217 0.298809 0.552324 0.150228
H3    H     H_    0.222467 0.824851 0.398731 0.146192
H4    H     H_    0.203464 0.174166 0.540873 0.145271
H5    H     H_    0.591401 0.862415 0.581009 0.143298
H6    H     H_    0.607506 0.140327 0.431671 0.139116
H7    H     H_    0.352974 0.935223 0.599146 0.151177
H8    H     H_    0.383361 0.065361 0.369049 0.149466
H9    H     H_    0.673453 0.579121 0.707652 0.143273
H10   H     H_    0.417468 0.604249 0.298139 0.132528
H11   H     H_    0.220160 0.575496 0.869489 0.247720
H12   H     H_    0.026372 0.499218 0.585464 0.179342
H13   H     H_    0.154275 0.485437 0.873545 0.239133
H14   H     H_    0.111250 0.547707 0.940139 0.239260
H15   H     H_    0.823266 0.523556 0.133074 0.247081
H16   H     H_    0.805550 0.429193 0.124383 0.241220
H17   H     H_    0.899760 0.478732 0.060694 0.234860
H18   H     H_    0.783042 0.755440 0.601700 0.219640
H19   H     H_    0.614880 0.782430 0.694779 0.227939
H20   H     H_    0.734221 0.705194 0.714353 0.230469
H21   H     H_    0.528079 0.696215 0.676974 0.261998
H22   H     H_    0.729889 0.244160 0.389415 0.219066
H23   H     H_    0.327379 0.416476 0.817421 0.153689
H24   H     H_    0.884929 0.238938 0.514384 0.232740
H25   H     H_    0.810650 0.326086 0.527868 0.238251
H26   H     H_    0.933319 0.311330 0.458672 0.241513
H27   H     H_    0.296273 0.048049 0.652444 0.218321
H28   H     H_    0.512617 0.118501 0.705816 0.237258
H29   H     H_    0.587398 0.120184 0.619959 0.258211
H30   H     H_    0.587360 0.038937 0.670952 0.229798
H31   H     H_    0.342114 0.952140 0.306245 0.218445
H32   H     H_    0.565987 0.881784 0.296062 0.236469
H33   H     H_    0.616745 0.880316 0.394185 0.255729
H34   H     H_    0.581560 0.393110 0.175987 0.153518
H35   H     H_    0.630724 0.961472 0.344403 0.231812
H36   H     H_    0.794258 0.610135 0.830874 0.218162
H37   H     H_    0.698827 0.691426 0.910186 0.238640
H38   H     H_    0.519224 0.641978 0.906857 0.259963
H39   H     H_    0.560454 0.688167 0.826119 0.234289
H40   H     H_    0.331771 0.653071 0.177141 0.217097
H41   H     H_    0.496742 0.710851 0.103809 0.237091
H42   H     H_    0.617644 0.634004 0.104976 0.257375
H43   H     H_    0.616022 0.683932 0.188341 0.232193
H44   H     H_    0.329755 0.418905 0.684053 0.130939
H45   H     H_    0.582067 0.395499 0.309307 0.151045
H46   H     H_    0.256315 0.521141 0.053956 0.154718
H47   H     H_    0.742836 0.478666 0.946030 0.156662
H48   H     H_    0.284403 0.699910 0.404029 0.151600
N1    N     N_R   0.500020 0.499980 0.689440 -0.098104
N2    N     N_R   0.499980 0.500020 0.310560 -0.099374
N3    N     N_2   0.677230 0.729893 0.602859 -0.308103
N4    N     N_2   0.701876 0.273037 0.432837 -0.310211
N5    N     N_2   0.364524 0.071982 0.618067 -0.316853
N6    N     N_2   0.399507 0.928342 0.352968 -0.316723
N7    N     N_2   0.694131 0.596672 0.852484 -0.316546
N8    N     N_2   0.412309 0.623224 0.154615 -0.315115
O1    O     O_R   0.500010 0.398180 0.560840 -0.630193
O2    O     O_R   0.499990 0.601820 0.439160 -0.636536
O3    O     O_R   0.499930 0.398180 0.439210 -0.610331
O4    O     O_R   0.500070 0.601820 0.560790 -0.597654
O5    O     O_R   0.271780 0.500000 0.546590 -0.619714
O6    O     O_R   0.728220 0.500000 0.453410 -0.605262
O7    O     O_R   0.271710 0.499990 0.424960 -0.624762
O8    O     O_R   0.728290 0.500010 0.575040 -0.626557
Zn1   Zn    Zn3+2 0.500050 0.500000 0.581210 0.941998
Zn2   Zn    Zn3+2 0.499950 0.500000 0.418790 0.944747

loop_
_geom_bond_atom_site_label_1
_geom_bond_atom_site_label_2
_ccdc_geom_bond_type
H18   N3    S    
C30   C32   A    
C34   H8    S    
C27   C29   A    
C14   C18   A    
C36   H11   S    
C42   N7    S    
C41   H32   S    
C48   H9    S    
C15   C19   A    
C48   N1    A    
C30   H6    S    
C11   C19   A    
C43   H41   S    
C13   C18   A    
O2    Zn2   S    
C8    H34   S    
C15   H47   S    
O1    Zn1   S    
C11   C36   S    
C24   C26   A    
C7    H23   S    
C11   C14   A    
N2    Zn2   S    
C27   C47   S    
C41   H35   S    
C3    C48   A    
C41   N6    S    
C39   H26   S    
C10   N2    A    
C43   N8    S    
H40   N8    S    
C40   N5    S    
H22   N4    S    
C22   C25   A    
C37   H17   S    
C39   H24   S    
C31   C33   A    
H31   N6    S    
C42   H38   S    
C31   N3    S    
O6    Zn2   S    
C13   C37   S    
O5    Zn1   S    
C38   H21   S    
C12   O4    A    
C17   O6    A    
C36   H14   S    
C9    H44   S    
O8    Zn1   S    
C37   H15   S    
C44   C46   A    
C16   O5    A    
C45   C47   A    
C24   H2    S    
C6    C18   S    
C24   C35   A    
C23   C47   A    
C43   H42   S    
C32   C35   A    
C21   H12   S    
C4    C6    A    
C34   C45   A    
C6    C8    A    
C10   H45   S    
C17   C21   S    
C23   C44   A    
C40   H28   S    
O4    Zn1   S    
C2    C4    A    
C25   H3    S    
O3    Zn2   S    
C20   H1    S    
C26   H4    S    
C16   C20   S    
C41   H33   S    
C42   H37   S    
C38   H19   S    
C1    O3    A    
C34   C46   A    
C38   H20   S    
C13   C15   A    
C40   H30   S    
N1    Zn1   S    
C36   H13   S    
C17   O8    A    
C37   H16   S    
C1    C35   S    
C5    C7    A    
C3    N7    S    
C7    C9    A    
C22   C33   A    
C9    N1    A    
C22   H48   S    
C38   N3    S    
C3    C5    A    
C44   N5    S    
C2    H10   S    
C23   H7    S    
C5    C19   S    
C25   C27   A    
C26   C28   A    
C28   C46   S    
C28   C30   A    
C29   C31   A    
C12   O2    A    
C39   N4    S    
C29   H5    S    
C4    N8    S    
O7    Zn2   S    
C39   H25   S    
C43   H43   S    
C45   N6    S    
C32   N4    S    
C20   C21   D    
C2    N2    A    
C8    C10   A    
H27   N5    S    
H36   N7    S    
C40   H29   S    
C42   H39   S    
C12   C33   S    
C14   H46   S    
C16   O7    A    
C1    O1    A    
