data_mof_unit_19283.cif
_audit_creation_date              2012-12-10T18:08:44-0500
_audit_creation_method            fapswitch 2.2
_symmetry_space_group_name_H-M    P1
_symmetry_Int_Tables_number       1
_space_group_crystal_system       triclinic
_cell_length_a                    12.759784
_cell_length_b                    13.896668
_cell_length_c                    23.593253
_cell_angle_alpha                 89.694414
_cell_angle_beta                  92.64968
_cell_angle_gamma                 98.357073
_cell_volume                      4134.66778236

loop_
_atom_site_label
_atom_site_type_symbol
_atom_type_description
_atom_site_fract_x
_atom_site_fract_y
_atom_site_fract_z
_atom_type_partial_charge
C1    C     C_R   0.483272 0.315986 0.499190 0.802751
C2    C     C_R   0.516798 0.684085 0.500307 0.801933
C3    C     C_R   0.590155 0.555843 0.240961 0.196396
C4    C     C_R   0.579902 0.454739 0.762773 0.194441
C5    C     C_R   0.588863 0.555813 0.300787 0.098223
C6    C     C_R   0.576621 0.452765 0.703148 0.149417
C7    C     C_R   0.502179 0.502592 0.328081 -0.179637
C8    C     C_R   0.499655 0.497568 0.671809 -0.197641
C9    C     C_R   0.415182 0.452983 0.295427 0.109814
C10   C     C_R   0.425606 0.543348 0.700410 0.105902
C11   C     C_R   0.413976 0.458723 0.235783 0.198019
C12   C     C_R   0.423707 0.538263 0.760074 0.210807
C13   C     C_R   0.502304 0.508054 0.208804 0.234943
C14   C     C_R   0.501017 0.494229 0.791071 0.207831
C15   C     C_1   0.527205 0.787293 0.500812 -0.174093
C16   C     C_1   0.473180 0.212916 0.499454 -0.173667
C17   C     C_2   0.545086 0.978553 0.503891 -0.028718
C18   C     C_2   0.456235 0.021861 0.502487 -0.029472
C19   C     C_1   0.464661 0.125993 0.500366 -0.044311
C20   C     C_1   0.536309 0.874311 0.501810 -0.043050
C21   C     C_2   0.028974 0.477401 0.480508 -0.126282
C22   C     C_2   0.969479 0.516245 0.519373 -0.129660
C23   C     C_R   0.500814 0.500586 0.390778 0.876766
C24   C     C_R   0.499465 0.499105 0.609170 0.879053
C25   C     C_1   0.853619 0.515139 0.512537 0.169072
C26   C     C_1   0.145778 0.482061 0.487557 0.168038
C27   C     C_R   0.527799 0.581694 0.879792 0.603889
C28   C     C_R   0.500851 0.420580 0.120595 0.592532
C29   C     C_R   0.472347 0.410583 0.880565 0.519771
C30   C     C_R   0.503456 0.592361 0.118419 0.585913
C31   C     C_R   0.474193 0.409614 0.940626 -0.097944
C32   C     C_R   0.507049 0.593529 0.058487 -0.093907
C33   C     C_R   0.495796 0.499970 0.969740 -0.077833
C34   C     C_R   0.497187 0.502841 0.029730 -0.079038
C35   C     C_R   0.515927 0.587566 0.938735 -0.068793
C36   C     C_R   0.489134 0.414854 0.060970 -0.077765
C37   C     C_R   0.455375 0.322209 0.972373 -0.065481
C38   C     C_R   0.517967 0.681348 0.026494 -0.083999
C39   C     C_R   0.467163 0.324514 0.031865 0.210366
C40   C     C_R   0.523417 0.678190 0.966924 0.213848
Cu1   Cu    Cu3+1 0.395330 0.493960 0.496390 0.992497
Cu2   Cu    Cu3+1 0.604670 0.506040 0.503610 0.991857
N1    N     N_R   0.502197 0.495101 0.852105 -0.427098
N2    N     N_R   0.503200 0.507356 0.147702 -0.421197
N3    N     N_1   0.238030 0.484870 0.490960 -0.149282
N4    N     N_1   0.761970 0.515130 0.509040 -0.149883
O1    O     O_R   0.399110 0.356330 0.496510 -0.577278
O2    O     O_R   0.600890 0.643670 0.503490 -0.574976
O3    O     O_R   0.575900 0.366540 0.502610 -0.562454
O4    O     O_R   0.424100 0.633460 0.497390 -0.562915
O5    O     O_R   0.411590 0.494870 0.414830 -0.548963
O6    O     O_R   0.588410 0.505130 0.585170 -0.551950
O7    O     O_R   0.588370 0.505070 0.420930 -0.552635
O8    O     O_R   0.411630 0.494930 0.579070 -0.550633
O9    O     O_2   0.565283 0.661391 0.849902 -0.516978
O10   O     O_2   0.510461 0.340699 0.151941 -0.567619
O11   O     O_2   0.442449 0.328354 0.850294 -0.564198
O12   O     O_2   0.499489 0.674663 0.147735 -0.537971
C41   C     C_R   0.422179 0.226052 0.945179 0.236103
C42   C     C_R   0.314976 0.196383 0.929392 -0.085351
C43   C     C_R   0.282681 0.104607 0.905308 -0.139676
C44   C     C_R   0.356967 0.041887 0.897255 -0.116857
C45   C     C_R   0.463721 0.070703 0.913440 -0.131693
C46   C     C_R   0.496417 0.162569 0.937434 -0.107052
H1    H     H_    0.256791 0.244321 0.935814 0.108595
H2    H     H_    0.200043 0.082014 0.892990 0.124519
H3    H     H_    0.331546 0.970996 0.878522 0.120610
H4    H     H_    0.521118 0.021904 0.907470 0.132548
H5    H     H_    0.579124 0.184212 0.950094 0.110157
C47   C     C_R   0.524285 0.778024 0.053798 0.187748
C48   C     C_R   0.431761 0.819672 0.060559 -0.100383
C49   C     C_R   0.438171 0.912320 0.084464 -0.123912
C50   C     C_R   0.536748 0.963557 0.101948 -0.100236
C51   C     C_R   0.629081 0.922142 0.095644 -0.141619
C52   C     C_R   0.623065 0.829614 0.071592 -0.123572
H6    H     H_    0.355060 0.780528 0.047098 0.111603
H7    H     H_    0.366764 0.944427 0.089391 0.122320
H8    H     H_    0.541565 0.035277 0.120420 0.129700
H9    H     H_    0.705339 0.961884 0.109222 0.124528
H10   H     H_    0.695029 0.798347 0.066514 0.119989
N5    N     N_2   0.450796 0.234161 0.061425 -0.416854
H11   H     H_    0.513953 0.213099 0.084669 0.276184
C53   C     C_3   0.345350 0.201811 0.080656 -0.626908
H12   H     H_    0.345635 0.205894 0.127637 0.247678
H13   H     H_    0.320189 0.125153 0.067364 0.208445
H14   H     H_    0.286747 0.246643 0.062300 0.215158
N6    N     N_2   0.532015 0.766316 0.934853 -0.375948
H15   H     H_    0.579634 0.825588 0.952838 0.244732
C54   C     C_3   0.432954 0.789449 0.909867 -0.631100
H16   H     H_    0.450062 0.846435 0.877137 0.222484
H17   H     H_    0.385388 0.816869 0.942778 0.193624
H18   H     H_    0.385918 0.724665 0.888949 0.244032
N7    N     N_2   0.677013 0.607489 0.212275 -0.394215
H19   H     H_    0.711866 0.671760 0.231007 0.263230
C55   C     C_3   0.753025 0.548381 0.193326 -0.710518
H20   H     H_    0.811458 0.593280 0.167066 0.225659
H21   H     H_    0.713113 0.486563 0.167024 0.248713
H22   H     H_    0.796000 0.520064 0.230265 0.209437
N8    N     N_2   0.663608 0.417320 0.793758 -0.424967
H23   H     H_    0.640630 0.374021 0.827811 0.281383
C56   C     C_3   0.754777 0.489251 0.807806 -0.706221
H24   H     H_    0.819521 0.452715 0.827120 0.223362
H25   H     H_    0.733973 0.542653 0.838707 0.246226
H26   H     H_    0.784126 0.528160 0.769080 0.238308
N9    N     N_2   0.674173 0.609300 0.333768 -0.407738
H27   H     H_    0.748370 0.609378 0.318267 0.245166
C57   C     C_3   0.655494 0.704849 0.351137 -0.654507
H28   H     H_    0.649619 0.752548 0.313534 0.214596
H29   H     H_    0.722231 0.738050 0.379857 0.216996
H30   H     H_    0.581221 0.699925 0.374420 0.222299
N10   N     N_2   0.649698 0.403955 0.674440 -0.387070
H31   H     H_    0.724841 0.410199 0.693321 0.279088
C58   C     C_3   0.608743 0.304924 0.658259 -0.641929
H32   H     H_    0.593563 0.259259 0.696656 0.229338
H33   H     H_    0.667768 0.274911 0.633061 0.211945
H34   H     H_    0.534149 0.302216 0.631722 0.212550
N11   N     N_2   0.328710 0.398033 0.322908 -0.396498
H35   H     H_    0.254667 0.401483 0.304304 0.258050
C59   C     C_3   0.344996 0.300333 0.338659 -0.658465
H36   H     H_    0.350625 0.256047 0.300152 0.211590
H37   H     H_    0.277211 0.265691 0.363058 0.218917
H38   H     H_    0.418648 0.301656 0.365835 0.222637
N12   N     N_2   0.353804 0.594817 0.668840 -0.395323
H39   H     H_    0.280195 0.590657 0.685248 0.268983
C60   C     C_3   0.397265 0.693071 0.653758 -0.658160
H40   H     H_    0.416504 0.738454 0.692516 0.214726
H41   H     H_    0.338005 0.725057 0.626623 0.220126
H42   H     H_    0.469967 0.693633 0.629564 0.221253
N13   N     N_2   0.325788 0.412139 0.201933 -0.405571
H43   H     H_    0.290069 0.346311 0.217020 0.258529
C61   C     C_3   0.250860 0.475459 0.182893 -0.707199
H44   H     H_    0.188676 0.434480 0.154284 0.222218
H45   H     H_    0.291092 0.538110 0.158940 0.250393
H46   H     H_    0.212546 0.502718 0.219730 0.220857
N14   N     N_2   0.348488 0.582515 0.789968 -0.418112
H47   H     H_    0.326121 0.645809 0.773695 0.253645
C62   C     C_3   0.265479 0.517659 0.816325 -0.711280
H48   H     H_    0.187135 0.526917 0.796370 0.204500
H49   H     H_    0.265930 0.535783 0.862096 0.231001
H50   H     H_    0.276239 0.440071 0.812123 0.253819
C63   C     C_R   0.347418 0.966120 0.500835 0.145233
C64   C     C_R   0.273359 0.983167 0.457300 -0.142894
C65   C     C_R   0.170521 0.931880 0.455905 -0.144313
C66   C     C_R   0.140598 0.863740 0.498067 -0.100781
C67   C     C_R   0.213258 0.847245 0.541908 -0.134553
C68   C     C_R   0.316100 0.898495 0.543538 -0.139947
H51   H     H_    0.295487 0.035645 0.424262 0.124730
H52   H     H_    0.114003 0.945002 0.422136 0.121291
H53   H     H_    0.060985 0.824133 0.496861 0.117597
H54   H     H_    0.189797 0.795148 0.574804 0.136062
H55   H     H_    0.371087 0.886134 0.578231 0.123222
C69   C     C_R   0.653815 0.034684 0.505129 0.143220
C70   C     C_R   0.724529 0.018615 0.463388 -0.144340
C71   C     C_R   0.826791 0.071157 0.464367 -0.138571
C72   C     C_R   0.859517 0.139522 0.507167 -0.088941
C73   C     C_R   0.790245 0.155210 0.549199 -0.129306
C74   C     C_R   0.687992 0.102713 0.548452 -0.138384
H56   H     H_    0.700147 0.966082 0.429844 0.125048
H57   H     H_    0.880694 0.058849 0.431947 0.117994
H58   H     H_    0.938722 0.179953 0.507968 0.119718
H59   H     H_    0.816031 0.207747 0.582509 0.124823
H60   H     H_    0.635606 0.114618 0.581719 0.123618
C75   C     C_R   0.015668 0.552066 0.575246 0.137947
C76   C     C_R   0.006788 0.646829 0.592817 -0.151011
C77   C     C_R   0.035158 0.676133 0.648693 -0.138939
C78   C     C_R   0.069932 0.610352 0.687705 -0.138190
C79   C     C_R   0.078132 0.515621 0.670634 -0.155633
C80   C     C_R   0.052189 0.486745 0.614483 -0.109726
H61   H     H_    0.975874 0.697213 0.563562 0.116691
H62   H     H_    0.028351 0.749299 0.661991 0.130681
H63   H     H_    0.090564 0.632823 0.731123 0.123463
H64   H     H_    0.104593 0.464504 0.700916 0.133377
H65   H     H_    0.056358 0.412450 0.602184 0.118249
C81   C     C_R   0.977843 0.424515 0.429368 0.128958
C82   C     C_R   0.002137 0.331566 0.416850 -0.145797
C83   C     C_R   0.952384 0.279152 0.370219 -0.139276
C84   C     C_R   0.878102 0.318933 0.335532 -0.107268
C85   C     C_R   0.854503 0.411703 0.346999 -0.131935
C86   C     C_R   0.905048 0.465002 0.393159 -0.121469
H66   H     H_    0.058384 0.298897 0.443739 0.116244
H67   H     H_    0.970855 0.207336 0.361255 0.117984
H68   H     H_    0.838945 0.277959 0.299713 0.126882
H69   H     H_    0.796695 0.442106 0.320195 0.132173
H70   H     H_    0.887094 0.537536 0.400597 0.127949

loop_
_geom_bond_atom_site_label_1
_geom_bond_atom_site_label_2
_ccdc_geom_bond_type
C24   O6    A    
C38   C40   A    
C21   C26   S    
C38   C47   S    
C77   C78   A    
C9    N11   S    
Cu1   Cu2   S    
N10   H31   S    
N6    H15   S    
C61   H46   S    
C81   C86   A    
N5    H11   S    
C28   O10   S    
C55   H22   S    
N14   H47   S    
C5    N9    S    
C62   H49   S    
C41   C46   A    
C56   H24   S    
C44   H3    S    
C40   N6    S    
C76   C77   A    
C58   H32   S    
N11   C59   S    
Cu2   O7    S    
C67   C68   A    
C48   H6    S    
C33   C35   A    
C27   O9    S    
N12   C60   S    
N7    C55   S    
C24   O8    A    
C65   C66   A    
C30   O12   S    
C17   C20   S    
C17   C18   D    
C18   C19   S    
C50   C51   A    
C70   H56   S    
C81   C82   A    
C2    O4    A    
C26   N3    T    
N7    H19   S    
C45   H4    S    
C43   H2    S    
C6    N10   S    
C55   H20   S    
C12   N14   S    
C60   H42   S    
C50   H8    S    
C31   C33   A    
C47   C48   A    
C32   C38   A    
C54   H17   S    
C52   H10   S    
C85   H69   S    
C3    C13   A    
C49   C50   A    
C58   H34   S    
C62   H48   S    
C41   C42   A    
C56   H25   S    
N14   C62   S    
C21   C22   D    
C29   N1    A    
C57   H29   S    
C30   N2    A    
C76   H61   S    
C83   H67   S    
C11   N13   S    
N5    C53   S    
C23   O7    A    
C59   H37   S    
C80   H65   S    
C37   C39   A    
C62   H50   S    
C51   C52   A    
C85   C86   A    
N12   H39   S    
C39   N5    S    
C4    C6    A    
C10   N12   S    
C79   C80   A    
C5    C7    A    
C1    O1    A    
C6    C8    A    
Cu2   O3    S    
C27   C35   A    
C22   C25   S    
C31   C37   A    
C15   C20   T    
C32   C34   A    
C66   H53   S    
N9    C57   S    
C23   O5    A    
C53   H12   S    
C57   H28   S    
C44   C45   A    
C33   C34   A    
Cu1   O1    S    
N10   C58   S    
C1    C16   S    
Cu2   O2    S    
C46   H5    S    
C54   H18   S    
C2    C15   S    
C9    C11   A    
C71   C72   A    
C37   C41   S    
C10   C12   A    
C63   C68   A    
C83   C84   A    
N8    C56   S    
C12   C14   A    
C73   H59   S    
C21   C81   S    
C56   H26   S    
C51   H9    S    
N6    C54   S    
Cu2   N4    S    
C78   C79   A    
C57   H30   S    
C17   C69   S    
C61   H44   S    
C3    C5    A    
Cu1   O4    S    
C72   C73   A    
C71   H57   S    
N13   H43   S    
C86   H70   S    
C59   H38   S    
C77   H62   S    
C7    C9    A    
C69   C74   A    
C73   C74   A    
C3    N7    S    
C53   H13   S    
C72   H58   S    
C64   H51   S    
C36   C39   A    
C67   H54   S    
C29   O11   S    
C66   C67   A    
C61   H45   S    
C42   H1    S    
C49   H7    S    
C59   H36   S    
C55   H21   S    
C79   H64   S    
Cu1   O5    S    
C68   H55   S    
N9    H27   S    
N8    H23   S    
C2    O2    A    
C65   H52   S    
C75   C80   A    
C70   C71   A    
C48   C49   A    
C29   C31   A    
C82   C83   A    
N11   H35   S    
C30   C32   A    
C22   C75   S    
C11   C13   A    
C60   H40   S    
C16   C19   T    
C7    C23   S    
C74   H60   S    
C8    C24   S    
C28   N2    A    
C35   C40   A    
C34   C36   A    
C4    C14   A    
C43   C44   A    
Cu1   O8    S    
C75   C76   A    
C82   H66   S    
C45   C46   A    
C27   N1    A    
C78   H63   S    
C53   H14   S    
C69   C70   A    
C28   C36   A    
C8    C10   A    
C84   C85   A    
C4    N8    S    
C47   C52   A    
C60   H41   S    
Cu1   N3    S    
C64   C65   A    
C42   C43   A    
N13   C61   S    
C54   H16   S    
C63   C64   A    
C1    O3    A    
C25   N4    T    
C18   C63   S    
C13   N2    S    
C84   H68   S    
Cu2   O6    S    
C14   N1    S    
C58   H33   S    
