data_mof_unit_62724.cif
_audit_creation_date              2012-12-10T18:24:39-0500
_audit_creation_method            fapswitch 2.2
_symmetry_space_group_name_H-M    P1
_symmetry_Int_Tables_number       1
_space_group_crystal_system       triclinic
_cell_length_a                    30.361103
_cell_length_b                    30.358291
_cell_length_c                    24.724291
_cell_angle_alpha                 89.999067
_cell_angle_beta                  128.43071
_cell_angle_gamma                 89.999925
_cell_volume                      17851.7309678

loop_
_atom_site_label
_atom_site_type_symbol
_atom_type_description
_atom_site_fract_x
_atom_site_fract_y
_atom_site_fract_z
_atom_type_partial_charge
C1    C     C_R   0.811559 0.810708 0.501827 0.832371
C2    C     C_R   0.188441 0.810708 0.498174 0.832369
C3    C     C_R   0.311560 0.310708 0.501828 0.832374
C4    C     C_R   0.688432 0.310707 0.498156 0.832361
C5    C     C_R   0.643756 0.750162 0.289812 -0.057208
C6    C     C_R   0.356241 0.750162 0.710188 -0.057204
C7    C     C_R   0.143756 0.250162 0.289812 -0.057220
C8    C     C_R   0.856241 0.250162 0.710187 -0.057218
C9    C     C_R   0.467240 0.750746 0.930381 0.279716
C10   C     C_R   0.532751 0.750746 0.069618 0.279717
C11   C     C_R   0.967240 0.250746 0.930381 0.279716
C12   C     C_R   0.032750 0.250746 0.069618 0.279716
C13   C     C_3   0.908935 0.832948 0.554538 -0.397109
C14   C     C_3   0.091066 0.832949 0.445466 -0.397106
C15   C     C_3   0.408935 0.332945 0.554531 -0.397108
C16   C     C_3   0.591064 0.332894 0.445591 -0.396999
C17   C     C_3   0.944450 0.867590 0.551930 -0.399643
C18   C     C_3   0.055551 0.867590 0.448074 -0.399647
C19   C     C_3   0.444449 0.367587 0.551923 -0.399631
C20   C     C_3   0.555562 0.367543 0.448208 -0.399755
C21   C     C_3   0.829163 0.847218 0.428647 -0.410898
C22   C     C_3   0.170840 0.847217 0.571356 -0.410891
C23   C     C_3   0.329158 0.347222 0.428645 -0.410907
C24   C     C_3   0.670947 0.347301 0.571392 -0.410940
C25   C     C_3   0.835816 0.890591 0.520690 -0.371233
C26   C     C_3   0.164182 0.890591 0.479307 -0.371237
C27   C     C_3   0.335822 0.390589 0.520701 -0.371223
C28   C     C_3   0.664064 0.390567 0.479107 -0.371302
C29   C     C_3   0.845631 0.844729 0.501621 0.174735
C30   C     C_3   0.154370 0.844730 0.498380 0.174733
C31   C     C_3   0.345631 0.344730 0.501622 0.174736
C32   C     C_3   0.654363 0.344730 0.498365 0.174735
C33   C     C_3   0.905823 0.904342 0.499611 0.181473
C34   C     C_3   0.094178 0.904343 0.500391 0.181460
C35   C     C_3   0.405822 0.404343 0.499611 0.181482
C36   C     C_3   0.594186 0.404350 0.500390 0.181468
C37   C     C_3   0.863673 0.883281 0.426826 -0.373619
C38   C     C_3   0.136330 0.883281 0.573177 -0.373624
C39   C     C_3   0.363667 0.383286 0.426824 -0.373615
C40   C     C_3   0.636442 0.383367 0.573217 -0.373552
C41   C     C_3   0.872584 0.925543 0.521226 -0.418981
C42   C     C_3   0.127414 0.925543 0.478772 -0.418965
C43   C     C_3   0.372591 0.425542 0.521237 -0.419010
C44   C     C_3   0.627306 0.425523 0.478587 -0.418941
C45   C     C_R   0.682445 0.750023 0.365378 0.873660
C46   C     C_R   0.317554 0.750023 0.634622 0.873642
C47   C     C_R   0.182445 0.250023 0.365378 0.873709
C48   C     C_R   0.817554 0.250023 0.634622 0.873701
C49   C     C_R   0.836258 0.764585 0.746086 -0.174157
C50   C     C_R   0.163738 0.764594 0.253912 -0.174083
C51   C     C_R   0.336254 0.264576 0.746086 -0.174372
C52   C     C_R   0.663744 0.264580 0.253912 -0.174253
C53   C     C_R   0.871941 0.763530 0.817902 -0.157632
C54   C     C_R   0.128056 0.763539 0.182096 -0.157630
C55   C     C_R   0.371937 0.263520 0.817902 -0.157634
C56   C     C_R   0.628061 0.263524 0.182096 -0.157632
C57   C     C_R   0.927119 0.747794 0.854568 0.086021
C58   C     C_R   0.072881 0.747797 0.145431 0.086012
C59   C     C_R   0.427116 0.247787 0.854568 0.086044
C60   C     C_R   0.572883 0.247792 0.145432 0.086031
C61   C     C_R   0.945942 0.732682 0.818466 -0.158701
C62   C     C_R   0.054061 0.732680 0.181534 -0.158708
C63   C     C_R   0.445940 0.232680 0.818466 -0.158687
C64   C     C_R   0.554059 0.232685 0.181535 -0.158695
C65   C     C_R   0.909945 0.733035 0.746637 -0.196290
C66   C     C_R   0.090058 0.733033 0.253363 -0.196326
C67   C     C_R   0.409944 0.233035 0.746637 -0.196177
C68   C     C_R   0.590055 0.233039 0.253364 -0.196241
C69   C     C_R   0.855010 0.749213 0.710063 -0.026864
C70   C     C_R   0.144989 0.749216 0.289937 -0.026893
C71   C     C_R   0.355008 0.249210 0.710062 -0.026787
C72   C     C_R   0.644991 0.249214 0.289938 -0.026821
C73   C     C_R   0.034998 0.747400 0.069819 0.284019
C74   C     C_R   0.965002 0.747398 0.930181 0.284017
C75   C     C_R   0.534999 0.247393 0.069819 0.284026
C76   C     C_R   0.465000 0.247391 0.930181 0.284026
C77   C     C_3   0.695935 0.621374 0.561635 -0.135211
C78   C     C_3   0.304071 0.621428 0.438287 -0.135280
C79   C     C_3   0.195954 0.121230 0.561426 -0.135024
C80   C     C_3   0.804055 0.121310 0.438459 -0.135127
C81   C     C_3   0.659972 0.584657 0.560126 -0.423051
C82   C     C_3   0.340027 0.584714 0.439777 -0.422946
C83   C     C_3   0.159972 0.084506 0.559865 -0.423317
C84   C     C_3   0.840027 0.084589 0.439992 -0.423167
C85   C     C_3   0.614249 0.675155 0.511428 -0.365696
C86   C     C_3   0.385835 0.675160 0.488721 -0.365667
C87   C     C_3   0.114482 0.175142 0.511838 -0.365759
C88   C     C_3   0.885643 0.175149 0.488382 -0.365718
C89   C     C_R   0.689856 0.689366 0.501095 0.846576
C90   C     C_R   0.310151 0.689366 0.498919 0.846580
C91   C     C_R   0.189877 0.189366 0.501135 0.846572
C92   C     C_R   0.810134 0.189366 0.498886 0.846575
C93   C     C_3   0.622791 0.630311 0.432566 -0.444089
C94   C     C_3   0.377130 0.630247 0.567391 -0.444036
C95   C     C_3   0.122578 0.130480 0.432452 -0.444243
C96   C     C_3   0.877306 0.130386 0.567485 -0.444167
C97   C     C_3   0.656617 0.655034 0.502405 0.123221
C98   C     C_3   0.343390 0.655033 0.497607 0.123216
C99   C     C_3   0.156637 0.155035 0.502442 0.123244
C100  C     C_3   0.843373 0.155034 0.497577 0.123236
C101  C     C_3   0.596594 0.593449 0.500969 0.155600
C102  C     C_3   0.403401 0.593444 0.499030 0.155607
C103  C     C_3   0.096585 0.093461 0.500970 0.155594
C104  C     C_3   0.903409 0.093454 0.499028 0.155615
C105  C     C_3   0.580291 0.638500 0.512953 -0.421629
C106  C     C_3   0.419798 0.638505 0.487204 -0.421653
C107  C     C_3   0.080538 0.138484 0.513385 -0.421636
C108  C     C_3   0.919595 0.138493 0.486847 -0.421669
C109  C     C_3   0.586498 0.594464 0.431112 -0.380219
C110  C     C_3   0.413407 0.594390 0.568831 -0.380318
C111  C     C_3   0.086241 0.094662 0.430966 -0.379931
C112  C     C_3   0.913619 0.094553 0.568953 -0.380081
C113  C     C_R   0.060061 0.938383 0.500333 0.826922
C114  C     C_R   0.939940 0.938382 0.499668 0.826895
C115  C     C_R   0.560070 0.438391 0.500334 0.826887
C116  C     C_R   0.439940 0.438383 0.499668 0.826889
C117  C     C_R   0.437795 0.559381 0.499723 0.848286
C118  C     C_R   0.562199 0.559387 0.500276 0.848279
C119  C     C_R   0.937807 0.059395 0.499724 0.848268
C120  C     C_R   0.062184 0.059403 0.500274 0.848296
C121  C     C_R   0.817320 0.749817 0.634598 0.866496
C122  C     C_R   0.182680 0.749818 0.365401 0.866529
C123  C     C_R   0.317319 0.249816 0.634598 0.866405
C124  C     C_R   0.682681 0.249817 0.365402 0.866432
C125  C     C_R   0.600998 0.781901 0.254276 -0.234901
C126  C     C_R   0.398996 0.781902 0.745724 -0.234901
C127  C     C_R   0.100997 0.281900 0.254276 -0.234906
C128  C     C_R   0.898996 0.281902 0.745724 -0.234905
C129  C     C_R   0.563824 0.782471 0.182353 0.021383
C130  C     C_R   0.436168 0.782472 0.817647 0.021382
C131  C     C_R   0.063823 0.282470 0.182353 0.021388
C132  C     C_R   0.936168 0.282472 0.817647 0.021388
C133  C     C_R   0.569417 0.750753 0.145181 0.041555
C134  C     C_R   0.430575 0.750753 0.854819 0.041555
C135  C     C_R   0.069417 0.250752 0.145180 0.041555
C136  C     C_R   0.930575 0.250753 0.854819 0.041554
C137  C     C_R   0.611683 0.718661 0.181000 -0.176085
C138  C     C_R   0.388312 0.718661 0.819000 -0.176085
C139  C     C_R   0.111684 0.218662 0.181000 -0.176083
C140  C     C_R   0.888312 0.218661 0.819000 -0.176082
C141  C     C_R   0.648753 0.718472 0.252740 -0.198231
C142  C     C_R   0.351245 0.718471 0.747260 -0.198233
C143  C     C_R   0.148753 0.218472 0.252740 -0.198224
C144  C     C_R   0.851245 0.218471 0.747260 -0.198228
H1    H     H_    0.596440 0.806335 0.282491 0.161277
H2    H     H_    0.403554 0.806336 0.717508 0.161278
H3    H     H_    0.096439 0.306334 0.282491 0.161274
H4    H     H_    0.903553 0.306337 0.717508 0.161273
H5    H     H_    0.886781 0.868797 0.409570 0.163361
H6    H     H_    0.113224 0.868797 0.590436 0.163362
H7    H     H_    0.386770 0.368803 0.409560 0.163375
H8    H     H_    0.613421 0.368901 0.590603 0.163477
H9    H     H_    0.790884 0.900405 0.482567 0.182676
H10   H     H_    0.209114 0.900405 0.517428 0.182680
H11   H     H_    0.290890 0.400406 0.482583 0.182672
H12   H     H_    0.708991 0.400423 0.517124 0.182726
H13   H     H_    0.846092 0.889196 0.572433 0.165958
H14   H     H_    0.153905 0.889196 0.427564 0.165955
H15   H     H_    0.346102 0.389191 0.572445 0.165953
H16   H     H_    0.653703 0.389111 0.427321 0.165874
H17   H     H_    0.901964 0.940016 0.573881 0.175766
H18   H     H_    0.098033 0.940016 0.426116 0.175771
H19   H     H_    0.401975 0.440011 0.573893 0.175768
H20   H     H_    0.597851 0.439939 0.425901 0.175853
H21   H     H_    0.845586 0.952743 0.485144 0.151743
H22   H     H_    0.154413 0.952742 0.514852 0.151749
H23   H     H_    0.345592 0.452744 0.485160 0.151728
H24   H     H_    0.654301 0.452760 0.514570 0.151658
H25   H     H_    0.783507 0.854628 0.389680 0.161847
H26   H     H_    0.216496 0.854628 0.610320 0.161851
H27   H     H_    0.283501 0.354635 0.389684 0.161845
H28   H     H_    0.716600 0.354756 0.610258 0.161910
H29   H     H_    0.834537 0.908793 0.388425 0.183477
H30   H     H_    0.165466 0.908793 0.611575 0.183480
H31   H     H_    0.334531 0.408800 0.388429 0.183463
H32   H     H_    0.665572 0.408922 0.611517 0.183399
H33   H     H_    0.793855 0.776946 0.718751 0.152898
H34   H     H_    0.206139 0.776959 0.281246 0.152923
H35   H     H_    0.293850 0.276934 0.718751 0.152831
H36   H     H_    0.706148 0.276938 0.281247 0.152865
H37   H     H_    0.856592 0.775536 0.844703 0.146911
H38   H     H_    0.143403 0.775549 0.155295 0.146913
H39   H     H_    0.356586 0.275522 0.844703 0.146901
H40   H     H_    0.643411 0.275526 0.155294 0.146905
H41   H     H_    0.988271 0.720193 0.845697 0.147987
H42   H     H_    0.011734 0.720187 0.154304 0.147989
H43   H     H_    0.488270 0.220193 0.845696 0.147985
H44   H     H_    0.511729 0.220198 0.154306 0.147985
H45   H     H_    0.925264 0.721125 0.719750 0.151360
H46   H     H_    0.074740 0.721118 0.280251 0.151368
H47   H     H_    0.425264 0.221129 0.719750 0.151346
H48   H     H_    0.574735 0.221133 0.280252 0.151352
H49   H     H_    0.724375 0.605819 0.553104 0.143460
H50   H     H_    0.275581 0.605863 0.446728 0.143446
H51   H     H_    0.224254 0.105702 0.552647 0.143502
H52   H     H_    0.775680 0.105767 0.447104 0.143481
H53   H     H_    0.672039 0.552223 0.551776 0.139764
H54   H     H_    0.327896 0.552269 0.448006 0.139800
H55   H     H_    0.171859 0.052102 0.551183 0.139685
H56   H     H_    0.828043 0.052169 0.448494 0.139731
H57   H     H_    0.667983 0.582502 0.610573 0.193356
H58   H     H_    0.332079 0.582618 0.389364 0.193373
H59   H     H_    0.168152 0.082196 0.610401 0.193304
H60   H     H_    0.831939 0.082365 0.389504 0.193332
H61   H     H_    0.636832 0.694686 0.559950 0.178975
H62   H     H_    0.363315 0.694727 0.440238 0.179037
H63   H     H_    0.137236 0.194578 0.560465 0.178803
H64   H     H_    0.862982 0.194638 0.439812 0.178894
H65   H     H_    0.588754 0.638780 0.563709 0.175771
H66   H     H_    0.411412 0.638832 0.436493 0.175675
H67   H     H_    0.089210 0.138641 0.564265 0.176024
H68   H     H_    0.911037 0.138718 0.436035 0.175885
H69   H     H_    0.595386 0.653747 0.389141 0.169027
H70   H     H_    0.404538 0.653643 0.610875 0.169000
H71   H     H_    0.095183 0.154022 0.389190 0.169095
H72   H     H_    0.904706 0.153870 0.610835 0.169055
H73   H     H_    0.651697 0.614879 0.424692 0.180418
H74   H     H_    0.348169 0.614815 0.575173 0.180457
H75   H     H_    0.151332 0.115049 0.424328 0.180310
H76   H     H_    0.848469 0.114955 0.575474 0.180369
H77   H     H_    0.596931 0.561862 0.421049 0.160817
H78   H     H_    0.402897 0.561781 0.578774 0.160743
H79   H     H_    0.096465 0.062081 0.420575 0.161024
H80   H     H_    0.903281 0.061960 0.579166 0.160912
H81   H     H_    0.616691 0.694113 0.153380 0.152177
H82   H     H_    0.383304 0.694112 0.846621 0.152176
H83   H     H_    0.116692 0.194114 0.153380 0.152176
H84   H     H_    0.883305 0.194111 0.846620 0.152176
H85   H     H_    0.541500 0.601444 0.387774 0.191148
H86   H     H_    0.458402 0.601318 0.612240 0.191187
H87   H     H_    0.041234 0.101779 0.387822 0.191037
H88   H     H_    0.958621 0.101594 0.612202 0.191096
H89   H     H_    0.584761 0.697924 0.467890 0.180365
H90   H     H_    0.415313 0.697896 0.532315 0.180309
H91   H     H_    0.084968 0.197996 0.468455 0.180508
H92   H     H_    0.915144 0.197956 0.531849 0.180426
H93   H     H_    0.534527 0.644756 0.472326 0.159916
H94   H     H_    0.465559 0.644723 0.527910 0.160001
H95   H     H_    0.034767 0.144841 0.472975 0.159667
H96   H     H_    0.965362 0.144794 0.527375 0.159792
H97   H     H_    0.681230 0.693498 0.279098 0.158323
H98   H     H_    0.318769 0.693497 0.720903 0.158323
H99   H     H_    0.181231 0.193499 0.279098 0.158323
H100  H     H_    0.818770 0.193496 0.720903 0.158322
H101  H     H_    0.917504 0.800029 0.543054 0.184251
H102  H     H_    0.082498 0.800030 0.456954 0.184252
H103  H     H_    0.417501 0.300027 0.543040 0.184253
H104  H     H_    0.582573 0.299991 0.457214 0.184281
H105  H     H_    0.921541 0.831506 0.607493 0.156270
H106  H     H_    0.078458 0.831507 0.392511 0.156270
H107  H     H_    0.421546 0.331500 0.607488 0.156270
H108  H     H_    0.578376 0.331389 0.392599 0.156276
H109  H     H_    0.975770 0.881520 0.604584 0.185957
H110  H     H_    0.024229 0.881521 0.395420 0.185958
H111  H     H_    0.475774 0.381514 0.604578 0.185954
H112  H     H_    0.524171 0.381419 0.395531 0.185930
H113  H     H_    0.968226 0.851717 0.536529 0.148168
H114  H     H_    0.031777 0.851718 0.463479 0.148168
H115  H     H_    0.468220 0.351716 0.536514 0.148172
H116  H     H_    0.531871 0.351693 0.463745 0.148148
H117  H     H_    0.837034 0.815006 0.414492 0.177114
H118  H     H_    0.162971 0.815006 0.585513 0.177112
H119  H     H_    0.337024 0.315011 0.414483 0.177112
H120  H     H_    0.663162 0.315105 0.585682 0.177050
N1    N     N_R   0.516251 0.712208 0.034269 -0.176828
N2    N     N_R   0.483743 0.712208 0.965733 -0.176828
N3    N     N_R   0.016251 0.212208 0.034269 -0.176826
N4    N     N_R   0.983744 0.212208 0.965733 -0.176827
N5    N     N_R   0.483811 0.789224 0.965776 -0.152675
N6    N     N_R   0.516177 0.789224 0.034221 -0.152675
N7    N     N_R   0.983810 0.289224 0.965776 -0.152679
N8    N     N_R   0.016176 0.289223 0.034221 -0.152680
N9    N     N_R   0.021542 0.747287 0.966163 -0.178239
N10   N     N_R   0.978459 0.747282 0.033837 -0.178241
N11   N     N_R   0.521540 0.247273 0.966162 -0.178242
N12   N     N_R   0.478459 0.247283 0.033838 -0.178243
N13   N     N_R   0.055936 0.747444 0.034775 -0.175169
N14   N     N_R   0.944065 0.747437 0.965225 -0.175173
N15   N     N_R   0.555935 0.247430 0.034774 -0.175173
N16   N     N_R   0.444064 0.247438 0.965226 -0.175183
O1    O     O_R   0.822450 0.770150 0.500010 -0.629961
O2    O     O_R   0.177550 0.770150 0.499990 -0.629961
O3    O     O_R   0.322450 0.270150 0.500010 -0.629963
O4    O     O_R   0.677550 0.270150 0.499990 -0.629965
O5    O     O_R   0.017620 0.953670 0.442560 -0.630927
O6    O     O_R   0.982380 0.953670 0.557440 -0.630931
O7    O     O_R   0.517620 0.453670 0.442560 -0.630932
O8    O     O_R   0.482380 0.453670 0.557440 -0.630934
O9    O     O_R   0.482370 0.546310 0.557450 -0.628630
O10   O     O_R   0.517630 0.546310 0.442550 -0.628638
O11   O     O_R   0.982370 0.046310 0.557450 -0.628665
O12   O     O_R   0.017630 0.046310 0.442550 -0.628670
O13   O     O_R   0.424900 0.546280 0.442440 -0.626088
O14   O     O_R   0.575100 0.546280 0.557560 -0.626084
O15   O     O_R   0.924900 0.046280 0.442440 -0.626084
O16   O     O_R   0.075100 0.046280 0.557560 -0.626070
O17   O     O_R   0.770150 0.822430 0.500030 -0.629765
O18   O     O_R   0.229850 0.822430 0.499970 -0.629765
O19   O     O_R   0.270150 0.322430 0.500030 -0.629762
O20   O     O_R   0.729850 0.322430 0.499970 -0.629754
O21   O     O_R   0.725220 0.723850 0.398140 -0.623553
O22   O     O_R   0.274780 0.723850 0.601860 -0.623556
O23   O     O_R   0.225220 0.223850 0.398140 -0.623543
O24   O     O_R   0.774780 0.223850 0.601860 -0.623541
O25   O     O_R   0.672910 0.776140 0.398150 -0.622894
O26   O     O_R   0.327090 0.776140 0.601850 -0.622900
O27   O     O_R   0.172910 0.276140 0.398150 -0.622878
O28   O     O_R   0.827090 0.276140 0.601850 -0.622882
O29   O     O_R   0.729840 0.677550 0.499990 -0.631338
O30   O     O_R   0.270160 0.677550 0.500010 -0.631343
O31   O     O_R   0.229840 0.177550 0.499990 -0.631323
O32   O     O_R   0.770160 0.177550 0.500010 -0.631331
O33   O     O_R   0.677530 0.729830 0.500000 -0.628392
O34   O     O_R   0.322470 0.729830 0.500000 -0.628382
O35   O     O_R   0.177530 0.229830 0.500000 -0.628421
O36   O     O_R   0.822470 0.229830 0.500000 -0.628408
O37   O     O_R   0.827070 0.723850 0.601870 -0.621275
O38   O     O_R   0.172930 0.723850 0.398130 -0.621288
O39   O     O_R   0.327070 0.223850 0.601870 -0.621244
O40   O     O_R   0.672930 0.223850 0.398130 -0.621265
O41   O     O_R   0.774770 0.776130 0.601880 -0.624675
O42   O     O_R   0.225230 0.776130 0.398120 -0.624658
O43   O     O_R   0.274770 0.276130 0.601880 -0.624723
O44   O     O_R   0.725230 0.276130 0.398120 -0.624704
O45   O     O_R   0.075080 0.953700 0.557570 -0.631287
O46   O     O_R   0.924920 0.953700 0.442430 -0.631296
O47   O     O_R   0.575080 0.453700 0.557570 -0.631315
O48   O     O_R   0.424920 0.453700 0.442430 -0.631304
Zn1   Zn    Zn3+2 0.784920 0.715080 0.500000 0.935907
Zn2   Zn    Zn3+2 0.215080 0.715080 0.500000 0.935891
Zn3   Zn    Zn3+2 0.284920 0.215080 0.500000 0.935950
Zn4   Zn    Zn3+2 0.715080 0.215080 0.500000 0.935929
Zn5   Zn    Zn3+2 0.715070 0.784900 0.500020 0.937644
Zn6   Zn    Zn3+2 0.284930 0.784900 0.499980 0.937659
Zn7   Zn    Zn3+2 0.215070 0.284900 0.500020 0.937593
Zn8   Zn    Zn3+2 0.784930 0.284900 0.499980 0.937614
Zn9   Zn    Zn3+2 0.538360 0.500010 0.576800 0.929431
Zn10  Zn    Zn3+2 0.461640 0.500010 0.423200 0.929430
Zn11  Zn    Zn3+2 0.038360 0.000010 0.576800 0.929438
Zn12  Zn    Zn3+2 0.961640 0.000010 0.423200 0.929435
C145  C     C_1   0.519388 0.814930 0.148464 0.163464
N17   N     N_1   0.483806 0.840937 0.121416 -0.189133
C146  C     C_1   0.480602 0.814932 0.851535 0.163465
N18   N     N_1   0.516182 0.840940 0.878583 -0.189133
C147  C     C_1   0.019386 0.314929 0.148464 0.163454
N19   N     N_1   0.983804 0.340935 0.121416 -0.189148
C148  C     C_1   0.980601 0.314933 0.851535 0.163453
N20   N     N_1   0.016180 0.340941 0.878583 -0.189149
C149  C     C_1   0.732283 0.642822 0.630165 0.136964
N21   N     N_1   0.760736 0.659650 0.683739 -0.203590
C150  C     C_1   0.267793 0.642939 0.369802 0.136953
N22   N     N_1   0.239396 0.659816 0.316262 -0.203617
C151  C     C_1   0.232491 0.142513 0.630075 0.137000
N23   N     N_1   0.261092 0.159213 0.683741 -0.203509
C152  C     C_1   0.767621 0.142684 0.369875 0.136984
N24   N     N_1   0.739101 0.159456 0.316259 -0.203552

loop_
_geom_bond_atom_site_label_1
_geom_bond_atom_site_label_2
_ccdc_geom_bond_type
C92   O36   A    
C133  C137  A    
O32   Zn4   S    
C10   N1    A    
C55   C59   A    
C34   C42   S    
C45   O25   A    
C78   C150  S    
C136  C140  A    
C16   H108  S    
C135  C139  A    
C123  O43   A    
C33   C114  S    
C85   H89   S    
C79   C99   S    
C50   H34   S    
C2    O18   A    
C82   H54   S    
C80   C152  S    
O17   Zn5   S    
C88   C108  S    
C95   C99   S    
N7    N8    A    
C22   C38   S    
C87   H91   S    
C44   H24   S    
C119  O11   A    
C138  H82   S    
C77   H49   S    
C110  H86   S    
C113  O5    A    
N12   N16   A    
C115  O7    A    
C12   C135  S    
C95   H75   S    
C131  C147  S    
C84   H60   S    
C49   C69   A    
C72   C124  S    
C112  H80   S    
C130  C134  A    
C51   C71   A    
C88   H64   S    
O42   Zn6   S    
O26   Zn6   S    
C77   C149  S    
C49   H33   S    
C16   H104  S    
C25   C29   S    
C80   H52   S    
C94   H70   S    
C76   N16   A    
C27   C31   S    
C12   N8    A    
C28   C32   S    
C19   H115  S    
C25   C41   S    
C82   H58   S    
O11   Zn11  S    
C56   H40   S    
O37   Zn1   S    
C96   H76   S    
C21   C29   S    
C28   C44   S    
C117  O13   A    
C23   C31   S    
C24   C32   S    
C52   C72   A    
C78   C82   S    
C152  N24   T    
C23   H119  S    
C16   C20   S    
C132  C148  S    
C1    C29   S    
O40   Zn4   S    
C50   C54   A    
C3    C31   S    
C3    O19   A    
C4    C32   S    
C129  C133  A    
C19   H111  S    
C65   H45   S    
C36   C44   S    
O4    Zn4   S    
O22   Zn2   S    
C109  H77   S    
C40   H32   S    
C1    O17   A    
C60   C75   S    
C123  O39   A    
C57   C61   A    
C13   H105  S    
C59   C63   A    
C96   H72   S    
C60   C64   A    
C50   C70   A    
C33   C41   S    
C130  C146  S    
C19   C35   S    
C11   C136  S    
C1    O1    A    
C66   C70   A    
C22   H118  S    
C49   C53   A    
C144  H100  S    
C26   H14   S    
C51   C55   A    
C116  O48   A    
C127  C131  A    
C85   C97   S    
O34   Zn6   S    
C61   C65   A    
C87   C107  S    
C89   C97   S    
C126  C130  A    
C47   O27   A    
C4    O20   A    
O28   Zn8   S    
C89   O33   A    
O48   Zn10  S    
C90   O30   A    
C26   C30   S    
C106  H66   S    
O44   Zn8   S    
C149  N21   T    
C111  H87   S    
C150  N22   T    
C7    C143  A    
C85   H61   S    
C81   C101  S    
C18   H110  S    
O8    Zn9   S    
C83   C103  S    
C101  C118  S    
C64   C68   A    
C71   C123  S    
C38   H30   S    
O19   Zn7   S    
C39   H7    S    
C28   H16   S    
C79   H51   S    
C40   H8    S    
O21   Zn1   S    
C114  O46   A    
C137  H81   S    
O30   Zn2   S    
C139  C143  A    
C8    C128  A    
C11   N4    A    
C77   C97   S    
C45   O21   A    
C35   C43   S    
C62   H42   S    
C104  C119  S    
O16   Zn11  S    
C86   C106  S    
C51   H35   S    
C108  H68   S    
C140  H84   S    
O41   Zn5   S    
C62   C66   A    
C119  O15   A    
C120  O16   A    
C39   H31   S    
C104  C112  S    
C114  O6    A    
C142  H98   S    
C76   N11   A    
O45   Zn11  S    
C125  C129  A    
C18   C34   S    
C70   C122  S    
C73   N10   A    
C132  C136  A    
C61   H41   S    
C82   C102  S    
C23   H27   S    
C107  H95   S    
C64   H44   S    
C102  C117  S    
C121  O41   A    
C20   H116  S    
C122  O38   A    
C63   H43   S    
O14   Zn9   S    
C10   N6    A    
C84   C104  S    
C143  H99   S    
C17   H113  S    
C93   C97   S    
C26   C42   S    
C9    N5    A    
C74   N14   A    
C105  H93   S    
C22   C30   S    
C117  O9    A    
C11   N7    A    
C118  O14   A    
O29   Zn1   S    
C103  C107  S    
N3    N4    A    
C42   H18   S    
C15   C31   S    
C103  C111  S    
C43   H23   S    
C16   C32   S    
C13   C17   S    
C2    C30   S    
C125  H1    S    
C25   H13   S    
O12   Zn12  S    
C21   H25   S    
C96   C100  S    
C4    O4    A    
C24   H28   S    
C46   O22   A    
C5    C125  A    
C91   C99   S    
O9    Zn9   S    
C59   C76   S    
C93   C109  S    
C58   C62   A    
C13   H101  S    
C41   H17   S    
O24   Zn4   S    
C103  C120  S    
C10   C133  S    
C80   C84   S    
C151  N23   T    
C2    O2    A    
C34   C113  S    
C15   C19   S    
C86   H90   S    
C13   C29   S    
O15   Zn12  S    
C81   H53   S    
C107  H67   S    
C94   C98   S    
C101  C109  S    
C105  H65   S    
C139  H83   S    
C78   H50   S    
C90   O34   A    
C109  H85   S    
C6    C142  A    
O46   Zn12  S    
C46   O26   A    
O31   Zn3   S    
N10   N14   A    
N5    N6    A    
C121  O37   A    
C17   C33   S    
O3    Zn3   S    
C20   H112  S    
C27   H11   S    
C25   H9    S    
O43   Zn7   S    
C6    C126  A    
O5    Zn12  S    
C83   H59   S    
C138  C142  A    
C148  N20   T    
C53   C57   A    
C128  H4    S    
C81   H57   S    
C93   H69   S    
C94   C110  S    
N9    N13   A    
C56   C60   A    
C7    C47   S    
C35   C39   S    
C8    C48   S    
C124  O40   A    
C35   C116  S    
C111  H79   S    
C88   C100  S    
C15   H103  S    
C54   C58   A    
C102  C110  S    
C120  O12   A    
O35   Zn7   S    
C110  H78   S    
C104  C108  S    
C33   C37   S    
C137  C141  A    
C140  C144  A    
C37   H5    S    
C14   H106  S    
C9    N2    A    
C74   N9    A    
C112  H88   S    
C73   N13   A    
O23   Zn3   S    
C79   C83   S    
C5    C45   S    
C65   C69   A    
O25   Zn5   S    
C67   C71   A    
C86   C98   S    
C141  H97   S    
C18   H114  S    
C20   C36   S    
C27   C43   S    
C21   C37   S    
C106  H94   S    
C55   H39   S    
C118  O10   A    
C44   H20   S    
C27   H15   S    
C42   H22   S    
O47   Zn9   S    
C43   H19   S    
C146  N18   T    
C75   N12   A    
C95   H71   S    
C14   C18   S    
N11   N15   A    
C86   H62   S    
C126  H2    S    
C145  N17   T    
C84   H56   S    
C96   C112  S    
C17   H109  S    
O7    Zn10  S    
C93   H73   S    
C131  C135  A    
C67   H47   S    
C68   H48   S    
C66   H46   S    
C94   H74   S    
O6    Zn11  S    
C113  O45   A    
C36   C40   S    
O2    Zn2   S    
C115  O47   A    
C79   C151  S    
C108  H96   S    
C41   H21   S    
C78   C98   S    
C54   H38   S    
C102  C106  S    
C77   C81   S    
N1    N2    A    
C68   C72   A    
C9    C134  S    
C124  O44   A    
C3    O3    A    
C80   C100  S    
C14   C30   S    
C85   C105  S    
C128  C132  A    
C87   C99   S    
C101  C105  S    
C88   H92   S    
C63   C67   A    
O33   Zn5   S    
C48   O28   A    
C91   O35   A    
C75   N15   A    
O18   Zn6   S    
C57   C74   S    
C52   H36   S    
C53   H37   S    
C5    C141  A    
C69   C121  S    
C24   H120  S    
C8    C144  A    
C22   H26   S    
O39   Zn3   S    
C87   H63   S    
C122  O42   A    
C21   H117  S    
C129  C145  S    
O13   Zn10  S    
C26   H10   S    
C83   H55   S    
C92   C100  S    
C92   O32   A    
O36   Zn8   S    
C6    C46   S    
C34   C38   S    
C47   O23   A    
C48   O24   A    
C89   O29   A    
C134  C138  A    
C91   O31   A    
C7    C127  A    
C12   N3    A    
C95   C111  S    
C15   H107  S    
C23   C39   S    
O20   Zn8   S    
C24   C40   S    
C38   H6    S    
C116  O8    A    
O1    Zn1   S    
O27   Zn7   S    
C37   H29   S    
C28   H12   S    
O38   Zn2   S    
O10   Zn10  S    
C147  N19   T    
C36   C115  S    
C90   C98   S    
C52   C56   A    
C58   C73   S    
C127  H3    S    
C14   H102  S    
