data_mof_unit_50638.cif
_audit_creation_date              2012-12-10T18:55:57-0500
_audit_creation_method            fapswitch 2.2
_symmetry_space_group_name_H-M    P1
_symmetry_Int_Tables_number       1
_space_group_crystal_system       triclinic
_cell_length_a                    10.69713
_cell_length_b                    9.844929
_cell_length_c                    14.967486
_cell_angle_alpha                 90.036811
_cell_angle_beta                  90.119556
_cell_angle_gamma                 90.016342
_cell_volume                      1576.25932852

loop_
_atom_site_label
_atom_site_type_symbol
_atom_type_description
_atom_site_fract_x
_atom_site_fract_y
_atom_site_fract_z
_atom_type_partial_charge
C1    C     C_R   0.259925 0.499984 0.499923 0.843565
C2    C     C_R   0.935916 0.617157 0.473417 -0.162857
C3    C     C_R   0.936017 0.382884 0.526669 -0.159817
C4    C     C_R   0.064002 0.617089 0.473265 -0.159613
C5    C     C_R   0.396954 0.553205 0.093820 -0.111256
C6    C     C_R   0.396829 0.447898 0.905935 -0.112363
C7    C     C_R   0.602278 0.553294 0.906349 -0.110866
C8    C     C_R   0.602207 0.447487 0.093884 -0.112056
C9    C     C_R   0.394934 0.552820 0.186585 -0.022602
C10   C     C_R   0.394854 0.447921 0.813168 -0.025082
C11   C     C_R   0.604567 0.552866 0.813595 -0.027247
C12   C     C_R   0.740079 0.500016 0.500072 0.841389
C13   C     C_R   0.604460 0.447565 0.186640 -0.029873
C14   C     C_R   0.499722 0.500012 0.232577 -0.189794
C15   C     C_R   0.499828 0.500204 0.767419 -0.189684
C16   C     C_R   0.499537 0.500437 0.048207 0.014624
C17   C     C_R   0.499507 0.500626 0.951787 0.014591
C18   C     C_R   0.872503 0.500037 0.500079 -0.028938
C19   C     C_R   0.127509 0.499961 0.499907 -0.026825
C20   C     C_2   0.282181 0.604500 0.234088 0.421767
C21   C     C_2   0.281897 0.396574 0.765405 0.437714
C22   C     C_2   0.717598 0.604217 0.766299 0.422872
C23   C     C_R   0.499898 0.499980 0.328239 0.812773
C24   C     C_2   0.717543 0.396263 0.234187 0.439054
C25   C     C_R   0.499989 0.500045 0.671760 0.812918
C26   C     C_R   0.580425 0.072010 0.553577 -0.056812
C27   C     C_R   0.419585 0.927969 0.446410 -0.055225
C28   C     C_R   0.419579 0.071849 0.446422 -0.057415
C29   C     C_R   0.580411 0.928130 0.553591 -0.056069
C30   C     C_R   0.064102 0.382861 0.526612 -0.164173
H1    H     H_    0.644736 0.126574 0.596410 0.134731
H2    H     H_    0.886827 0.707783 0.451996 0.163623
H3    H     H_    0.887010 0.292289 0.548165 0.157189
H4    H     H_    0.113020 0.707635 0.451678 0.156722
H5    H     H_    0.274149 0.596346 0.306040 0.057085
H6    H     H_    0.273956 0.404428 0.693415 0.063141
H7    H     H_    0.725865 0.595910 0.694356 0.062469
H8    H     H_    0.725887 0.404546 0.306149 0.068843
H9    H     H_    0.355303 0.873381 0.403551 0.131312
H10   H     H_    0.355282 0.126284 0.403580 0.140248
H11   H     H_    0.644679 0.873671 0.596458 0.136274
H12   H     H_    0.318676 0.594362 0.056518 0.190351
H13   H     H_    0.318447 0.407030 0.943052 0.189961
H14   H     H_    0.680556 0.594291 0.943785 0.190090
H15   H     H_    0.680442 0.406546 0.056631 0.189710
H16   H     H_    0.113201 0.292285 0.548125 0.162562
N1    N     N_R   0.500000 0.857200 0.500000 -0.085325
N2    N     N_R   0.500000 0.142800 0.500000 -0.086794
O1    O     O_R   0.316770 0.614620 0.499990 -0.625483
O2    O     O_2   0.195179 0.345236 0.806233 -0.545774
O3    O     O_2   0.804000 0.656105 0.807469 -0.542463
O4    O     O_2   0.803925 0.344511 0.193207 -0.542288
O5    O     O_R   0.683230 0.385380 0.500010 -0.626779
O6    O     O_R   0.683230 0.614620 0.500010 -0.627507
O7    O     O_R   0.316770 0.385380 0.499990 -0.628101
O8    O     O_R   0.499990 0.614660 0.369060 -0.614306
O9    O     O_R   0.500010 0.385340 0.630940 -0.616171
O10   O     O_R   0.500010 0.614660 0.630940 -0.610674
O11   O     O_R   0.499990 0.385340 0.369060 -0.612708
O12   O     O_2   0.195759 0.656515 0.193084 -0.546154
Zn1   Zn    Zn3+2 0.500000 0.653120 0.500000 0.958062
Zn2   Zn    Zn3+2 0.500000 0.346880 0.500000 0.955458

loop_
_geom_bond_atom_site_label_1
_geom_bond_atom_site_label_2
_ccdc_geom_bond_type
C14   C23   S    
N1    Zn1   S    
C3    C30   A    
C2    C4    A    
C5    H12   S    
C6    C10   A    
C8    C13   A    
O6    Zn1   S    
C2    C18   A    
O5    Zn2   S    
C11   C22   S    
C24   H8    S    
C12   O5    A    
C24   O4    D    
C26   N2    A    
C9    C14   A    
O10   Zn1   S    
C1    O7    A    
C23   O8    A    
C8    C16   A    
C21   H6    S    
C7    H14   S    
C7    C11   A    
C4    C19   A    
C5    C9    A    
C19   C30   A    
C25   O9    A    
C29   N1    A    
C21   O2    D    
C30   H16   S    
C11   C15   A    
C6    H13   S    
C10   C21   S    
C22   O3    D    
C3    C18   A    
C4    H4    S    
C20   O12   D    
C15   C25   S    
O1    Zn1   S    
C25   O10   A    
C3    H3    S    
C12   C18   S    
O7    Zn2   S    
N2    Zn2   S    
O9    Zn2   S    
C26   C29   A    
C2    H2    S    
C26   H1    S    
C1    C19   S    
C27   N1    A    
C27   C28   A    
C6    C17   A    
C28   H10   S    
O8    Zn1   S    
C28   N2    A    
C5    C16   A    
C9    C20   S    
C23   O11   A    
C29   H11   S    
C10   C15   A    
C13   C14   A    
C22   H7    S    
C1    O1    A    
C20   H5    S    
C12   O6    A    
C8    H15   S    
C13   C24   S    
C27   H9    S    
C16   C17   S    
O11   Zn2   S    
C7    C17   A    
