data_mof_unit_49779.cif
_audit_creation_date              2012-12-11T15:34:14-0500
_audit_creation_method            fapswitch 2.2
_symmetry_space_group_name_H-M    P1
_symmetry_Int_Tables_number       1
_space_group_crystal_system       triclinic
_cell_length_a                    15.065759
_cell_length_b                    15.066583
_cell_length_c                    34.974543
_cell_angle_alpha                 90.500253
_cell_angle_beta                  89.916473
_cell_angle_gamma                 60.037616
_cell_volume                      6877.43679266

loop_
_atom_site_label
_atom_site_type_symbol
_atom_type_description
_atom_site_fract_x
_atom_site_fract_y
_atom_site_fract_z
_atom_type_partial_charge
C1    C     C_R   0.302767 0.608158 0.555819 0.542663
C2    C     C_R   0.645769 0.664656 0.669957 0.051794
C3    C     C_R   0.262265 0.652533 0.266066 -0.115747
C4    C     C_R   0.192177 0.640981 0.289033 0.026220
C5    C     C_R   0.116853 0.625718 0.271843 -0.117942
C6    C     C_R   0.109357 0.625780 0.232194 -0.113304
C7    C     C_R   0.177208 0.640922 0.209268 0.027848
C8    C     C_R   0.195059 0.569455 0.353233 -0.067414
C9    C     C_R   0.219137 0.561283 0.392046 0.092286
C10   C     C_R   0.240100 0.710931 0.386858 -0.145227
C11   C     C_R   0.216812 0.717541 0.348266 -0.135711
C12   C     C_R   0.199126 0.643971 0.330855 -0.000906
C13   C     C_R   0.552479 0.723634 0.650604 0.087554
C14   C     C_R   0.247553 0.629714 0.408835 0.028565
C15   C     C_R   0.736038 0.025392 0.943311 0.542504
C16   C     C_R   0.745697 0.722585 0.945151 0.565445
C17   C     C_R   0.038306 0.733963 0.948344 0.541322
C18   C     C_R   0.723053 0.038569 0.052888 0.543919
C19   C     C_R   0.733454 0.734526 0.054741 0.542622
C20   C     C_R   0.027771 0.744530 0.057741 0.544496
C21   C     C_R   0.545486 0.703524 0.611987 -0.158069
C22   C     C_R   0.662940 0.676060 0.789202 0.340406
C23   C     C_R   0.653214 0.670710 0.711850 0.365902
C24   C     C_R   0.748300 0.596417 0.850686 -0.114990
C25   C     C_R   0.768652 0.605500 0.889133 0.090631
C26   C     C_R   0.630074 0.782470 0.889195 -0.163809
C27   C     C_R   0.610609 0.772674 0.851013 -0.136864
C28   C     C_R   0.672439 0.681028 0.830965 0.015924
C29   C     C_R   0.610668 0.588672 0.555222 0.568882
C30   C     C_R   0.712190 0.701055 0.908224 0.060360
C31   C     C_R   0.723184 0.072525 0.905456 0.021501
C32   C     C_R   0.632810 0.102247 0.884827 -0.125061
C33   C     C_R   0.628736 0.123018 0.845975 -0.120058
C34   C     C_R   0.714487 0.115399 0.827111 0.030893
C35   C     C_R   0.801975 0.093969 0.848199 -0.121114
C36   C     C_R   0.806442 0.072405 0.887140 -0.126889
C37   C     C_R   0.745577 0.186232 0.767471 -0.113401
C38   C     C_R   0.738804 0.197859 0.727849 -0.110458
C39   C     C_R   0.701549 0.145799 0.705333 0.026400
C40   C     C_R   0.590271 0.300480 0.553546 0.543402
C41   C     C_R   0.674774 0.079138 0.723051 -0.114936
C42   C     C_R   0.680679 0.068303 0.762619 -0.113049
C43   C     C_R   0.714190 0.123283 0.785168 0.024557
C44   C     C_R   0.590487 0.182468 0.647978 -0.117917
C45   C     C_R   0.563855 0.218834 0.610856 -0.124974
C46   C     C_R   0.722531 0.221760 0.604494 -0.124889
C47   C     C_R   0.749340 0.184972 0.641609 -0.120116
C48   C     C_R   0.681949 0.168314 0.664147 0.032551
C49   C     C_R   0.627881 0.242374 0.589262 0.021346
C50   C     C_R   0.092218 0.697053 0.911364 0.021182
C51   C     C_R   0.300008 0.610240 0.446046 0.541874
C52   C     C_R   0.123826 0.757238 0.891469 -0.125264
C53   C     C_R   0.148311 0.739445 0.852723 -0.120405
C54   C     C_R   0.142664 0.660622 0.833301 0.031134
C55   C     C_R   0.120701 0.594271 0.853838 -0.118875
C56   C     C_R   0.095432 0.612446 0.892648 -0.125954
C57   C     C_R   0.212699 0.560476 0.772527 -0.110085
C58   C     C_R   0.221359 0.556481 0.732715 -0.107451
C59   C     C_R   0.166723 0.646024 0.711077 0.032066
C60   C     C_R   0.101188 0.738918 0.729937 -0.110623
C61   C     C_R   0.093372 0.743011 0.769659 -0.108100
C62   C     C_R   0.607899 0.589681 0.445240 0.544077
C63   C     C_R   0.150252 0.654200 0.791273 0.031041
C64   C     C_R   0.195582 0.722417 0.652638 -0.119954
C65   C     C_R   0.226778 0.714261 0.614649 -0.128048
C66   C     C_R   0.231059 0.551826 0.608709 -0.127228
C67   C     C_R   0.199352 0.560260 0.646738 -0.120476
C68   C     C_R   0.184642 0.643997 0.669409 0.034057
C69   C     C_R   0.248437 0.627119 0.592718 0.022042
C70   C     C_R   0.691902 0.718915 0.090664 0.021479
C71   C     C_R   0.608150 0.801846 0.109060 -0.128369
C72   C     C_R   0.582420 0.792670 0.146602 -0.123710
C73   C     C_R   0.587731 0.303218 0.443671 0.542752
C74   C     C_R   0.639646 0.700355 0.166276 0.031770
C75   C     C_R   0.718313 0.615338 0.146863 -0.118960
C76   C     C_R   0.744184 0.624516 0.109419 -0.125712
C77   C     C_R   0.633081 0.606441 0.223906 -0.124019
C78   C     C_R   0.633436 0.596260 0.263488 -0.087273
C79   C     C_R   0.626289 0.674443 0.287651 0.041382
C80   C     C_R   0.613891 0.764986 0.271811 -0.127403
C81   C     C_R   0.613882 0.775130 0.232189 -0.116033
C82   C     C_R   0.625440 0.695105 0.207868 0.026342
C83   C     C_R   0.549835 0.731439 0.352335 -0.154002
C84   C     C_R   0.629401 0.624233 0.592253 0.041001
C85   C     C_R   0.546003 0.712555 0.391061 -0.139509
C86   C     C_R   0.710258 0.556495 0.385323 -0.103556
C87   C     C_R   0.714669 0.574763 0.346280 0.108488
C88   C     C_R   0.631601 0.660926 0.329423 0.053719
C89   C     C_R   0.624192 0.622819 0.407564 0.000083
C90   C     C_R   0.699410 0.100863 0.088076 0.021923
C91   C     C_R   0.773243 0.120779 0.104124 -0.127007
C92   C     C_R   0.760718 0.159535 0.141283 -0.123285
C93   C     C_R   0.674272 0.178902 0.162943 0.031450
C94   C     C_R   0.596434 0.167361 0.145722 -0.120106
C95   C     C_R   0.724952 0.571589 0.610726 0.083137
C96   C     C_R   0.608784 0.128872 0.108550 -0.126932
C97   C     C_R   0.578237 0.266947 0.222698 -0.120471
C98   C     C_R   0.572351 0.273853 0.262455 -0.117329
C99   C     C_R   0.659015 0.212210 0.284618 0.028848
C100  C     C_R   0.752603 0.146497 0.266477 -0.114672
C101  C     C_R   0.758421 0.139191 0.226716 -0.112719
C102  C     C_R   0.670848 0.198059 0.204497 0.028396
C103  C     C_R   0.723178 0.227254 0.348648 -0.118437
C104  C     C_R   0.707459 0.246270 0.387859 -0.125367
C105  C     C_R   0.552079 0.236135 0.383873 -0.124814
C106  C     C_R   0.732158 0.592191 0.649313 -0.147334
C107  C     C_R   0.567621 0.217634 0.344691 -0.121603
C108  C     C_R   0.651056 0.217050 0.326603 0.029553
C109  C     C_R   0.619369 0.255254 0.405516 0.021211
C110  C     C_R   0.085670 0.706684 0.093344 0.022413
C111  C     C_R   0.097717 0.616680 0.109890 -0.127388
C112  C     C_R   0.134274 0.591149 0.146992 -0.124586
C113  C     C_R   0.159750 0.654901 0.167931 0.030690
C114  C     C_R   0.155967 0.740022 0.150308 -0.119813
C115  C     C_R   0.119122 0.765805 0.113228 -0.126665
C116  C     C_R   0.254672 0.652755 0.226438 -0.120993
Cr1   Cr    Cr6+3 0.421670 0.426920 0.499620 1.004731
Cr2   Cr    Cr6+3 0.427030 0.651190 0.500980 1.008305
Cr3   Cr    Cr6+3 0.651280 0.421870 0.499380 1.027092
Cr4   Cr    Cr6+3 0.910810 0.908010 0.001130 1.010160
Cr5   Cr    Cr6+3 0.682800 0.909890 0.998370 1.008817
Cr6   Cr    Cr6+3 0.908370 0.682300 0.002180 1.026040
H1    H     H_    0.877201 0.049603 0.902255 0.126024
H2    H     H_    0.821186 0.172862 0.653136 0.102662
H3    H     H_    0.758579 0.250939 0.715057 0.114105
H4    H     H_    0.771628 0.229255 0.784410 0.111633
H5    H     H_    0.559728 0.141543 0.830302 0.107332
H6    H     H_    0.647599 0.036696 0.706365 0.114314
H7    H     H_    0.658296 0.017460 0.775709 0.119636
H8    H     H_    0.536455 0.171296 0.664753 0.105031
H9    H     H_    0.490374 0.234025 0.599955 0.127954
H10   H     H_    0.868850 0.088040 0.834125 0.103189
H11   H     H_    0.471549 0.745960 0.598294 0.131196
H12   H     H_    0.773848 0.238504 0.588430 0.128298
H13   H     H_    0.122964 0.822473 0.905115 0.127755
H14   H     H_    0.071515 0.564638 0.907207 0.130935
H15   H     H_    0.189607 0.499663 0.658772 0.103130
H16   H     H_    0.273663 0.484060 0.719006 0.106123
H17   H     H_    0.257003 0.491138 0.788736 0.105979
H18   H     H_    0.167126 0.790227 0.837467 0.109659
H19   H     H_    0.056793 0.808695 0.713986 0.106570
H20   H     H_    0.042724 0.815729 0.783572 0.110198
H21   H     H_    0.185908 0.787381 0.669457 0.104281
H22   H     H_    0.239736 0.773460 0.603229 0.124957
H23   H     H_    0.116254 0.532795 0.839344 0.107065
H24   H     H_    0.246672 0.483975 0.592452 0.123757
H25   H     H_    0.566155 0.875535 0.095303 0.125945
H26   H     H_    0.808811 0.559125 0.095947 0.127594
H27   H     H_    0.640484 0.526819 0.275325 0.138919
H28   H     H_    0.640538 0.544318 0.205825 0.105934
H29   H     H_    0.520356 0.858877 0.160761 0.101123
H30   H     H_    0.607613 0.826277 0.290107 0.106651
H31   H     H_    0.805231 0.548450 0.663488 0.128368
H32   H     H_    0.609252 0.843752 0.220631 0.108073
H33   H     H_    0.486027 0.798286 0.339758 0.106925
H34   H     H_    0.478774 0.765216 0.407485 0.130675
H35   H     H_    0.764261 0.543412 0.161380 0.106223
H36   H     H_    0.771635 0.487554 0.397778 0.125022
H37   H     H_    0.843372 0.101086 0.088827 0.124293
H38   H     H_    0.550344 0.114782 0.096881 0.125882
H39   H     H_    0.512325 0.207613 0.328236 0.106118
H40   H     H_    0.499900 0.326962 0.275942 0.110765
H41   H     H_    0.510037 0.314033 0.206192 0.105897
H42   H     H_    0.820844 0.169753 0.153732 0.101893
H43   H     H_    0.820257 0.098268 0.283077 0.104984
H44   H     H_    0.830378 0.084099 0.213443 0.106113
H45   H     H_    0.788265 0.226757 0.335225 0.109461
H46   H     H_    0.760724 0.260601 0.403783 0.125703
H47   H     H_    0.529243 0.181098 0.161849 0.102428
H48   H     H_    0.483771 0.242064 0.396654 0.128101
H49   H     H_    0.073659 0.568941 0.095037 0.126836
H50   H     H_    0.111368 0.835158 0.101047 0.127461
H51   H     H_    0.216953 0.777763 0.331608 0.111142
H52   H     H_    0.795073 0.523965 0.835976 0.128391
H53   H     H_    0.322665 0.661826 0.278811 0.109712
H54   H     H_    0.308190 0.663691 0.209204 0.106422
H55   H     H_    0.138168 0.524290 0.159980 0.102962
H56   H     H_    0.061982 0.616919 0.289064 0.103307
H57   H     H_    0.047837 0.618309 0.219503 0.109074
H58   H     H_    0.179395 0.513333 0.340106 0.124347
H59   H     H_    0.174802 0.790565 0.166068 0.104735
H60   H     H_    0.259303 0.765829 0.398715 0.134072
H61   H     H_    0.584289 0.856374 0.903061 0.133881
H62   H     H_    0.550215 0.838785 0.836776 0.137516
H63   H     H_    0.567116 0.103725 0.898130 0.127797
N1    N     N_R   0.729071 0.590718 0.769161 -0.241936
N2    N     N_R   0.724106 0.588019 0.731264 -0.250332
N3    N     N_R   0.587364 0.756216 0.731871 -0.176862
N4    N     N_R   0.592349 0.758971 0.769786 -0.239665
O1    O     O_R   0.502070 0.323090 0.541280 -0.519538
O2    O     O_R   0.520720 0.641670 0.461580 -0.501649
O3    O     O_R   0.674120 0.502090 0.457500 -0.519756
O4    O     O_R   0.640110 0.338380 0.459630 -0.503507
O5    O     O_3   0.499990 0.499990 0.499990 -0.238606
O6    O     O_R   0.017640 0.822070 0.960410 -0.521600
O7    O     O_R   0.822000 0.989470 0.960340 -0.502707
O8    O     O_R   0.666920 0.007430 0.955290 -0.520880
O9    O     O_R   0.694410 0.812480 0.959650 -0.516914
O10   O     O_R   0.831550 0.656950 0.958960 -0.471222
O11   O     O_R   0.998590 0.685540 0.963930 -0.502029
O12   O     O_R   0.338340 0.520690 0.539540 -0.502241
O13   O     O_R   0.008220 0.831200 0.045060 -0.520227
O14   O     O_R   0.813270 0.997930 0.038810 -0.501752
O15   O     O_R   0.657500 0.016560 0.039940 -0.520988
O16   O     O_R   0.685680 0.820940 0.038120 -0.503185
O17   O     O_R   0.822130 0.666070 0.043610 -0.519456
O18   O     O_R   0.989860 0.694000 0.042400 -0.504266
O19   O     O_3   0.833990 0.833400 0.000560 -0.239084
O20   O     O_R   0.324760 0.674070 0.543580 -0.521477
O21   O     O_R   0.522400 0.640310 0.540110 -0.518187
O22   O     O_R   0.675940 0.500630 0.542210 -0.469288
O23   O     O_R   0.641790 0.337020 0.538150 -0.502267
O24   O     O_R   0.500260 0.324550 0.456580 -0.525106
O25   O     O_R   0.336660 0.522040 0.461020 -0.505995
O26   O     O_R   0.322940 0.675540 0.458880 -0.521623
N5    N     N_3   0.814169 0.494905 0.590935 -0.600170
H64   H     H_    0.870540 0.515963 0.592335 0.223444
H65   H     H_    0.841326 0.425748 0.605420 0.226486
N6    N     N_3   0.849054 0.518536 0.908024 -0.603735
H66   H     H_    0.832326 0.459066 0.906726 0.222917
H67   H     H_    0.917220 0.495004 0.892841 0.221866
N7    N     N_3   0.801506 0.504907 0.323388 -0.642227
H68   H     H_    0.838716 0.544148 0.314550 0.232111
H69   H     H_    0.854091 0.443378 0.339794 0.219257
N8    N     N_3   0.462594 0.799091 0.670437 -0.600150
H70   H     H_    0.406046 0.778460 0.667984 0.228374
H71   H     H_    0.436200 0.869182 0.656726 0.225115
N9    N     N_3   0.217026 0.480993 0.412963 -0.644156
H72   H     H_    0.292102 0.423755 0.418596 0.258825
H73   H     H_    0.177114 0.511130 0.438645 0.237984

loop_
_geom_bond_atom_site_label_1
_geom_bond_atom_site_label_2
_ccdc_geom_bond_type
C71   H25   S    
C87   C88   A    
C103  H45   S    
C101  C102  A    
C73   O4    A    
C6    H57   S    
C53   H18   S    
Cr4   O13   S    
C41   C42   A    
Cr6   O17   S    
C47   H2    S    
C35   C36   A    
Cr5   O16   S    
C55   C56   A    
C24   H52   S    
N9    H73   S    
C97   C98   A    
C57   C58   A    
C16   O9    A    
C29   O21   A    
C39   C41   A    
C77   C78   A    
C52   C53   A    
C99   C108  S    
C105  C107  A    
C46   C49   A    
Cr3   O23   S    
Cr4   O7    S    
C32   H63   S    
Cr2   O20   S    
C5    C6    A    
C64   C68   A    
C92   C93   A    
C115  H50   S    
N5    H65   S    
C37   H4    S    
C3    C116  A    
C94   H47   S    
C13   N8    S    
C23   N3    A    
C15   O8    A    
C55   H23   S    
C66   C69   A    
C83   H33   S    
C54   C63   S    
C44   H8    S    
C40   C49   S    
C62   C89   S    
C33   H5    S    
C57   H17   S    
C17   O11   A    
C34   C35   A    
C46   C47   A    
C61   C63   A    
C2    C13   A    
C27   H62   S    
C112  C113  A    
Cr1   O5    S    
C103  C104  A    
C98   H40   S    
C110  C111  A    
C103  C108  A    
Cr4   O14   S    
C107  H39   S    
C8    C9    A    
C97   H41   S    
C19   O17   A    
C50   C52   A    
C107  C108  A    
C57   C63   A    
C70   C71   A    
Cr6   O10   S    
C4    C12   S    
C62   O2    A    
C91   H37   S    
C97   C102  A    
C112  H55   S    
C26   H61   S    
C75   H35   S    
C66   C67   A    
C1    O12   A    
C59   C60   A    
C22   C28   S    
C95   N5    S    
C23   N2    A    
C41   H6    S    
C73   O24   A    
C101  H44   S    
C74   C82   S    
Cr1   O1    S    
Cr1   O12   S    
C21   H11   S    
C79   C88   S    
C56   H14   S    
C81   C82   A    
N7    H68   S    
C38   C39   A    
C5    H56   S    
C11   H51   S    
Cr4   O6    S    
C105  H48   S    
C116  H54   S    
C1    O20   A    
C67   C68   A    
C18   C90   S    
C87   N7    S    
Cr6   O19   S    
C36   H1    S    
C24   C25   A    
C29   C84   S    
C72   C74   A    
C74   C75   A    
C91   C92   A    
C65   H22   S    
C85   C89   A    
C78   C79   A    
C4    C5    A    
C62   O3    A    
C58   C59   A    
C53   C54   A    
C15   C31   S    
C2    C106  A    
C1    C69   S    
C81   H32   S    
C100  H43   S    
Cr3   O4    S    
C85   H34   S    
Cr4   O19   S    
C7    C116  A    
C22   N1    A    
C17   C50   S    
C94   C96   A    
C75   C76   A    
N3    N4    A    
C37   C38   A    
C95   C106  A    
C60   H19   S    
C46   H12   S    
Cr2   O2    S    
C8    H58   S    
C47   C48   A    
C21   C84   A    
C45   C49   A    
C8    C12   A    
C72   H29   S    
Cr2   O26   S    
N8    H70   S    
C26   C27   A    
C9    C14   A    
C106  H31   S    
C93   C94   A    
N5    H64   S    
C22   N4    A    
C90   C96   A    
C86   H36   S    
C40   O1    A    
Cr5   O8    S    
C18   O14   A    
C16   O10   A    
C20   C110  S    
C15   O7    A    
C51   O25   A    
C3    H53   S    
C83   C85   A    
C45   H9    S    
C10   C14   A    
C10   H60   S    
C37   C43   A    
C25   N6    S    
C42   C43   A    
C3    C4    A    
N6    H66   S    
C38   H3    S    
Cr3   O3    S    
C44   C45   A    
C113  C114  A    
C51   O26   A    
C25   C30   A    
C80   H30   S    
C105  C109  A    
C54   C55   A    
N7    H69   S    
C111  C112  A    
C96   H38   S    
C86   C87   A    
C93   C102  S    
Cr6   O18   S    
C31   C32   A    
C34   C43   S    
C24   C28   A    
Cr5   O15   S    
C80   C81   A    
C19   C70   S    
C86   C89   A    
C77   H28   S    
C11   C12   A    
C73   C109  S    
C114  C115  A    
C6    C7    A    
C64   H21   S    
C114  H59   S    
C9    N9    S    
C40   O23   A    
Cr3   O22   S    
C20   O18   A    
C99   C100  A    
Cr2   O21   S    
Cr3   O5    S    
C32   C33   A    
C7    C113  S    
C92   H42   S    
C20   O13   A    
C104  H46   S    
C13   C21   A    
C70   C76   A    
C58   H16   S    
C90   C91   A    
C104  C109  A    
C77   C82   A    
C65   C69   A    
C110  C115  A    
C64   C65   A    
C100  C101  A    
N8    H71   S    
C33   C34   A    
C83   C88   A    
C42   H7    S    
C111  H49   S    
N6    H67   S    
Cr1   O25   S    
Cr2   O5    S    
C29   O22   A    
C50   C56   A    
Cr5   O9    S    
C66   H24   S    
C17   O6    A    
C10   C11   A    
N9    H72   S    
C79   C80   A    
C61   H20   S    
Cr1   O24   S    
C71   C72   A    
C76   H26   S    
C14   C51   S    
C98   C99   A    
C2    C23   S    
C19   O16   A    
C52   H13   S    
C31   C36   A    
C60   C61   A    
C59   C68   S    
C18   O15   A    
Cr5   O19   S    
Cr6   O11   S    
N1    N2    A    
C67   H15   S    
C16   C30   S    
C35   H10   S    
C84   C95   A    
C44   C48   A    
C78   H27   S    
C39   C48   S    
C27   C28   A    
C26   C30   A    
