data_mof_unit_11317.cif
_audit_creation_date              2012-12-10T16:46:47-0500
_audit_creation_method            fapswitch 2.2
_symmetry_space_group_name_H-M    P1
_symmetry_Int_Tables_number       1
_space_group_crystal_system       triclinic
_cell_length_a                    15.85624
_cell_length_b                    8.700047
_cell_length_c                    7.457178
_cell_angle_alpha                 102.933356
_cell_angle_beta                  94.213926
_cell_angle_gamma                 92.845649
_cell_volume                      997.595838661

loop_
_atom_site_label
_atom_site_type_symbol
_atom_type_description
_atom_site_fract_x
_atom_site_fract_y
_atom_site_fract_z
_atom_type_partial_charge
C1    C     C_R   0.497238 0.199727 0.453295 0.879030
C2    C     C_3   0.951756 0.426575 0.643784 -0.388605
C3    C     C_3   0.917363 0.514839 0.498083 0.287135
C4    C     C_3   0.958489 0.686091 0.549946 -0.428618
C5    C     C_3   0.056969 0.686464 0.541489 -0.074908
C6    C     C_1   0.825076 0.513865 0.495619 -0.094705
C7    C     C_1   0.175637 0.503726 0.506971 -0.104434
C8    C     C_1   0.250995 0.499197 0.506219 -0.201000
C9    C     C_2   0.495782 0.031835 0.427097 -0.373332
C10   C     C_2   0.503125 0.968081 0.572976 -0.372941
C11   C     C_R   0.340337 0.497953 0.501947 0.821241
C12   C     C_R   0.502302 0.800241 0.546733 0.878464
C13   C     C_R   0.659722 0.502623 0.498135 0.823261
C14   C     C_3   0.049476 0.431055 0.654332 -0.379058
C15   C     C_3   0.040396 0.426373 0.307147 -0.060963
C16   C     C_3   0.942377 0.431277 0.305360 -0.396473
C17   C     C_1   0.749376 0.509011 0.494972 -0.176956
C18   C     C_3   0.083650 0.510374 0.504283 0.292212
Cu1   Cu    Cu3+1 0.509300 0.517380 0.684380 0.950343
Cu2   Cu    Cu3+1 0.490700 0.482620 0.315620 0.949212
H1    H     H_    0.924850 0.301979 0.609153 0.155914
H2    H     H_    0.075489 0.496467 0.794349 0.153250
H3    H     H_    0.931590 0.482323 0.782043 0.163116
H4    H     H_    0.931354 0.755745 0.454003 0.151042
H5    H     H_    0.488861 0.960319 0.286474 0.180214
H6    H     H_    0.509957 0.039588 0.713603 0.179998
H7    H     H_    0.434632 0.376133 0.948763 0.223930
H8    H     H_    0.565342 0.623888 0.051254 0.225302
H9    H     H_    0.070781 0.310380 0.642171 0.156827
H10   H     H_    0.060096 0.501292 0.212022 0.105507
H11   H     H_    0.909699 0.311278 0.261679 0.175671
H12   H     H_    0.919198 0.496931 0.201274 0.142227
H13   H     H_    0.071114 0.732968 0.419247 0.138890
H14   H     H_    0.941686 0.743391 0.690590 0.168175
N1    N     N_2   0.476670 0.456430 0.038530 -0.215541
N2    N     N_2   0.523330 0.543570 0.961470 -0.215234
O1    O     O_R   0.506050 0.286130 0.619770 -0.584296
O2    O     O_R   0.490330 0.256780 0.308370 -0.586213
O3    O     O_R   0.387300 0.514690 0.655770 -0.581724
O4    O     O_R   0.371580 0.485340 0.344370 -0.576729
O5    O     O_R   0.509670 0.743220 0.691630 -0.586164
O6    O     O_R   0.493950 0.713870 0.380230 -0.584282
O7    O     O_R   0.628420 0.514660 0.655630 -0.575617
O8    O     O_R   0.612700 0.485310 0.344230 -0.582643
C19   C     C_3   0.068930 0.261175 0.212900 -0.380376
C20   C     C_3   0.045908 0.123447 0.303046 -0.302159
C21   C     C_3   0.037447 0.965701 0.161790 -0.925505
H15   H     H_    0.991220 0.969954 0.043980 0.251558
H16   H     H_    0.100134 0.936526 0.111660 0.261568
H17   H     H_    0.013470 0.871064 0.225982 0.233887
H18   H     H_    0.096762 0.117120 0.410844 0.205541
H19   H     H_    0.985415 0.138126 0.367853 0.219450
H20   H     H_    0.039617 0.233776 0.068027 0.193350
H21   H     H_    0.138494 0.268240 0.202230 0.190627
C22   C     C_3   0.104263 0.805019 0.711737 -0.396215
C23   C     C_3   0.185862 0.887606 0.667523 -0.357245
C24   C     C_3   0.220116 0.023635 0.827910 -0.856823
H22   H     H_    0.173010 0.114540 0.855779 0.245358
H23   H     H_    0.234921 0.979165 0.954353 0.257085
H24   H     H_    0.279131 0.079753 0.792298 0.243981
H25   H     H_    0.235893 0.803474 0.640103 0.233400
H26   H     H_    0.173251 0.935777 0.543092 0.211467
H27   H     H_    0.061891 0.900499 0.761850 0.207227
H28   H     H_    0.119226 0.746760 0.826832 0.203296

loop_
_geom_bond_atom_site_label_1
_geom_bond_atom_site_label_2
_ccdc_geom_bond_type
C15   C18   S    
Cu2   O6    S    
C22   C23   S    
C12   O5    A    
C1    O1    A    
C16   H12   S    
Cu2   O2    S    
C9    C10   D    
C14   C18   S    
Cu1   Cu2   S    
C13   C17   S    
C7    C18   S    
C22   H28   S    
C10   H6    S    
C2    H1    S    
Cu1   O5    S    
C2    C3    S    
C3    C4    S    
C2    C14   S    
C9    H5    S    
C7    C8    T    
C21   H16   S    
C19   C20   S    
C16   H11   S    
C11   O3    A    
C14   H2    S    
C24   H22   S    
Cu1   O3    S    
C1    O2    A    
C8    C11   S    
Cu2   O4    S    
C10   C12   S    
Cu2   O8    S    
Cu1   O7    S    
C19   H21   S    
C21   H17   S    
C4    H14   S    
Cu1   N2    S    
C11   O4    A    
C4    H4    S    
C23   H26   S    
C24   H23   S    
C15   C19   S    
C14   H9    S    
C19   H20   S    
C15   C16   S    
C21   H15   S    
C20   H19   S    
C13   O7    A    
C1    C9    S    
C23   C24   S    
H8    N2    S    
C15   H10   S    
C3    C6    S    
C2    H3    S    
C6    C17   T    
C23   H25   S    
C24   H24   S    
C12   O6    A    
C5    C18   S    
Cu1   O1    S    
H7    N1    S    
C20   C21   S    
Cu2   N1    S    
C20   H18   S    
C5    C22   S    
C13   O8    A    
C3    C16   S    
N1    N2    D    
C5    H13   S    
C4    C5    S    
C22   H27   S    
