data_mof_unit_63168.cif
_audit_creation_date              2013-03-05T16:32:32-0500
_audit_creation_method            fapswitch 2.2
_symmetry_space_group_name_H-M    P1
_symmetry_Int_Tables_number       1
_space_group_crystal_system       triclinic
_cell_length_a                    22.492329
_cell_length_b                    22.487805
_cell_length_c                    17.082895
_cell_angle_alpha                 90.0
_cell_angle_beta                  48.782617
_cell_angle_gamma                 90.000016
_cell_volume                      6499.57522785

loop_
_atom_site_label
_atom_site_type_symbol
_atom_site_description
_atom_site_fract_x
_atom_site_fract_y
_atom_site_fract_z
_atom_type_partial_charge
Zn1   Zn    Zn3+2 0.093390 0.799470 0.412120 1.006797
Zn2   Zn    Zn3+2 0.906610 0.200530 0.587880 1.006592
Zn3   Zn    Zn3+2 0.906610 0.799470 0.587880 1.006771
Zn4   Zn    Zn3+2 0.093390 0.200530 0.412120 1.006590
Zn5   Zn    Zn3+2 0.593390 0.299470 0.412120 1.006592
Zn6   Zn    Zn3+2 0.406610 0.700530 0.587880 1.006796
Zn7   Zn    Zn3+2 0.406610 0.299470 0.587880 1.006589
Zn8   Zn    Zn3+2 0.593390 0.700530 0.412120 1.006772
Zn9   Zn    Zn3+2 0.005520 0.700560 0.587880 1.038258
Zn10  Zn    Zn3+2 0.994480 0.299440 0.412120 1.038162
Zn11  Zn    Zn3+2 0.994480 0.700560 0.412120 1.038193
Zn12  Zn    Zn3+2 0.005520 0.299440 0.587880 1.038189
Zn13  Zn    Zn3+2 0.505520 0.200560 0.587880 1.038162
Zn14  Zn    Zn3+2 0.494480 0.799440 0.412120 1.038258
Zn15  Zn    Zn3+2 0.494480 0.200560 0.412120 1.038189
Zn16  Zn    Zn3+2 0.505520 0.799440 0.587880 1.038193
O1    O     O_3   0.000000 0.750020 0.500000 -0.514575
O2    O     O_3   0.000000 0.249980 0.500000 -0.514599
O3    O     O_3   0.500000 0.250020 0.500000 -0.514599
O4    O     O_3   0.500000 0.749980 0.500000 -0.514575
O5    O     O_R   0.848100 0.784630 0.734610 -0.643857
O6    O     O_R   0.151900 0.215370 0.265390 -0.643895
O7    O     O_R   0.151900 0.784630 0.265390 -0.643847
O8    O     O_R   0.848100 0.215370 0.734610 -0.643896
O9    O     O_R   0.348100 0.284630 0.734610 -0.643896
O10   O     O_R   0.651900 0.715370 0.265390 -0.643856
O11   O     O_R   0.651900 0.284630 0.265390 -0.643895
O12   O     O_R   0.348100 0.715370 0.734610 -0.643848
O13   O     O_R   0.101280 0.715410 0.561510 -0.636004
O14   O     O_R   0.898720 0.284590 0.438490 -0.635985
O15   O     O_R   0.898720 0.715410 0.438490 -0.636016
O16   O     O_R   0.101280 0.284590 0.561510 -0.635980
O17   O     O_R   0.601280 0.215410 0.561510 -0.635985
O18   O     O_R   0.398720 0.784590 0.438490 -0.636004
O19   O     O_R   0.398720 0.215410 0.438490 -0.635980
O20   O     O_R   0.601280 0.784590 0.561510 -0.636016
O21   O     O_R   0.003860 0.617990 0.561510 -0.618181
O22   O     O_R   0.996140 0.382010 0.438490 -0.618115
O23   O     O_R   0.996140 0.617990 0.438490 -0.618240
O24   O     O_R   0.003860 0.382010 0.561510 -0.618089
O25   O     O_R   0.503860 0.117990 0.561510 -0.618115
O26   O     O_R   0.496140 0.882010 0.438490 -0.618181
O27   O     O_R   0.496140 0.117990 0.438490 -0.618089
O28   O     O_R   0.503860 0.882010 0.561510 -0.618240
O29   O     O_R   0.934640 0.882050 0.561510 -0.632581
O30   O     O_R   0.065360 0.117950 0.438490 -0.632519
O31   O     O_R   0.065360 0.882050 0.438490 -0.632611
O32   O     O_R   0.934640 0.117950 0.561510 -0.632504
O33   O     O_R   0.434640 0.382050 0.561510 -0.632519
O34   O     O_R   0.565360 0.617950 0.438490 -0.632581
O35   O     O_R   0.565360 0.382050 0.438490 -0.632504
O36   O     O_R   0.434640 0.617950 0.561510 -0.632611
O37   O     O_R   0.162780 0.784640 0.438490 -0.632209
O38   O     O_R   0.837220 0.215360 0.561510 -0.632303
O39   O     O_R   0.837220 0.784640 0.561510 -0.632224
O40   O     O_R   0.162780 0.215360 0.438490 -0.632300
O41   O     O_R   0.662780 0.284640 0.438490 -0.632302
O42   O     O_R   0.337220 0.715360 0.561510 -0.632209
O43   O     O_R   0.337220 0.284640 0.561510 -0.632300
O44   O     O_R   0.662780 0.715360 0.438490 -0.632223
O45   O     O_R   0.917330 0.715410 0.734610 -0.614919
O46   O     O_R   0.082670 0.284590 0.265390 -0.614636
O47   O     O_R   0.082670 0.715410 0.265390 -0.614982
O48   O     O_R   0.917330 0.284590 0.734610 -0.614619
O49   O     O_R   0.417330 0.215410 0.734610 -0.614636
O50   O     O_R   0.582670 0.784590 0.265390 -0.614919
O51   O     O_R   0.582670 0.215410 0.265390 -0.614619
O52   O     O_R   0.417330 0.784590 0.734610 -0.614982
C1    C     C_R   0.858127 0.749899 0.783395 0.891765
C2    C     C_R   0.141888 0.250116 0.216605 0.891319
C3    C     C_R   0.141870 0.749902 0.216605 0.891867
C4    C     C_R   0.858111 0.250116 0.783395 0.891299
C5    C     C_R   0.358112 0.249884 0.783395 0.891321
C6    C     C_R   0.641873 0.750101 0.216605 0.891763
C7    C     C_R   0.641889 0.249884 0.216605 0.891298
C8    C     C_R   0.358130 0.750097 0.783395 0.891869
C9    C     C_R   0.160043 0.750033 0.499986 0.844988
C10   C     C_R   0.839957 0.249967 0.500014 0.844739
C11   C     C_R   0.839957 0.750033 0.500014 0.844959
C12   C     C_R   0.160043 0.249967 0.499986 0.844746
C13   C     C_R   0.660043 0.250033 0.499986 0.844739
C14   C     C_R   0.339957 0.749967 0.500014 0.844987
C15   C     C_R   0.339957 0.250033 0.500014 0.844746
C16   C     C_R   0.660043 0.749967 0.499986 0.844959
C17   C     C_R   1.000000 0.589986 0.500000 0.879165
C18   C     C_R   0.000000 0.410014 0.500000 0.878984
C19   C     C_R   0.500000 0.089986 0.500000 0.878984
C20   C     C_R   0.500000 0.910014 0.500000 0.879165
C21   C     C_R   0.000000 0.910055 0.500000 0.845585
C22   C     C_R   0.000000 0.089945 0.500000 0.845628
C23   C     C_R   0.500000 0.410055 0.500000 0.845628
C24   C     C_R   0.500000 0.589945 0.500000 0.845585
C25   C     C_1   1.000000 0.973345 0.500000 -0.119156
C26   C     C_1   0.000000 0.026655 0.500000 -0.119163
C27   C     C_1   0.500000 0.473345 0.500000 -0.119163
C28   C     C_1   0.500000 0.526655 0.500000 -0.119156
C29   C     C_3   0.270442 0.792540 0.034610 -0.229684
C30   C     C_3   0.729044 0.207923 0.965396 -0.229610
C31   C     C_3   0.729471 0.792464 0.965391 -0.229646
C32   C     C_3   0.270937 0.207906 0.034604 -0.229637
C33   C     C_3   0.770955 0.292077 0.034603 -0.229610
C34   C     C_3   0.229558 0.707459 0.965390 -0.229684
C35   C     C_3   0.229063 0.292094 0.965396 -0.229637
C36   C     C_3   0.770529 0.707536 0.034609 -0.229646
C37   C     C_3   0.749149 0.302517 0.967284 0.364167
C38   C     C_3   0.251446 0.697696 0.032760 0.363800
C39   C     C_3   0.250873 0.302509 0.032717 0.364167
C40   C     C_3   0.748653 0.697658 0.967247 0.363824
C41   C     C_3   0.248554 0.802304 0.967240 0.363800
C42   C     C_3   0.750851 0.197483 0.032716 0.364167
C43   C     C_3   0.751347 0.802342 0.032752 0.363824
C44   C     C_3   0.249127 0.197491 0.967283 0.364167
H1    H     H_    0.286239 0.828024 0.063298 0.196182
H2    H     H_    0.712806 0.172819 0.936714 0.196105
H3    H     H_    0.713599 0.827885 0.936703 0.196177
H4    H     H_    0.287159 0.172789 0.063287 0.196096
H5    H     H_    0.787193 0.327180 0.063286 0.196105
H6    H     H_    0.213761 0.671976 0.936702 0.196182
H7    H     H_    0.212841 0.327211 0.936713 0.196096
H8    H     H_    0.786401 0.672114 0.063297 0.196177
C45   C     C_3   0.800814 0.250185 0.897404 -0.106863
C46   C     C_3   0.199162 0.749841 0.102595 -0.107078
C47   C     C_3   0.199185 0.250184 0.102596 -0.106866
C48   C     C_3   0.800834 0.749836 0.897405 -0.107046
C49   C     C_3   0.300838 0.750159 0.897405 -0.107078
C50   C     C_3   0.699186 0.249815 0.102596 -0.106863
C51   C     C_3   0.699165 0.750164 0.102595 -0.107047
C52   C     C_3   0.300815 0.249816 0.897404 -0.106866
C53   C     C_3   0.823395 0.238397 0.963940 -0.282872
C54   C     C_3   0.176482 0.760949 0.036008 -0.282185
C55   C     C_3   0.176600 0.238421 0.036058 -0.282838
C56   C     C_3   0.823500 0.761059 0.963984 -0.282277
C57   C     C_3   0.323518 0.739051 0.963992 -0.282185
C58   C     C_3   0.676605 0.261603 0.036060 -0.282872
C59   C     C_3   0.676500 0.738941 0.036016 -0.282277
C60   C     C_3   0.323400 0.261579 0.963942 -0.282838
H9    H     H_    0.883558 0.227928 0.933718 0.184646
H10   H     H_    0.116205 0.770879 0.066188 0.184830
H11   H     H_    0.116433 0.227971 0.066279 0.184648
H12   H     H_    0.883759 0.771080 0.933796 0.184813
H13   H     H_    0.383795 0.729121 0.933811 0.184830
H14   H     H_    0.616442 0.272072 0.066282 0.184646
H15   H     H_    0.616241 0.728920 0.066204 0.184813
H16   H     H_    0.383567 0.272029 0.933721 0.184648
C61   C     C_1   0.776647 0.750021 0.500022 -0.128949
C62   C     C_1   0.223353 0.249979 0.499977 -0.129064
C63   C     C_1   0.223353 0.750021 0.499977 -0.128933
C64   C     C_1   0.776647 0.249979 0.500022 -0.129070
C65   C     C_1   0.276647 0.250021 0.500022 -0.129064
C66   C     C_1   0.723353 0.749979 0.499977 -0.128949
C67   C     C_1   0.723353 0.250021 0.499977 -0.129070
C68   C     C_1   0.276647 0.749979 0.500022 -0.128933
C69   C     C_1   1.000000 0.526664 0.500000 -0.097346
C70   C     C_1   1.000000 0.473336 0.500000 -0.097196
C71   C     C_1   0.500000 0.026664 0.500000 -0.097196
C72   C     C_1   0.500000 0.973336 0.500000 -0.097346
N1    N     N_R   0.746740 0.361174 0.933149 0.218166
O53   O     O_R   0.700588 0.401949 0.001874 -0.336166
O54   O     O_R   0.788841 0.372818 0.834824 -0.379049
N2    N     N_R   0.254507 0.639285 0.066977 0.218215
O55   O     O_R   0.301370 0.598698 0.998297 -0.336183
O56   O     O_R   0.212270 0.627694 0.165347 -0.379459
N3    N     N_R   0.253306 0.361158 0.066855 0.218154
O57   O     O_R   0.299486 0.401926 0.998131 -0.336228
O58   O     O_R   0.211198 0.372800 0.165182 -0.379079
N4    N     N_R   0.745701 0.639204 0.933045 0.218224
O59   O     O_R   0.698944 0.598587 0.001734 -0.336115
O60   O     O_R   0.787923 0.627601 0.834682 -0.379366
N5    N     N_R   0.245493 0.860715 0.933022 0.218215
O61   O     O_R   0.198630 0.901302 0.001703 -0.336183
O62   O     O_R   0.287730 0.872306 0.834653 -0.379459
N6    N     N_R   0.753260 0.138826 0.066851 0.218166
O63   O     O_R   0.799412 0.098051 0.998126 -0.336166
O64   O     O_R   0.711159 0.127182 0.165176 -0.379049
N7    N     N_R   0.754299 0.860796 0.066955 0.218224
O65   O     O_R   0.801056 0.901413 0.998266 -0.336115
O66   O     O_R   0.712077 0.872398 0.165318 -0.379366
N8    N     N_R   0.246694 0.138842 0.933145 0.218154
O67   O     O_R   0.200514 0.098074 0.001868 -0.336228
O68   O     O_R   0.288802 0.127200 0.834818 -0.379079

loop_
_geom_bond_atom_site_label_1
_geom_bond_atom_site_label_2
_geom_bond_distance
_ccdc_geom_bond_type
C30   C45   1.545083 S    
C16   C66   1.423897 S    
N1    O53   1.300245 A    
C30   C42   1.536735 S    
C4    C45   1.465034 S    
Zn2   O2    1.935703 S    
Zn8   O10   1.943972 S    
N5    O61   1.300347 A    
Zn6   O42   1.917449 S    
C3    C46   1.465040 S    
N3    O57   1.300248 A    
C32   H4    1.110168 S    
C64   C67   1.199205 T    
C39   C47   1.527173 S    
C34   C49   1.545147 S    
C36   H8    1.110256 S    
Zn13  O25   1.916838 S    
N8    O67   1.300248 A    
O51   C7    1.267596 A    
C11   C61   1.423897 S    
Zn4   O30   1.916961 S    
Zn15  O3    1.936978 S    
C48   C56   1.543138 S    
O39   C11   1.275864 A    
C29   C46   1.545147 S    
O22   C18   1.276112 A    
C43   N7    1.457692 S    
C20   C72   1.423964 S    
Zn10  O2    1.936978 S    
O21   C17   1.276110 A    
N3    O58   1.300179 A    
O33   C23   1.275226 A    
C39   N3    1.457588 S    
Zn11  O47   1.943389 S    
O42   C14   1.275864 A    
C31   H3    1.110256 S    
Zn12  O48   1.943390 S    
C30   H2    1.110164 S    
O16   C12   1.275580 A    
C49   C57   1.543128 S    
O15   C11   1.275582 A    
O50   C6    1.267601 A    
C24   C28   1.423260 S    
O49   C5    1.267595 A    
O46   C2    1.267597 A    
C42   C53   1.537182 S    
C29   C41   1.536801 S    
O24   C18   1.276109 A    
C31   C48   1.545164 S    
Zn15  O19   1.917009 S    
Zn1   O37   1.917450 S    
C40   N4    1.457692 S    
O35   C23   1.275227 A    
Zn5   O11   1.943973 S    
Zn3   O39   1.917449 S    
C2    C47   1.465034 S    
C38   C57   1.537267 S    
Zn6   O12   1.943975 S    
C27   C28   1.198827 T    
N6    O64   1.300180 A    
C41   C54   1.537267 S    
C34   C38   1.536801 S    
Zn16  O52   1.943390 S    
C29   C57   1.558668 S    
O29   C21   1.275227 A    
C9    C63   1.423897 S    
O9    C5    1.266130 A    
C61   C66   1.199205 T    
C34   H6    1.110243 S    
Zn9   O13   1.917013 S    
Zn14  O26   1.916839 S    
Zn4   O2    1.935702 S    
C41   C49   1.527209 S    
C59   H15   1.110244 S    
C31   C43   1.536820 S    
N1    O54   1.300180 A    
O32   C22   1.275227 A    
Zn12  O16   1.917013 S    
N4    O60   1.300186 A    
C8    C49   1.465040 S    
O31   C21   1.275227 A    
Zn10  O46   1.943389 S    
C40   C48   1.527228 S    
O11   C7    1.266132 A    
Zn16  O20   1.917013 S    
Zn7   O43   1.917449 S    
Zn15  O27   1.916839 S    
C53   H9    1.110160 S    
C41   N5    1.457671 S    
C22   C26   1.423260 S    
C33   C37   1.536735 S    
O25   C19   1.276110 A    
C37   N1    1.457583 S    
Zn13  O3    1.936974 S    
C37   C45   1.527169 S    
O7    C3    1.266126 A    
Zn7   O33   1.916962 S    
C40   C59   1.537277 S    
N7    O66   1.300186 A    
Zn2   O38   1.917449 S    
O19   C15   1.275582 A    
Zn1   O31   1.916962 S    
Zn13  O49   1.943390 S    
C1    C48   1.465039 S    
Zn2   O32   1.916962 S    
C13   C67   1.423896 S    
C23   C27   1.423260 S    
Zn3   O29   1.916962 S    
O5    C1    1.266124 A    
N2    O56   1.300187 A    
Zn12  O24   1.916839 S    
O37   C9    1.275866 A    
Zn13  O17   1.917013 S    
C39   C60   1.537187 S    
O43   C15   1.275866 A    
Zn14  O4    1.936978 S    
C58   H14   1.110160 S    
C62   C65   1.199205 T    
Zn4   O6    1.943972 S    
Zn10  O14   1.917009 S    
C6    C51   1.465039 S    
Zn16  O4    1.936974 S    
Zn15  O51   1.943389 S    
C38   C46   1.527209 S    
Zn9   O21   1.916838 S    
C33   C50   1.545083 S    
Zn14  O50   1.943389 S    
C31   C59   1.558685 S    
C25   C26   1.198827 T    
C17   C69   1.423964 S    
O52   C8    1.267601 A    
Zn9   O1    1.936974 S    
Zn11  O23   1.916839 S    
C35   C52   1.545085 S    
C42   C50   1.527169 S    
Zn5   O3    1.935701 S    
O34   C24   1.275227 A    
Zn8   O4    1.935702 S    
O47   C3    1.267602 A    
C32   C44   1.536737 S    
Zn7   O3    1.935704 S    
Zn2   O8    1.943975 S    
N4    O59   1.300356 A    
Zn9   O45   1.943390 S    
Zn3   O5    1.943975 S    
O26   C20   1.276110 A    
O23   C17   1.276110 A    
C29   H1    1.110243 S    
C54   H10   1.110230 S    
Zn8   O34   1.916961 S    
C36   C40   1.536820 S    
N6    O63   1.300245 A    
O8    C4    1.266130 A    
C44   N8    1.457588 S    
N5    O62   1.300187 A    
O45   C1    1.267600 A    
Zn16  O28   1.916839 S    
O12   C8    1.266123 A    
Zn11  O1    1.936978 S    
C47   C55   1.543026 S    
C57   H13   1.110230 S    
C35   H7    1.110168 S    
C34   C54   1.558668 S    
C45   C53   1.543020 S    
O40   C12   1.275867 A    
Zn14  O18   1.917009 S    
N8    O68   1.300179 A    
Zn1   O7    1.943973 S    
O30   C22   1.275227 A    
C10   C64   1.423896 S    
C56   H12   1.110244 S    
C5    C52   1.465034 S    
Zn6   O4    1.935703 S    
C30   C58   1.558593 S    
Zn1   O1    1.935701 S    
Zn7   O9    1.943975 S    
Zn5   O41   1.917450 S    
Zn10  O22   1.916839 S    
C32   C47   1.545085 S    
O27   C19   1.276110 A    
N2    O55   1.300347 A    
C7    C50   1.465034 S    
C52   C60   1.543026 S    
C63   C68   1.199205 T    
C18   C70   1.423964 S    
C33   H5    1.110164 S    
C60   H16   1.110164 S    
N7    O65   1.300356 A    
Zn8   O44   1.917450 S    
C43   C51   1.527228 S    
O44   C16   1.275866 A    
C36   C51   1.545164 S    
O17   C13   1.275580 A    
O20   C16   1.275580 A    
C38   N2    1.457671 S    
C12   C62   1.423896 S    
O10   C6    1.266126 A    
O38   C10   1.275866 A    
C46   C54   1.543128 S    
Zn3   O1    1.935704 S    
C19   C71   1.423964 S    
O48   C4    1.267595 A    
C44   C55   1.537187 S    
C21   C25   1.423260 S    
C51   C59   1.543138 S    
O41   C13   1.275867 A    
C14   C68   1.423897 S    
C44   C52   1.527173 S    
C55   H11   1.110164 S    
Zn11  O15   1.917009 S    
O14   C10   1.275581 A    
C43   C56   1.537277 S    
O13   C9    1.275580 A    
C50   C58   1.543020 S    
C36   C56   1.558685 S    
Zn12  O2    1.936974 S    
C71   C72   1.199250 T    
Zn5   O35   1.916962 S    
C35   C39   1.536737 S    
O18   C14   1.275581 A    
Zn6   O36   1.916962 S    
C69   C70   1.199250 T    
O28   C20   1.276110 A    
C35   C55   1.558597 S    
O6    C2    1.266132 A    
O36   C24   1.275227 A    
Zn4   O40   1.917450 S    
C32   C60   1.558597 S    
C42   N6    1.457583 S    
C37   C58   1.537182 S    
C15   C65   1.423896 S    
C33   C53   1.558593 S    
