data_mof_unit_59283.cif
_audit_creation_date              2012-12-10T19:11:04-0500
_audit_creation_method            fapswitch 2.2
_symmetry_space_group_name_H-M    P1
_symmetry_Int_Tables_number       1
_space_group_crystal_system       triclinic
_cell_length_a                    10.786765
_cell_length_b                    9.080711
_cell_length_c                    7.807118
_cell_angle_alpha                 90.03608
_cell_angle_beta                  89.872736
_cell_angle_gamma                 90.049975
_cell_volume                      764.716556349

loop_
_atom_site_label
_atom_site_type_symbol
_atom_type_description
_atom_site_fract_x
_atom_site_fract_y
_atom_site_fract_z
_atom_type_partial_charge
C1    C     C_R   0.500156 0.220147 0.499950 0.808773
C2    C     C_R   0.259466 0.501498 0.499856 0.822777
C3    C     C_R   0.740658 0.500911 0.499351 0.842488
C4    C     C_R   0.499970 0.779870 0.500034 0.830806
C5    C     C_1   0.500089 0.065429 0.499944 -0.211061
C6    C     C_3   0.072844 0.353185 0.575937 0.304039
C7    C     C_3   0.070582 0.510959 0.309410 0.285054
C8    C     C_3   0.928003 0.355741 0.580067 0.293499
C9    C     C_3   0.927064 0.512291 0.308508 0.225903
C10   C     C_1   0.500005 0.934591 0.500054 -0.195047
C11   C     C_3   0.070116 0.628121 0.613390 -0.399610
C12   C     C_3   0.928175 0.636626 0.596346 -0.394496
C13   C     C_3   0.122000 0.501576 0.498851 -0.146732
C14   C     C_3   0.878528 0.501195 0.496704 -0.098195
Cu1   Cu    Cu3+1 0.500000 0.500010 0.669080 0.997364
Cu2   Cu    Cu3+1 0.500000 0.500010 0.330920 1.004582
H1    H     H_    0.101674 0.262755 0.486708 -0.045966
H2    H     H_    0.095460 0.403145 0.250491 0.067543
H3    H     H_    0.894496 0.262449 0.498367 -0.035786
H4    H     H_    0.893883 0.410943 0.240336 0.040441
H5    H     H_    0.093608 0.606987 0.749826 0.249381
H6    H     H_    0.112748 0.736390 0.585691 0.131987
H7    H     H_    0.885128 0.642480 0.724050 0.181655
H8    H     H_    0.901595 0.740614 0.531073 0.188193
N1    N     N_1   0.500000 0.499970 0.076820 -0.049677
N2    N     N_1   0.500000 0.499970 0.923180 -0.050931
O1    O     O_R   0.500000 0.288400 0.642760 -0.589382
O2    O     O_R   0.500000 0.288400 0.357240 -0.583113
O3    O     O_R   0.317700 0.499990 0.642790 -0.544888
O4    O     O_R   0.317700 0.499990 0.357210 -0.560465
O5    O     O_R   0.682300 0.499990 0.642790 -0.572464
O6    O     O_R   0.682300 0.499990 0.357210 -0.580524
O7    O     O_R   0.500000 0.711620 0.642810 -0.588288
O8    O     O_R   0.500000 0.711620 0.357190 -0.571601
O9    O     O_3   0.120331 0.332512 0.744468 -0.507244
C15   C     C_3   0.175191 0.192355 0.762342 -0.224795
H9    H     H_    0.258085 0.182222 0.678521 0.146139
H10   H     H_    0.108101 0.102893 0.733202 0.120077
H11   H     H_    0.205850 0.178824 0.896925 0.177282
O10   O     O_3   0.126071 0.613558 0.193233 -0.529537
C16   C     C_3   0.135589 0.759438 0.253812 -0.184102
H12   H     H_    0.217611 0.771903 0.337958 0.132140
H13   H     H_    0.050110 0.799589 0.316817 0.177871
H14   H     H_    0.151594 0.832372 0.142016 0.152785
O11   O     O_3   0.885095 0.346146 0.752376 -0.530074
C17   C     C_3   0.826481 0.209815 0.783675 -0.249074
H15   H     H_    0.890365 0.116210 0.759228 0.136367
H16   H     H_    0.741613 0.198102 0.704420 0.156766
H17   H     H_    0.798177 0.205607 0.920271 0.172721
O12   O     O_3   0.880553 0.642771 0.231791 -0.567158
C18   C     C_3   0.856020 0.619715 0.056996 -0.176642
H18   H     H_    0.938168 0.572814 0.990419 0.209719
H19   H     H_    0.833658 0.727534 0.998087 0.143822
H20   H     H_    0.774656 0.546072 0.039814 0.186678

loop_
_geom_bond_atom_site_label_1
_geom_bond_atom_site_label_2
_ccdc_geom_bond_type
Cu2   O2    S    
C1    O2    A    
C6    C8    S    
C9    C14   S    
Cu1   O5    S    
Cu2   O6    S    
C11   C13   S    
C16   H12   S    
C12   H8    S    
C11   H6    S    
Cu1   O1    S    
O9    C15   S    
C12   H7    S    
C2    O4    A    
C18   H20   S    
C7    H2    S    
C15   H10   S    
O12   C18   S    
C5    C10   T    
O11   C17   S    
C6    C13   S    
C3    O5    A    
C16   H13   S    
C17   H17   S    
C3    C14   S    
C2    O3    A    
C1    C5    S    
C15   H9    S    
C12   C14   S    
Cu1   O3    S    
C17   H16   S    
C3    O6    A    
C16   H14   S    
C4    O8    A    
C8    H3    S    
C4    O7    A    
Cu2   O4    S    
C18   H18   S    
C6    H1    S    
C7    C13   S    
C6    O9    S    
C7    C9    S    
Cu2   N1    S    
C1    O1    A    
C2    C13   S    
C17   H15   S    
O10   C16   S    
Cu1   N2    S    
C8    C14   S    
C9    H4    S    
Cu2   O8    S    
N1    N2    T    
C8    O11   S    
C7    O10   S    
C4    C10   S    
C11   H5    S    
C15   H11   S    
C9    O12   S    
Cu1   Cu2   S    
C11   C12   S    
Cu1   O7    S    
C18   H19   S    
