data_mof_unit_44748.cif
_audit_creation_date              2012-12-11T15:34:44-0500
_audit_creation_method            fapswitch 2.2
_symmetry_space_group_name_H-M    P1
_symmetry_Int_Tables_number       1
_space_group_crystal_system       triclinic
_cell_length_a                    17.14973
_cell_length_b                    17.149896
_cell_length_c                    17.2914
_cell_angle_alpha                 90.232182
_cell_angle_beta                  89.764708
_cell_angle_gamma                 89.269067
_cell_volume                      5085.17933001

loop_
_atom_site_label
_atom_site_type_symbol
_atom_type_description
_atom_site_fract_x
_atom_site_fract_y
_atom_site_fract_z
_atom_type_partial_charge
C1    C     C_R   0.801866 0.106440 0.398543 -0.173023
C2    C     C_R   0.172710 0.077978 0.357711 -0.140807
C3    C     C_3   0.494376 0.682998 0.336624 -0.069925
C4    C     C_3   0.855528 0.582160 0.781018 -0.116436
C5    C     C_3   0.090315 0.376575 0.142794 -0.194217
C6    C     C_3   0.462095 0.819908 0.726431 -0.175628
C7    C     C_3   0.501710 0.302243 0.326377 -0.226342
C8    C     C_3   0.178540 0.537080 0.272077 -0.172566
C9    C     C_3   0.682974 0.494374 0.663330 -0.070252
C10   C     C_3   0.582141 0.855523 0.219001 -0.116128
C11   C     C_3   0.376549 0.090330 0.857229 -0.194212
C12   C     C_3   0.819962 0.461819 0.273686 -0.178478
C13   C     C_R   0.892906 0.198348 0.601452 -0.160727
C14   C     C_3   0.302498 0.501753 0.673511 -0.226085
C15   C     C_3   0.326304 0.075024 0.075261 -0.116277
C16   C     C_3   0.656223 0.898146 0.904991 -0.207608
C17   C     C_3   0.715728 0.770308 0.396365 -0.179316
C18   C     C_3   0.173647 0.018808 0.838833 -0.258151
C19   C     C_3   0.194187 0.632495 0.471140 -0.195793
C20   C     C_3   0.892398 0.343083 0.733587 -0.185128
C21   C     C_3   0.353235 0.125174 0.297606 -0.211227
C22   C     C_3   0.871112 0.935359 0.876342 -0.227961
C23   C     C_3   0.797503 0.375231 0.468565 -0.186983
C24   C     C_R   0.106957 0.802880 0.394030 -0.126213
C25   C     C_3   0.102124 0.664249 0.736837 -0.209736
C26   C     C_3   0.632950 0.194098 0.528618 -0.196004
C27   C     C_3   0.342917 0.892319 0.266021 -0.184791
C28   C     C_3   0.125345 0.353241 0.702251 -0.211088
C29   C     C_3   0.935362 0.871093 0.123674 -0.227895
C30   C     C_3   0.373243 0.798895 0.531041 -0.187718
C31   C     C_3   0.664524 0.102070 0.262813 -0.209502
C32   C     C_3   0.770309 0.715751 0.603648 -0.179363
C33   C     C_3   0.018770 0.173671 0.161180 -0.258340
C34   C     C_R   0.173907 0.083509 0.641859 -0.134271
C35   C     C_R   0.833568 0.925785 0.354538 -0.080648
C36   C     C_R   0.106470 0.801875 0.601461 -0.172457
C37   C     C_R   0.893084 0.196785 0.393818 -0.119986
C38   C     C_R   0.331788 0.576657 0.854846 -0.167948
C39   C     C_R   0.667636 0.423707 0.145774 -0.133176
C40   C     C_R   0.391735 0.301137 0.902087 -0.139431
C41   C     C_R   0.196782 0.893121 0.606204 -0.121298
C42   C     C_R   0.604665 0.698551 0.098611 -0.051279
C43   C     C_R   0.666931 0.423509 0.853442 -0.170325
C44   C     C_R   0.332611 0.575019 0.146106 -0.133053
C45   C     C_R   0.607367 0.697071 0.896918 -0.162285
C46   C     C_R   0.393656 0.301247 0.097995 -0.138868
C47   C     C_R   0.301133 0.391740 0.097912 -0.139512
C48   C     C_R   0.698554 0.604665 0.901391 -0.051199
C49   C     C_R   0.423524 0.666912 0.146563 -0.170476
C50   C     C_R   0.575035 0.332597 0.853904 -0.133171
C51   C     C_R   0.697069 0.607360 0.103091 -0.162324
C52   C     C_R   0.921964 0.828887 0.356201 -0.131773
C53   C     C_R   0.301246 0.393665 0.902007 -0.138863
C54   C     C_R   0.576658 0.331762 0.145135 -0.168184
C55   C     C_R   0.423729 0.667637 0.854234 -0.133300
C56   C     C_R   0.168120 0.177321 0.759331 -0.342878
C57   C     C_R   0.818865 0.823204 0.257209 -0.392483
C58   C     C_R   0.757302 0.245843 0.644818 -0.374403
C59   C     C_R   0.245770 0.757321 0.354993 -0.375300
C60   C     C_R   0.823214 0.818882 0.742805 -0.392454
C61   C     C_R   0.177291 0.168105 0.240636 -0.342766
C62   C     C_R   0.240619 0.754256 0.646389 -0.377974
C63   C     C_R   0.077977 0.172713 0.642283 -0.140883
C64   C     C_R   0.754192 0.240532 0.353628 -0.376756
C65   C     C_R   0.727873 0.740282 0.156963 -0.360563
C66   C     C_R   0.251601 0.256675 0.871710 -0.278372
C67   C     C_R   0.341479 0.655806 0.270779 -0.342770
C68   C     C_R   0.655847 0.341442 0.729233 -0.342961
C69   C     C_R   0.256650 0.251610 0.128271 -0.278312
C70   C     C_R   0.740294 0.727879 0.843052 -0.360604
C71   C     C_R   0.658524 0.340137 0.268641 -0.345121
C72   C     C_R   0.340233 0.658561 0.731353 -0.345657
C73   C     C_R   0.814500 0.183313 0.378644 0.221915
C74   C     C_R   0.198328 0.892912 0.398473 -0.161973
C75   C     C_R   0.183346 0.814533 0.621378 0.221473
C76   C     C_R   0.863994 0.863833 0.312997 0.237303
C77   C     C_R   0.140443 0.144760 0.685137 0.220726
C78   C     C_R   0.185669 0.815732 0.378974 0.222892
C79   C     C_R   0.815710 0.185721 0.620889 0.223468
C80   C     C_R   0.144745 0.140434 0.314846 0.220696
C81   C     C_R   0.863846 0.864014 0.687018 0.237276
C82   C     C_R   0.366845 0.633033 0.808655 0.202006
C83   C     C_R   0.633029 0.366799 0.191339 0.202178
C84   C     C_R   0.312458 0.314248 0.891109 0.218577
C85   C     C_R   0.802863 0.106994 0.605901 -0.127274
C86   C     C_R   0.680622 0.685106 0.116968 0.282550
C87   C     C_R   0.630988 0.367159 0.807454 0.194897
C88   C     C_R   0.367186 0.630957 0.192557 0.194686
C89   C     C_R   0.685114 0.680624 0.883043 0.282522
C90   C     C_R   0.314236 0.312463 0.108889 0.218530
C91   C     C_R   0.177133 0.283867 0.850844 0.387482
C92   C     C_R   0.808141 0.745536 0.141336 0.446997
C93   C     C_R   0.626843 0.272799 0.695759 0.442691
C94   C     C_R   0.372892 0.723947 0.302181 0.383211
C95   C     C_R   0.780933 0.692708 0.781124 0.401283
C96   C     C_R   0.083496 0.173897 0.358130 -0.134439
C97   C     C_R   0.177672 0.270757 0.143333 0.409638
C98   C     C_R   0.370624 0.725951 0.696539 0.431617
C99   C     C_R   0.627927 0.270427 0.297976 0.412423
C100  C     C_R   0.272831 0.626806 0.304243 0.442332
C101  C     C_R   0.723944 0.372906 0.697775 0.382659
C102  C     C_R   0.692694 0.780926 0.218884 0.401211
C103  C     C_R   0.270738 0.177693 0.856664 0.409677
C104  C     C_R   0.725848 0.370546 0.303575 0.430193
C105  C     C_R   0.270577 0.627940 0.701932 0.412442
C106  C     C_R   0.283825 0.177125 0.149097 0.387464
C107  C     C_R   0.925795 0.833583 0.645471 -0.080608
C108  C     C_R   0.745551 0.808144 0.858686 0.446991
C109  C     C_R   0.739781 0.812337 0.274294 0.409806
C110  C     C_R   0.222798 0.135687 0.804841 0.388622
C111  C     C_R   0.228541 0.676630 0.353004 0.389365
C112  C     C_R   0.780126 0.321389 0.668741 0.426846
C113  C     C_R   0.252140 0.143621 0.215007 0.400401
C114  C     C_R   0.793215 0.853127 0.810573 0.415945
C115  C     C_R   0.769901 0.321385 0.352582 0.391477
C116  C     C_R   0.216023 0.679964 0.671830 0.424386
C117  C     C_R   0.676618 0.228583 0.646893 0.388890
C118  C     C_R   0.828897 0.921979 0.643808 -0.131726
C119  C     C_R   0.321319 0.780149 0.331071 0.426537
C120  C     C_R   0.143655 0.252186 0.784926 0.400472
C121  C     C_R   0.853119 0.793202 0.189446 0.415946
C122  C     C_R   0.321468 0.770097 0.647641 0.391566
C123  C     C_R   0.679978 0.215877 0.328033 0.423762
C124  C     C_R   0.812342 0.739801 0.725715 0.409809
C125  C     C_R   0.135661 0.222807 0.195148 0.388628
C126  C     C_3   0.075033 0.326383 0.924659 -0.116532
C127  C     C_3   0.898142 0.656195 0.095055 -0.207607
C128  C     C_3   0.537254 0.178425 0.728047 -0.172131
H1    H     H_    0.746932 0.078754 0.409326 0.177955
H2    H     H_    0.216488 0.035329 0.342736 0.177092
H3    H     H_    0.752789 0.422286 0.461664 0.140908
H4    H     H_    0.845069 0.398788 0.504705 0.201443
H5    H     H_    0.039835 0.649243 0.729700 0.152059
H6    H     H_    0.104220 0.725605 0.758029 0.108319
H7    H     H_    0.127317 0.624018 0.780705 0.163802
H8    H     H_    0.688563 0.209418 0.499702 0.138353
H9    H     H_    0.591511 0.244618 0.527738 0.132809
H10   H     H_    0.606474 0.146147 0.494917 0.198571
H11   H     H_    0.370972 0.949951 0.270430 0.195392
H12   H     H_    0.281090 0.901977 0.248924 0.134701
H13   H     H_    0.920383 0.253413 0.590993 0.173100
H14   H     H_    0.374473 0.858969 0.219965 0.119028
H15   H     H_    0.170523 0.327253 0.663104 0.119170
H16   H     H_    0.151478 0.398569 0.739906 0.196879
H17   H     H_    0.081313 0.382598 0.665256 0.166287
H18   H     H_    0.909763 0.924499 0.151067 0.122075
H19   H     H_    0.906519 0.859129 0.067394 0.154046
H20   H     H_    0.997694 0.882690 0.111522 0.152261
H21   H     H_    0.321575 0.776086 0.500178 0.129352
H22   H     H_    0.418975 0.752562 0.536162 0.139077
H23   H     H_    0.397712 0.846496 0.495552 0.201240
H24   H     H_    0.077091 0.748056 0.394002 0.163119
H25   H     H_    0.725916 0.104264 0.241735 0.108258
H26   H     H_    0.624349 0.127309 0.218919 0.163628
H27   H     H_    0.649563 0.039754 0.269813 0.152009
H28   H     H_    0.760712 0.777967 0.588203 0.127067
H29   H     H_    0.715595 0.691176 0.627678 0.123888
H30   H     H_    0.784421 0.683439 0.549584 0.147913
H31   H     H_    0.033134 0.114650 0.184038 0.143574
H32   H     H_    0.033908 0.177172 0.098594 0.129592
H33   H     H_    0.954782 0.182400 0.166709 0.160573
H34   H     H_    0.224637 0.048653 0.655878 0.156059
H35   H     H_    0.784785 0.962877 0.338852 0.124343
H36   H     H_    0.078793 0.746939 0.590680 0.178009
H37   H     H_    0.922729 0.251777 0.393263 0.164430
H38   H     H_    0.284171 0.539078 0.840954 0.170127
H39   H     H_    0.714174 0.461916 0.160898 0.148496
H40   H     H_    0.421145 0.245459 0.906658 0.151139
H41   H     H_    0.251745 0.922808 0.606757 0.164713
H42   H     H_    0.575585 0.754441 0.092245 0.104787
H43   H     H_    0.714090 0.461155 0.837683 0.174906
H44   H     H_    0.286709 0.535904 0.161003 0.147329
H45   H     H_    0.578836 0.753538 0.895433 0.109989
H46   H     H_    0.425544 0.247183 0.092418 0.175136
H47   H     H_    0.245457 0.421154 0.093336 0.151145
H48   H     H_    0.754443 0.575581 0.907758 0.104761
H49   H     H_    0.461174 0.714066 0.162323 0.174906
H50   H     H_    0.535918 0.286697 0.839018 0.147414
H51   H     H_    0.753533 0.578824 0.104586 0.110045
H52   H     H_    0.954531 0.776279 0.342483 0.121558
H53   H     H_    0.247186 0.425558 0.907594 0.175145
H54   H     H_    0.539079 0.284139 0.158999 0.170217
H55   H     H_    0.461943 0.714174 0.839130 0.148283
H56   H     H_    0.085835 0.275885 0.963712 0.137688
H57   H     H_    0.027686 0.312680 0.883266 0.130667
H58   H     H_    0.054405 0.375992 0.961011 0.155137
H59   H     H_    0.886486 0.625275 0.150459 0.091911
H60   H     H_    0.955599 0.685094 0.097226 0.189524
H61   H     H_    0.901746 0.611160 0.048897 0.131764
H62   H     H_    0.586451 0.154578 0.763136 0.104685
H63   H     H_    0.035320 0.216483 0.657266 0.176918
H64   H     H_    0.525619 0.140145 0.677631 0.193984
H65   H     H_    0.484715 0.177601 0.765216 0.118287
H66   H     H_    0.498496 0.628595 0.301597 0.132243
H67   H     H_    0.469555 0.670636 0.394949 0.067325
H68   H     H_    0.554323 0.704037 0.345905 0.187301
H69   H     H_    0.881348 0.603746 0.836050 0.064996
H70   H     H_    0.894822 0.594977 0.731595 0.172697
H71   H     H_    0.851811 0.517961 0.785841 0.170993
H72   H     H_    0.103266 0.377873 0.205839 0.130844
H73   H     H_    0.029511 0.357527 0.133071 0.180066
H74   H     H_    0.253409 0.920367 0.408908 0.172727
H75   H     H_    0.094328 0.437217 0.121197 0.114138
H76   H     H_    0.414094 0.844774 0.763005 0.106705
H77   H     H_    0.472203 0.856862 0.674946 0.195031
H78   H     H_    0.516191 0.821904 0.761308 0.115232
H79   H     H_    0.503294 0.360924 0.299331 0.154368
H80   H     H_    0.516521 0.306187 0.388924 0.125626
H81   H     H_    0.440920 0.281437 0.322175 0.152483
H82   H     H_    0.154651 0.586199 0.236908 0.104853
H83   H     H_    0.140270 0.525491 0.322514 0.193906
H84   H     H_    0.177768 0.484478 0.234995 0.118493
H85   H     H_    0.748029 0.077141 0.605915 0.163175
H86   H     H_    0.628514 0.498400 0.698283 0.132322
H87   H     H_    0.670730 0.469598 0.604962 0.067079
H88   H     H_    0.703962 0.554353 0.654141 0.187313
H89   H     H_    0.603771 0.881386 0.164003 0.064875
H90   H     H_    0.594909 0.894785 0.268459 0.172875
H91   H     H_    0.517945 0.851799 0.214122 0.171014
H92   H     H_    0.377886 0.103303 0.794188 0.130917
H93   H     H_    0.357477 0.029528 0.866928 0.180090
H94   H     H_    0.437179 0.094315 0.878859 0.114120
H95   H     H_    0.844724 0.413821 0.237043 0.107179
H96   H     H_    0.048626 0.224618 0.344109 0.155998
H97   H     H_    0.856906 0.471721 0.325215 0.194946
H98   H     H_    0.822129 0.515971 0.238904 0.116124
H99   H     H_    0.361153 0.503353 0.700610 0.154413
H100  H     H_    0.306494 0.516600 0.610974 0.125548
H101  H     H_    0.281718 0.440950 0.677664 0.152444
H102  H     H_    0.275772 0.085818 0.036250 0.137600
H103  H     H_    0.312645 0.027670 0.116662 0.130637
H104  H     H_    0.375889 0.054408 0.038868 0.155148
H105  H     H_    0.625307 0.886516 0.849582 0.091892
H106  H     H_    0.685130 0.955600 0.902840 0.189513
H107  H     H_    0.962891 0.784802 0.661160 0.124204
H108  H     H_    0.611183 0.901738 0.951148 0.131754
H109  H     H_    0.777949 0.760687 0.411779 0.126964
H110  H     H_    0.691121 0.715603 0.372354 0.123781
H111  H     H_    0.683449 0.784438 0.450444 0.148096
H112  H     H_    0.114626 0.033181 0.815980 0.143520
H113  H     H_    0.177154 0.033950 0.901416 0.129523
H114  H     H_    0.182365 0.954819 0.833312 0.160629
H115  H     H_    0.209941 0.687867 0.500268 0.137508
H116  H     H_    0.244453 0.590740 0.471675 0.133375
H117  H     H_    0.146172 0.606157 0.504865 0.198589
H118  H     H_    0.776297 0.954558 0.657530 0.121596
H119  H     H_    0.902091 0.281269 0.750712 0.134530
H120  H     H_    0.859127 0.374659 0.779683 0.119256
H121  H     H_    0.950023 0.371136 0.729052 0.195366
H122  H     H_    0.327320 0.170374 0.336774 0.119161
H123  H     H_    0.398579 0.151258 0.259931 0.196958
H124  H     H_    0.382557 0.081099 0.334579 0.166377
H125  H     H_    0.924517 0.909764 0.848941 0.122103
H126  H     H_    0.859151 0.906508 0.932621 0.154055
H127  H     H_    0.882709 0.997689 0.888498 0.152254
H128  H     H_    0.772302 0.324900 0.499790 0.126901
N1    N     N_R   0.868470 0.074730 0.422590 -0.056823
N2    N     N_R   0.131530 0.074730 0.422590 -0.056753
N3    N     N_R   0.925270 0.131530 0.577410 -0.055526
N4    N     N_R   0.074730 0.868470 0.422590 -0.051888
N5    N     N_R   0.131530 0.074730 0.577410 -0.055306
N6    N     N_R   0.868470 0.925270 0.422590 -0.052303
N7    N     N_R   0.074730 0.868470 0.577410 -0.056824
N8    N     N_R   0.925270 0.131530 0.422590 -0.054793
N9    N     N_R   0.368470 0.574730 0.922590 -0.052763
N10   N     N_R   0.631530 0.425270 0.077410 -0.054417
N11   N     N_R   0.425270 0.368470 0.922590 -0.050607
N12   N     N_R   0.131530 0.925270 0.577410 -0.054637
N13   N     N_R   0.574730 0.631530 0.077410 -0.059740
N14   N     N_R   0.631530 0.425270 0.922590 -0.053630
N15   N     N_R   0.368470 0.574730 0.077410 -0.053777
N16   N     N_R   0.574730 0.631530 0.922590 -0.053073
N17   N     N_R   0.425270 0.368470 0.077410 -0.053920
N18   N     N_R   0.368470 0.425270 0.077410 -0.050594
N19   N     N_R   0.631530 0.574730 0.922590 -0.059737
N20   N     N_R   0.425270 0.631530 0.077410 -0.053605
N21   N     N_R   0.574730 0.368470 0.922590 -0.053783
N22   N     N_R   0.631530 0.574730 0.077410 -0.053093
N23   N     N_R   0.925270 0.868470 0.422590 -0.058602
N24   N     N_R   0.368470 0.425270 0.922590 -0.053937
N25   N     N_R   0.574730 0.368470 0.077410 -0.052750
N26   N     N_R   0.425270 0.631530 0.922590 -0.054379
N27   N     N_R   0.074730 0.131530 0.577410 -0.056768
N28   N     N_R   0.131530 0.925270 0.422590 -0.055308
N29   N     N_R   0.868470 0.074730 0.577410 -0.051827
N30   N     N_R   0.074730 0.131530 0.422590 -0.055304
N31   N     N_R   0.925270 0.868470 0.577410 -0.052317
N32   N     N_R   0.868470 0.925270 0.577410 -0.058584
Ni1   Ni    Ni4+2 0.869670 0.000000 0.500000 0.216219
Ni2   Ni    Ni4+2 0.130330 0.000000 0.500000 0.207706
Ni3   Ni    Ni4+2 0.000000 0.869670 0.500000 0.216184
Ni4   Ni    Ni4+2 0.000000 0.130330 0.500000 0.208010
Ni5   Ni    Ni4+2 0.369670 0.500000 0.000000 0.211926
Ni6   Ni    Ni4+2 0.630330 0.500000 0.000000 0.202110
Ni7   Ni    Ni4+2 0.500000 0.369670 0.000000 0.211934
Ni8   Ni    Ni4+2 0.500000 0.630330 0.000000 0.202107
O1    O     O_3   0.143483 0.348845 0.885545 -0.611538
O2    O     O_3   0.741117 0.451324 0.702748 -0.586151
O3    O     O_3   0.612981 0.779806 0.231658 -0.590363
O4    O     O_3   0.328973 0.142379 0.900631 -0.613758
O5    O     O_3   0.741644 0.449507 0.296171 -0.608001
O6    O     O_3   0.248865 0.551222 0.712508 -0.602619
O7    O     O_3   0.348784 0.143476 0.114357 -0.611553
O8    O     O_3   0.710431 0.838846 0.924751 -0.592509
O9    O     O_3   0.707088 0.833445 0.344895 -0.595699
O10   O     O_3   0.232427 0.056030 0.796018 -0.614645
O11   O     O_3   0.167748 0.646351 0.395368 -0.629149
O12   O     O_3   0.838855 0.710411 0.075278 -0.592508
O13   O     O_3   0.855473 0.347584 0.660869 -0.610669
O14   O     O_3   0.295685 0.087683 0.253210 -0.635527
O15   O     O_3   0.806461 0.930852 0.826549 -0.603174
O16   O     O_3   0.829099 0.352021 0.396626 -0.629894
O17   O     O_3   0.139991 0.655490 0.664613 -0.602188
O18   O     O_3   0.646287 0.167814 0.604534 -0.628951
O19   O     O_3   0.347462 0.855526 0.338803 -0.610959
O20   O     O_3   0.087774 0.295758 0.746673 -0.635475
O21   O     O_3   0.930848 0.806446 0.173474 -0.603162
O22   O     O_3   0.352198 0.829540 0.603994 -0.630069
O23   O     O_3   0.548234 0.256098 0.703641 -0.604151
O24   O     O_3   0.655598 0.139798 0.335086 -0.602097
O25   O     O_3   0.833449 0.707114 0.655111 -0.595739
O26   O     O_3   0.056006 0.232448 0.203983 -0.614710
O27   O     O_3   0.451306 0.741154 0.297244 -0.586158
O28   O     O_3   0.779814 0.612999 0.768343 -0.590262
O29   O     O_3   0.142363 0.329007 0.099381 -0.613770
O30   O     O_3   0.449621 0.741647 0.703849 -0.607527
O31   O     O_3   0.551229 0.248671 0.287357 -0.602520
O32   O     O_3   0.256202 0.548172 0.296457 -0.604287

loop_
_geom_bond_atom_site_label_1
_geom_bond_atom_site_label_2
_ccdc_geom_bond_type
C95   C124  A    
C71   C104  A    
C13   C79   A    
C15   H104  S    
C105  C116  A    
C26   O18   S    
C50   N21   A    
C28   H17   S    
C58   C112  A    
C57   C76   S    
C50   H50   S    
C1    H1    S    
C51   H51   S    
C61   C80   S    
C18   O10   S    
N8    Ni4   S    
C6    H77   S    
C42   H42   S    
C4    H71   S    
C57   C109  A    
C67   C94   A    
C59   C111  A    
C46   H46   S    
C42   C86   A    
C8    H83   S    
C25   H5    S    
C19   H115  S    
N28   Ni2   S    
C64   C115  A    
C54   C83   A    
N4    N28   A    
C5    H72   S    
C49   H49   S    
C121  O21   S    
C103  O4    S    
C68   C101  A    
C29   H18   S    
C30   H21   S    
C41   H41   S    
C3    H67   S    
C33   H33   S    
C44   H44   S    
C12   H95   S    
N19   Ni6   S    
C45   H45   S    
N21   Ni7   S    
C128  O23   S    
N5    Ni2   S    
C16   O8    S    
C14   H101  S    
C9    O2    S    
C67   C100  A    
C108  O8    S    
C18   H113  S    
C93   O23   S    
C15   H102  S    
C21   O14   S    
C62   C75   S    
C97   O29   S    
C79   C85   A    
C99   O31   S    
C5    O29   S    
N7    Ni3   S    
C66   C103  A    
C126  H57   S    
C113  O14   S    
C118  H118  S    
N27   Ni4   S    
C24   N4    A    
C16   H105  S    
N16   N19   A    
N6    N23   A    
C128  H62   S    
C25   H7    S    
C26   H8    S    
C40   N11   A    
C100  C111  A    
C102  C109  A    
C124  O25   S    
C53   N24   A    
C112  O13   S    
C60   C114  A    
C26   H9    S    
C11   H93   S    
C29   H20   S    
N1    Ni1   S    
C9    H87   S    
C101  C112  A    
C111  O11   S    
C125  O26   S    
C103  C110  A    
C120  O20   S    
C35   N6    A    
N18   Ni5   S    
C53   H53   S    
C30   O22   S    
C5    H73   S    
N20   Ni8   S    
C98   O30   S    
N22   Ni6   S    
C109  O9    S    
N11   N24   A    
C6    O30   S    
C10   O3    S    
C32   H28   S    
C3    O27   S    
C20   O13   S    
C64   C73   S    
C22   O15   S    
C33   H32   S    
C4    H70   S    
C127  H59   S    
C27   O19   S    
C93   C117  A    
C91   O1    S    
C8    H82   S    
C59   C78   S    
C18   H112  S    
C10   H91   S    
N17   N18   A    
C71   C83   S    
N15   N20   A    
C35   C76   A    
C106  C113  A    
C36   N7    A    
C19   O11   S    
C128  H65   S    
C7    H79   S    
C21   H122  S    
C43   H43   S    
C37   H37   S    
C58   C117  A    
C27   H11   S    
C128  H64   S    
C107  N31   A    
C14   H100  S    
C36   C75   A    
N14   Ni6   S    
C60   C81   S    
C12   H98   S    
C15   O7    S    
N9    Ni5   S    
C23   H3    S    
C23   O16   S    
N11   Ni7   S    
C22   H127  S    
C50   C87   A    
C52   N23   A    
C28   H16   S    
C122  O22   S    
C7    O31   S    
C47   C90   A    
C70   C89   S    
C62   C122  A    
C31   H26   S    
C32   H29   S    
C98   C122  A    
C34   N5    A    
C15   H103  S    
C23   H128  S    
C34   H34   S    
C5    H75   S    
C95   O28   S    
N6    Ni1   S    
N30   Ni4   S    
C13   N3    A    
C37   N8    A    
C70   C108  A    
N25   Ni7   S    
C18   H114  S    
N3    Ni4   S    
C6    H78   S    
C68   C87   S    
C8    H84   S    
C47   H47   S    
C10   H89   S    
C48   H48   S    
C69   C97   A    
C45   N16   A    
C81   C107  A    
C104  O5    S    
C40   C84   A    
C21   H124  S    
C47   N18   A    
C65   C86   S    
C126  O1    S    
C10   H90   S    
C67   C88   S    
C127  H61   S    
C38   N9    A    
C34   C77   A    
C30   H22   S    
N17   Ni7   S    
C108  C114  A    
N15   Ni5   S    
C22   H125  S    
C37   C73   A    
C24   H24   S    
N5    N27   A    
C31   O24   S    
C20   H119  S    
C12   O5    S    
C96   N30   A    
C13   H13   S    
C45   C89   A    
C118  N32   A    
C17   H110  S    
N2    Ni2   S    
C54   N25   A    
C74   N28   A    
C38   C82   A    
C49   C88   A    
C51   C86   A    
C7    H81   S    
N9    N26   A    
C1    N1    A    
N7    N12   A    
C46   N17   A    
C110  O10   S    
C126  H58   S    
C97   C125  A    
C74   H74   S    
C52   C76   A    
C81   C118  A    
C6    H76   S    
C41   C75   A    
C104  C115  A    
C116  O17   S    
N31   N32   A    
C16   H106  S    
C127  H60   S    
C28   H15   S    
C25   H6    S    
C19   H116  S    
N16   Ni8   S    
C44   N15   A    
C24   C78   A    
C53   C84   A    
C119  O19   S    
N14   N21   A    
C38   H38   S    
C59   C119  A    
C123  O24   S    
C68   C93   A    
C26   H10   S    
C29   H19   S    
C31   H27   S    
C69   C106  A    
C46   C90   A    
C9    H86   S    
C64   C123  A    
C92   O12   S    
C3    H68   S    
N10   Ni6   S    
C1    C73   A    
C115  O16   S    
C39   C83   A    
C101  O2    S    
C20   H121  S    
C25   O17   S    
C63   H63   S    
C2    H2    S    
C33   O26   S    
C105  O6    S    
C28   O20   S    
C71   C99   A    
C35   H35   S    
C72   C105  A    
C74   C78   A    
C17   O9    S    
C36   H36   S    
C55   H55   S    
C41   N12   A    
C33   H31   S    
C65   C92   A    
N29   Ni1   S    
N1    N8    A    
C126  H56   S    
N26   Ni8   S    
C30   H23   S    
C39   N10   A    
C63   N27   A    
C11   O4    S    
C72   C98   A    
C85   N29   A    
C22   H126  S    
C16   H108  S    
C94   O27   S    
C27   H14   S    
C60   C124  A    
N3    N29   A    
N13   Ni8   S    
C49   N20   A    
C43   N14   A    
N13   N22   A    
C55   N26   A    
C54   H54   S    
C80   C96   A    
N4    Ni3   S    
C56   C120  A    
C65   C102  A    
C11   H94   S    
C56   C110  A    
C31   H25   S    
C32   H30   S    
C117  O18   S    
C9    H88   S    
C3    H66   S    
C40   H40   S    
C114  O15   S    
C14   O6    S    
C102  O3    S    
C96   H96   S    
C66   C84   S    
C56   C77   S    
C51   N22   A    
C32   O25   S    
C106  O7    S    
C52   H52   S    
C62   C116  A    
C85   H85   S    
C94   C119  A    
N24   Ni5   S    
C55   C82   A    
C58   C79   S    
N10   N25   A    
C4    H69   S    
C2    N2    A    
N23   Ni3   S    
C48   C89   A    
C61   C113  A    
N31   Ni3   S    
N12   Ni2   S    
C69   C90   S    
C17   H111  S    
C19   H117  S    
C99   C123  A    
C63   C77   A    
C127  O12   S    
C107  H107  S    
C7    H80   S    
C21   H123  S    
C66   C91   A    
C27   H12   S    
N2    N30   A    
C43   C87   A    
N32   Ni1   S    
C42   N13   A    
C70   C95   A    
C14   H99   S    
C92   C121  A    
C12   H97   S    
C100  O32   S    
C23   H4    S    
C39   H39   S    
C29   O21   S    
C8    O32   S    
C2    C80   A    
C57   C121  A    
C48   N19   A    
C20   H120  S    
C4    O28   S    
C91   C120  A    
C61   C125  A    
C44   C88   A    
C11   H92   S    
C72   C82   S    
C17   H109  S    
