data_mof_unit_8198.cif
_audit_creation_date              2012-12-10T17:55:29-0500
_audit_creation_method            fapswitch 2.2
_symmetry_space_group_name_H-M    P1
_symmetry_Int_Tables_number       1
_space_group_crystal_system       triclinic
_cell_length_a                    10.830311
_cell_length_b                    9.519396
_cell_length_c                    10.974748
_cell_angle_alpha                 91.434498
_cell_angle_beta                  90.554207
_cell_angle_gamma                 89.980015
_cell_volume                      1131.06725268

loop_
_atom_site_label
_atom_site_type_symbol
_atom_type_description
_atom_site_fract_x
_atom_site_fract_y
_atom_site_fract_z
_atom_type_partial_charge
C1    C     C_R   0.262058 0.500003 0.499705 0.798529
C2    C     C_R   0.737924 0.499970 0.499603 0.763277
C3    C     C_R   0.504859 0.497791 0.266185 0.810543
C4    C     C_R   0.495368 0.502146 0.735060 0.786584
C5    C     C_2   0.476038 0.393611 0.934485 0.343258
C6    C     C_2   0.447638 0.411638 0.066241 0.346864
C7    C     C_2   0.474217 0.510387 0.867065 0.220978
C8    C     C_2   0.526887 0.488456 0.135905 0.254587
C9    C     C_R   0.063852 0.372697 0.501197 -0.196468
C10   C     C_R   0.936201 0.372629 0.499990 -0.201316
C11   C     C_R   0.871741 0.500121 0.498537 -0.009149
C12   C     C_R   0.128198 0.500179 0.499138 -0.005209
C13   C     C_R   0.936013 0.627753 0.496400 -0.201167
C14   C     C_R   0.063775 0.627768 0.496399 -0.186336
C15   C     C_R   0.422332 0.073210 0.423081 0.513578
C16   C     C_R   0.578064 0.077400 0.576670 0.556144
C17   C     C_R   0.425373 0.922825 0.421922 -0.158128
C18   C     C_R   0.574747 0.927063 0.577962 -0.181913
Cu1   Cu    Cu3+1 0.500000 0.640660 0.500000 0.939850
Cu2   Cu    Cu3+1 0.500000 0.359340 0.500000 1.047599
H1    H     H_    0.111830 0.273085 0.504098 0.154582
H2    H     H_    0.888314 0.272907 0.500496 0.155372
H3    H     H_    0.887888 0.727489 0.494793 0.144481
H4    H     H_    0.111785 0.727504 0.494533 0.145458
H5    H     H_    0.368633 0.862006 0.358655 0.155856
H6    H     H_    0.631357 0.869467 0.641052 0.142038
N1    N     N_R   0.500000 0.852070 0.500000 -0.194451
N2    N     N_R   0.500000 0.147940 0.500000 -0.241655
O1    O     O_R   0.319640 0.618740 0.499990 -0.592590
O2    O     O_R   0.680360 0.618740 0.500010 -0.600850
O3    O     O_R   0.319620 0.381170 0.499990 -0.550480
O4    O     O_R   0.680380 0.381170 0.500010 -0.559097
O5    O     O_R   0.500000 0.618750 0.321940 -0.590314
O6    O     O_R   0.500000 0.618750 0.678060 -0.590494
O7    O     O_R   0.499970 0.381180 0.321940 -0.536056
O8    O     O_R   0.500030 0.381180 0.678060 -0.497994
O9    O     O_3   0.499571 0.261933 0.880494 -0.566994
C19   C     C_3   0.552898 0.168214 0.963599 -0.272648
H7    H     H_    0.483544 0.132067 0.029836 0.187022
H8    H     H_    0.634386 0.215686 0.011581 0.153615
H9    H     H_    0.585680 0.074038 0.911938 0.175014
O10   O     O_3   0.347711 0.345168 0.120268 -0.575142
C20   C     C_3   0.248553 0.324790 0.037377 -0.302922
H10   H     H_    0.269157 0.238637 0.970490 0.186086
H11   H     H_    0.224601 0.423420 0.990063 0.162761
H12   H     H_    0.166010 0.293034 0.088945 0.175700
O11   O     O_3   0.432840 0.636085 0.921218 -0.608874
C21   C     C_3   0.517832 0.747148 0.906702 -0.205466
H13   H     H_    0.484446 0.817329 0.834150 0.172605
H14   H     H_    0.613870 0.711751 0.886703 0.159636
H15   H     H_    0.521613 0.810658 0.992817 0.178452
O12   O     O_3   0.629288 0.551043 0.082645 -0.616763
C22   C     C_3   0.731848 0.560176 0.162836 -0.362133
H16   H     H_    0.750589 0.458332 0.207257 0.143793
H17   H     H_    0.719021 0.646043 0.231944 0.190888
H18   H     H_    0.814669 0.586438 0.109290 0.192334
O13   O     O_3   0.349158 0.148244 0.342697 -0.505613
C23   C     C_3   0.232825 0.084855 0.321493 -0.320517
H19   H     H_    0.168064 0.166103 0.288567 0.196312
H20   H     H_    0.239329 0.002282 0.248539 0.156872
H21   H     H_    0.192577 0.041866 0.405871 0.119126
O14   O     O_3   0.652107 0.156979 0.656402 -0.506622
C24   C     C_3   0.767178 0.092948 0.679985 -0.369197
H22   H     H_    0.831912 0.174953 0.715224 0.197423
H23   H     H_    0.808747 0.045339 0.596162 0.131568
H24   H     H_    0.758237 0.014054 0.752225 0.147775

loop_
_geom_bond_atom_site_label_1
_geom_bond_atom_site_label_2
_ccdc_geom_bond_type
C16   N2    A    
C20   H10   S    
C4    O8    A    
C15   C17   A    
O9    C19   S    
C5    O9    S    
C11   C13   A    
C9    C10   A    
C8    O12   S    
C17   N1    A    
O11   C21   S    
C18   H6    S    
C3    O7    A    
C2    O2    A    
C17   H5    S    
C24   H23   S    
C23   H21   S    
C1    O1    A    
O13   C23   S    
C24   H24   S    
C20   H11   S    
C16   C18   A    
C13   C14   A    
C10   H2    S    
C19   H8    S    
C15   O13   S    
C9    H1    S    
C15   N2    A    
O14   C24   S    
C1    C12   S    
C16   O14   S    
C4    C7    S    
C5    C6    S    
C2    C11   S    
C21   H14   S    
C21   H13   S    
C9    C12   A    
C12   C14   A    
C22   H17   S    
Cu1   O5    S    
C19   H7    S    
Cu2   O3    S    
C20   H12   S    
C4    O6    A    
C10   C11   A    
C3    O5    A    
C23   H20   S    
C24   H22   S    
Cu1   O1    S    
C1    O3    A    
Cu1   N1    S    
O12   C22   S    
C13   H3    S    
C19   H9    S    
C2    O4    A    
C3    C8    S    
Cu2   O4    S    
C22   H18   S    
C14   H4    S    
C5    C7    D    
C6    C8    D    
Cu2   N2    S    
C23   H19   S    
C22   H16   S    
Cu1   O2    S    
C6    O10   S    
Cu2   O7    S    
C21   H15   S    
C18   N1    A    
Cu1   Cu2   S    
O10   C20   S    
C7    O11   S    
Cu1   O6    S    
Cu2   O8    S    
