data_mof_unit_30360.cif
_audit_creation_date              2012-12-11T17:02:13-0500
_audit_creation_method            fapswitch 2.2
_symmetry_space_group_name_H-M    P1
_symmetry_Int_Tables_number       1
_space_group_crystal_system       triclinic
_cell_length_a                    21.811377
_cell_length_b                    7.178636
_cell_length_c                    14.886191
_cell_angle_alpha                 88.25817
_cell_angle_beta                  107.027618
_cell_angle_gamma                 90.544263
_cell_volume                      2227.61461685

loop_
_atom_site_label
_atom_site_type_symbol
_atom_type_description
_atom_site_fract_x
_atom_site_fract_y
_atom_site_fract_z
_atom_type_partial_charge
O1    O     O_R   0.585850 0.505770 0.002130 -0.542527
O2    O     O_R   0.414150 0.005770 0.997870 -0.542024
O3    O     O_R   0.467530 0.173560 0.861970 -0.540610
O4    O     O_R   0.532470 0.673560 0.138030 -0.544976
C1    C     C_R   0.456669 0.347189 0.825544 0.678025
C2    C     C_R   0.541825 0.842308 0.175326 0.665464
O5    O     O_R   0.588690 0.175900 0.993250 -0.519300
O6    O     O_R   0.411310 0.675900 0.006750 -0.520214
O7    O     O_R   0.536170 0.007950 0.130090 -0.538168
O8    O     O_R   0.463830 0.507950 0.869910 -0.537551
C3    C     C_R   0.614899 0.345100 0.998939 0.710907
C4    C     C_R   0.385139 0.843842 0.001788 0.731518
O9    O     O_3   0.482630 0.339970 0.044740 -0.376100
O10   O     O_3   0.517370 0.839970 0.955260 -0.375966
V1    V     V_3+5 0.503220 0.064200 0.991700 1.437160
V2    V     V_3+5 0.496780 0.564200 0.008300 1.437076
C5    C     C_R   0.286841 0.022843 0.998431 -0.031413
C6    C     C_R   0.719670 0.514628 0.016000 -0.036332
C7    C     C_R   0.317854 0.852851 0.006988 -0.226562
C8    C     C_R   0.684390 0.352203 0.004500 -0.278883
C9    C     C_R   0.278226 0.695762 0.996206 0.448024
C10   C     C_R   0.721383 0.191517 0.012320 0.460176
C11   C     C_R   0.218612 0.704863 0.015637 0.083609
C12   C     C_R   0.780524 0.202664 0.989456 0.242886
C13   C     C_R   0.185208 0.878330 0.003544 -0.182007
C14   C     C_R   0.817835 0.368183 0.010098 -0.297669
C15   C     C_R   0.221522 0.037788 0.993829 0.014785
C16   C     C_R   0.786210 0.517497 0.034310 -0.077814
C17   C     C_3   0.211486 0.173930 0.911873 0.294662
C18   C     C_3   0.784415 0.709229 0.996215 0.401417
C19   C     C_3   0.280894 0.148940 0.916378 -0.364554
C20   C     C_3   0.711452 0.684223 0.956097 -0.284588
H1    H     H_    0.203769 0.317698 0.928208 0.123419
H2    H     H_    0.809050 0.727940 0.941078 0.051552
H3    H     H_    0.313911 0.266355 0.938865 0.220486
H4    H     H_    0.697506 0.649056 0.880416 0.088929
H5    H     H_    0.288100 0.078128 0.854803 0.146060
H6    H     H_    0.675280 0.771515 0.971174 0.237007
C21   C     C_R   0.919741 0.899855 0.723768 -0.028123
C22   C     C_R   0.073579 0.366358 0.276313 -0.038944
C23   C     C_R   0.564339 0.840367 0.279243 -0.039166
C24   C     C_R   0.431151 0.367870 0.723217 -0.039683
C25   C     C_R   0.918392 0.021922 0.570099 -0.162352
C26   C     C_R   0.075381 0.186750 0.416949 -0.164409
C27   C     C_R   0.952150 0.965521 0.661067 -0.176920
C28   C     C_R   0.042195 0.255698 0.327904 -0.168481
C29   C     C_R   0.853022 0.873409 0.691772 -0.218326
C30   C     C_R   0.137853 0.415742 0.316118 -0.209820
C31   C     C_R   0.817657 0.921031 0.597526 0.082327
C32   C     C_R   0.173139 0.345974 0.406538 0.081933
C33   C     C_R   0.851494 0.006342 0.538992 0.145499
C34   C     C_R   0.140780 0.226058 0.455331 0.134235
C35   C     C_R   0.750308 0.887130 0.559127 0.057698
C36   C     C_R   0.239676 0.385553 0.448668 0.054660
C37   C     C_R   0.717631 0.951692 0.465314 0.059632
C38   C     C_R   0.272359 0.304304 0.538922 0.049661
C39   C     C_R   0.752561 0.057457 0.415433 -0.199686
C40   C     C_R   0.238637 0.177555 0.581414 -0.182666
C41   C     C_R   0.818446 0.077853 0.450229 -0.206751
C42   C     C_R   0.174258 0.140299 0.540445 -0.193453
C43   C     C_R   0.715512 0.781225 0.609125 -0.187029
C44   C     C_R   0.274535 0.504226 0.403931 -0.183684
C45   C     C_R   0.652768 0.725957 0.566374 -0.201417
C46   C     C_R   0.338402 0.546562 0.446667 -0.200220
C47   C     C_R   0.622338 0.773793 0.472457 0.143872
C48   C     C_R   0.369696 0.477304 0.536631 0.140828
C49   C     C_R   0.652717 0.895589 0.421899 0.078362
C50   C     C_R   0.337504 0.354172 0.584152 0.085365
C51   C     C_R   0.563146 0.691810 0.427040 -0.171157
C52   C     C_R   0.432308 0.537380 0.581077 -0.168486
C53   C     C_R   0.535882 0.718564 0.330508 -0.161673
C54   C     C_R   0.462266 0.486054 0.674308 -0.164002
C55   C     C_R   0.619024 0.940767 0.326767 -0.225294
C56   C     C_R   0.370615 0.296034 0.677550 -0.223256
H7    H     H_    0.843838 0.150571 0.406991 0.120334
H8    H     H_    0.150709 0.040296 0.575219 0.132514
H9    H     H_    0.636738 0.041601 0.285758 0.110987
H10   H     H_    0.348741 0.208997 0.719794 0.103318
H11   H     H_    0.492983 0.641758 0.295398 0.117819
H12   H     H_    0.508948 0.543640 0.709446 0.109922
H13   H     H_    0.629024 0.636438 0.605876 0.121058
H14   H     H_    0.362926 0.640184 0.410066 0.125083
H15   H     H_    0.944627 0.081084 0.524431 0.110825
H16   H     H_    0.050462 0.096394 0.454386 0.107822
H17   H     H_    0.003489 0.979513 0.683313 0.108591
H18   H     H_    0.992717 0.215226 0.297095 0.106215
H19   H     H_    0.829775 0.826381 0.743138 0.096377
H20   H     H_    0.159720 0.497396 0.271912 0.095729
H21   H     H_    0.730921 0.120259 0.347067 0.112369
H22   H     H_    0.260737 0.102303 0.646358 0.130554
H23   H     H_    0.736687 0.729228 0.680046 0.122483
H24   H     H_    0.253773 0.569637 0.335905 0.125382
H25   H     H_    0.540266 0.596101 0.464906 0.112887
H26   H     H_    0.456795 0.632512 0.545257 0.112510
O11   O     O_R   0.036080 0.231270 0.130120 -0.530448
O12   O     O_R   0.963920 0.731270 0.869880 -0.534700
O13   O     O_R   0.911300 0.558970 0.006750 -0.563871
O14   O     O_R   0.088700 0.058970 0.993250 -0.547958
C57   C     C_R   0.884984 0.387993 0.002195 0.699601
C58   C     C_R   0.115523 0.890362 0.999833 0.718524
O15   O     O_R   0.032450 0.561140 0.138040 -0.543672
O16   O     O_R   0.967550 0.061140 0.861960 -0.544644
O17   O     O_R   0.085870 0.728910 0.002130 -0.541804
O18   O     O_R   0.914130 0.228910 0.997870 -0.535953
C59   C     C_R   0.044614 0.389630 0.174710 0.693088
C60   C     C_R   0.953041 0.895424 0.825212 0.674775
O19   O     O_3   0.017320 0.394650 0.955270 -0.383558
O20   O     O_3   0.982680 0.894650 0.044730 -0.393145
V3    V     V_3+5 0.996780 0.670490 0.008300 1.350967
V4    V     V_3+5 0.003220 0.170490 0.991700 1.376965
O21   O     O_3   0.285463 0.567059 0.933413 -0.568225
C61   C     C_3   0.248289 0.624688 0.841274 0.063697
H27   H     H_    0.249094 0.778171 0.828742 0.142302
H28   H     H_    0.197478 0.581770 0.828975 0.133503
C62   C     C_3   0.274222 0.537857 0.768077 -0.734041
H29   H     H_    0.266292 0.385396 0.767222 0.226930
H30   H     H_    0.248885 0.596967 0.697218 0.191359
H31   H     H_    0.326205 0.568381 0.783654 0.232206
O22   O     O_3   0.701479 0.028056 0.044804 -0.537965
C63   C     C_3   0.709536 0.035319 0.142554 0.179283
H32   H     H_    0.671535 0.122347 0.155889 0.083198
H33   H     H_    0.756669 0.095588 0.181191 0.102683
C64   C     C_3   0.704337 0.838127 0.181621 -0.678549
H34   H     H_    0.741644 0.744548 0.172421 0.250157
H35   H     H_    0.711448 0.838881 0.258053 0.161868
H36   H     H_    0.656973 0.777299 0.145668 0.211831
N1    N     N_3   0.194567 0.536201 0.046787 -0.673676
H37   H     H_    0.184283 0.560257 0.109763 0.228987
H38   H     H_    0.153187 0.493270 0.996344 0.242502
N2    N     N_3   0.788656 0.081547 0.919113 -0.655783
H39   H     H_    0.784809 0.161266 0.857738 0.203271
H40   H     H_    0.834143 0.022581 0.940167 0.251752
O23   O     O_3   0.169956 0.107679 0.827092 -0.565432
C65   C     C_3   0.109133 0.194597 0.805754 0.126314
H41   H     H_    0.104427 0.304257 0.854703 0.106290
H42   H     H_    0.073570 0.086249 0.809145 0.135612
C66   C     C_3   0.091793 0.282156 0.707207 -0.754327
H43   H     H_    0.086758 0.172589 0.654778 0.213136
H44   H     H_    0.045411 0.357134 0.692084 0.190012
H45   H     H_    0.129534 0.382267 0.700954 0.229582
O24   O     O_3   0.801518 0.838409 0.070085 -0.528853
C67   C     C_3   0.862752 0.804191 0.134197 0.125397
H46   H     H_    0.898874 0.813177 0.097143 0.181289
H47   H     H_    0.865387 0.665922 0.170855 0.103370
C68   C     C_3   0.879083 0.950588 0.209276 -0.762160
H48   H     H_    0.848304 0.932664 0.256493 0.212473
H49   H     H_    0.929727 0.932876 0.252549 0.180592
H50   H     H_    0.872926 0.092825 0.176498 0.217491

loop_
_geom_bond_atom_site_label_1
_geom_bond_atom_site_label_2
_ccdc_geom_bond_type
C21   C60   S    
C17   O23   S    
C1    C24   S    
C45   C47   A    
C21   C27   A    
O14   V4    S    
C15   C17   S    
C25   H15   S    
C50   C56   A    
C48   C50   A    
O21   C61   S    
O1    C3    A    
O2    C4    A    
C68   H50   S    
C65   C66   S    
C53   H11   S    
C68   H48   S    
C64   H34   S    
C29   C31   A    
O5    C3    A    
C66   H44   S    
C32   C36   A    
C18   O24   S    
C39   H21   S    
C45   H13   S    
C20   H4    S    
C21   C29   A    
C52   H26   S    
C12   C14   A    
C30   C32   A    
C51   H25   S    
C31   C35   A    
C39   C41   A    
C47   C49   A    
O15   V3    S    
C62   H29   S    
C17   H1    S    
O20   V3    S    
C43   C45   A    
C51   C53   A    
C44   C46   A    
C34   C42   A    
C68   H49   S    
C35   C43   A    
C63   H33   S    
C31   C33   A    
C2    C23   S    
C44   H24   S    
C32   C34   A    
C30   H20   S    
C49   C55   A    
C20   H6    S    
C38   C40   A    
C18   C20   S    
O11   C59   A    
C6    C8    A    
C63   C64   S    
C14   C57   S    
C23   C53   A    
C26   C34   A    
O5    V1    S    
C57   O18   A    
O6    V2    S    
O19   V3    S    
C67   C68   S    
C2    O7    A    
C61   H28   S    
C61   H27   S    
C9    O21   S    
C26   C28   A    
C35   C37   A    
O15   C59   A    
C10   O22   S    
C66   H45   S    
C36   C38   A    
C3    C8    S    
C24   C56   A    
C18   H2    S    
C5    C15   A    
C6    C16   A    
O4    C2    A    
O13   C57   A    
C64   H36   S    
C65   H42   S    
C36   C44   A    
C62   H30   S    
C38   C50   A    
C42   H8    S    
C58   O17   A    
C19   H5    S    
C46   C48   A    
O4    V2    S    
N2    H40   S    
N1    H38   S    
O13   V3    S    
C13   C58   S    
O6    C4    A    
C62   H31   S    
C24   C54   A    
O1    V2    S    
O2    V1    S    
C25   C27   A    
C46   H14   S    
C40   H22   S    
C8    C10   A    
O14   C58   A    
C37   C39   A    
O23   C65   S    
C5    C19   S    
O19   V4    S    
C19   H3    S    
O16   V4    S    
C6    C20   S    
C22   C28   A    
N1    H37   S    
C41   H7    S    
C67   H47   S    
O3    V1    S    
C63   H32   S    
C11   N1    S    
O12   V3    S    
C22   C30   A    
O12   C60   A    
C7    C9    A    
O10   V1    S    
O3    C1    A    
O11   V4    S    
C37   C49   A    
O22   C63   S    
C65   H41   S    
C13   C15   A    
C66   H43   S    
C14   C16   A    
C26   H16   S    
C27   H17   S    
O17   V3    S    
C9    C11   A    
N2    H39   S    
O7    V1    S    
C1    O8    A    
C17   C19   S    
O8    V2    S    
O24   C67   S    
O18   V4    S    
C25   C33   A    
C48   C52   A    
C47   C51   A    
C4    C7    S    
C16   C18   S    
C5    C7    A    
O20   V4    S    
O16   C60   A    
C10   C12   A    
C11   C13   A    
C64   H35   S    
C23   C55   A    
C12   N2    S    
C33   C41   A    
C54   H12   S    
C56   H10   S    
O9    V2    S    
C55   H9    S    
C67   H46   S    
C52   C54   A    
C40   C42   A    
C61   C62   S    
C43   H23   S    
C29   H19   S    
C22   C59   S    
C28   H18   S    
