data_mof_unit_48336.cif
_audit_creation_date              2012-12-10T19:45:44-0500
_audit_creation_method            fapswitch 2.2
_symmetry_space_group_name_H-M    P1
_symmetry_Int_Tables_number       1
_space_group_crystal_system       triclinic
_cell_length_a                    10.771136
_cell_length_b                    14.790758
_cell_length_c                    14.549802
_cell_angle_alpha                 64.902208
_cell_angle_beta                  104.978424
_cell_angle_gamma                 102.233601
_cell_volume                      2013.89911473

loop_
_atom_site_label
_atom_site_type_symbol
_atom_type_description
_atom_site_fract_x
_atom_site_fract_y
_atom_site_fract_z
_atom_type_partial_charge
C1    C     C_R   0.471644 0.119052 0.311273 0.788658
C2    C     C_R   0.659541 0.768337 0.979301 -0.238675
C3    C     C_R   0.341558 0.159266 0.127938 0.157585
C4    C     C_R   0.635887 0.841318 0.878548 0.153620
C5    C     C_R   0.506734 0.282957 0.171203 -0.312137
C6    C     C_R   0.487750 0.714641 0.826658 -0.315528
C7    C     C_R   0.467467 0.358830 0.074313 0.090890
C8    C     C_R   0.520507 0.638982 0.925305 0.091594
C9    C     C_R   0.374482 0.330013 0.000209 0.125413
C10   C     C_R   0.606611 0.668150 0.002141 0.134307
C11   C     C_R   0.514819 0.462461 0.050126 0.078107
C12   C     C_R   0.525593 0.880742 0.689146 0.794227
C13   C     C_R   0.473024 0.535219 0.949211 0.075119
C14   C     C_R   0.386239 0.501461 0.875680 -0.222774
C15   C     C_R   0.598414 0.496134 0.124780 -0.225060
C16   C     C_R   0.263273 0.998974 0.502536 0.779014
C17   C     C_R   0.736789 0.001237 0.497211 0.782798
C18   C     C_R   0.337478 0.401076 0.901261 -0.218976
C19   C     C_R   0.642623 0.596852 0.101081 -0.225703
C20   C     C_R   0.761634 0.309581 0.617502 0.160496
C21   C     C_R   0.239767 0.691261 0.380619 0.156610
C22   C     C_R   0.705971 0.215936 0.614322 -0.046701
C23   C     C_R   0.870490 0.002382 0.495037 -0.081323
C24   C     C_R   0.294072 0.784006 0.385607 -0.071319
C25   C     C_R   0.506382 0.280440 0.517690 0.391898
C26   C     C_R   0.493869 0.719745 0.481828 0.390782
C27   C     C_R   0.550672 0.372547 0.532439 -0.108679
C28   C     C_R   0.450017 0.627980 0.466176 -0.118505
C29   C     C_R   0.684577 0.389660 0.571361 0.051228
C30   C     C_R   0.316398 0.611009 0.426634 0.088118
C31   C     C_R   0.471044 0.450985 0.503331 0.119405
C32   C     C_R   0.529510 0.549503 0.495497 0.113774
C33   C     C_R   0.665285 0.566930 0.513232 -0.234075
C34   C     C_R   0.129830 0.998170 0.504638 -0.078968
C35   C     C_R   0.335147 0.433503 0.486428 -0.248043
C36   C     C_R   0.740460 0.487947 0.558190 -0.186602
C37   C     C_R   0.259898 0.512528 0.441893 -0.198607
C38   C     C_R   0.360127 0.010388 0.807734 -0.133479
C39   C     C_R   0.651616 0.002351 0.183720 -0.140098
C40   C     C_R   0.271622 0.985807 0.730265 -0.087449
C41   C     C_R   0.735262 0.021973 0.265954 -0.095907
C42   C     C_R   0.191020 0.056269 0.653920 0.126048
C43   C     C_R   0.810353 0.948125 0.343274 0.125224
C44   C     C_R   0.199154 0.150925 0.657332 -0.196725
C45   C     C_R   0.905063 0.970990 0.426976 -0.003540
C46   C     C_R   0.800653 0.854614 0.336867 -0.182801
C47   C     C_R   0.288099 0.175345 0.734685 -0.138900
C48   C     C_R   0.715432 0.834766 0.255280 -0.137767
C49   C     C_R   0.368600 0.105149 0.809794 -0.123333
C50   C     C_R   0.641187 0.908674 0.178611 -0.134901
C51   C     C_R   0.965464 0.033276 0.565370 -0.237804
C52   C     C_R   0.035083 0.968369 0.433512 -0.236949
C53   C     C_3   0.613516 0.656700 0.662449 -0.638951
C54   C     C_3   0.384830 0.342805 0.337605 -0.644114
C55   C     C_3   0.957749 0.243375 0.744171 -0.722949
C56   C     C_R   0.095462 0.030173 0.572346 -0.001969
C57   C     C_3   0.084693 0.673661 0.234101 -0.703971
C58   C     C_3   0.715605 0.943056 0.858062 -0.402944
C59   C     C_3   0.828736 0.950875 0.808980 -0.821681
C60   C     C_3   0.252291 0.061428 0.155487 -0.390072
C61   C     C_3   0.299611 0.982834 0.134928 -0.823119
C62   C     C_R   0.441275 0.185571 0.200935 -0.103339
C63   C     C_R   0.548791 0.813557 0.800339 -0.094571
C64   C     C_R   0.315134 0.230829 0.026582 -0.236483
Cu1   Cu    Cu3+1 0.466270 0.918260 0.475690 0.947252
Cu2   Cu    Cu3+1 0.533730 0.081740 0.524310 0.946504
H1    H     H_    0.437101 0.124000 0.869851 0.122746
H2    H     H_    0.763516 0.154351 0.645688 0.164139
H3    H     H_    0.715986 0.641446 0.493564 0.143559
H4    H     H_    0.284497 0.358963 0.506777 0.146779
H5    H     H_    0.421847 0.955838 0.866391 0.121449
H6    H     H_    0.594845 0.059852 0.123910 0.136326
H7    H     H_    0.265528 0.911892 0.729950 0.095975
H8    H     H_    0.742990 0.095102 0.268571 0.099671
H9    H     H_    0.137253 0.205954 0.599612 0.121210
H10   H     H_    0.859027 0.797267 0.395040 0.113210
H11   H     H_    0.294377 0.248615 0.736503 0.131326
H12   H     H_    0.575973 0.893532 0.115047 0.125139
H13   H     H_    0.707734 0.762392 0.251061 0.126481
H14   H     H_    0.938129 0.057130 0.617540 0.147003
H15   H     H_    0.062883 0.946728 0.379750 0.139494
H16   H     H_    0.268140 0.379217 0.843328 0.137635
H17   H     H_    0.707391 0.618917 0.160710 0.136601
H18   H     H_    0.418077 0.698142 0.766471 0.162222
H19   H     H_    0.585812 0.298106 0.227350 0.159675
H20   H     H_    0.692583 0.761118 0.531046 0.245366
H21   H     H_    0.653197 0.697522 0.714351 0.235822
H22   H     H_    0.679927 0.600763 0.681323 0.219283
H23   H     H_    0.241230 0.210699 0.969571 0.137071
H24   H     H_    0.516486 0.616996 0.677577 0.220437
H25   H     H_    0.307456 0.238665 0.469808 0.246493
H26   H     H_    0.345291 0.301733 0.285951 0.234031
H27   H     H_    0.481359 0.383097 0.321945 0.221685
H28   H     H_    0.317763 0.398216 0.318978 0.215603
H29   H     H_    0.952004 0.371893 0.606713 0.245697
H30   H     H_    0.050201 0.273088 0.782577 0.226986
H31   H     H_    0.980080 0.192883 0.713461 0.213774
H32   H     H_    0.895224 0.200974 0.802639 0.239137
H33   H     H_    0.050994 0.726398 0.335361 0.243509
H34   H     H_    0.726500 0.788442 0.039445 0.130907
H35   H     H_    0.979264 0.657626 0.207200 0.223450
H36   H     H_    0.133871 0.613046 0.237766 0.240751
H37   H     H_    0.120892 0.746690 0.177261 0.221222
H38   H     H_    0.793470 0.944509 0.733102 0.248193
H39   H     H_    0.888929 0.024029 0.797866 0.226937
H40   H     H_    0.890429 0.890102 0.860301 0.252599
H41   H     H_    0.655889 0.005555 0.810656 0.220533
H42   H     H_    0.756627 0.953843 0.931645 0.189697
H43   H     H_    0.317228 0.013781 0.054623 0.244141
H44   H     H_    0.389717 0.957373 0.190252 0.276286
H45   H     H_    0.351134 0.550502 0.797569 0.138967
H46   H     H_    0.225011 0.916719 0.145077 0.230467
H47   H     H_    0.238841 0.031694 0.236630 0.198666
H48   H     H_    0.153759 0.075110 0.108041 0.191535
H49   H     H_    0.631144 0.446977 0.203388 0.139041
H50   H     H_    0.844007 0.505719 0.578370 0.156985
H51   H     H_    0.155888 0.495126 0.423928 0.175543
H52   H     H_    0.235264 0.845150 0.353273 0.145485
N1    N     N_R   0.584450 0.204570 0.560790 -0.207818
N2    N     N_R   0.415550 0.795430 0.439210 -0.198773
N3    N     N_2   0.606739 0.727781 0.556044 -0.393607
N4    N     N_2   0.392905 0.271923 0.444152 -0.392335
N5    N     N_2   0.895519 0.326266 0.660594 -0.429099
N6    N     N_2   0.106816 0.678025 0.334645 -0.444060
O1    O     O_R   0.455540 0.022090 0.338120 -0.571727
O2    O     O_R   0.544460 0.977910 0.661880 -0.576434
O3    O     O_R   0.512510 0.160150 0.379180 -0.548558
O4    O     O_R   0.487490 0.839850 0.620820 -0.548916
O5    O     O_R   0.291160 0.930970 0.479480 -0.598348
O6    O     O_R   0.708840 0.069030 0.520520 -0.595736
O7    O     O_R   0.348130 0.069020 0.520540 -0.562992
O8    O     O_R   0.651870 0.930980 0.479460 -0.561716

loop_
_geom_bond_atom_site_label_1
_geom_bond_atom_site_label_2
_ccdc_geom_bond_type
C34   C56   A    
C8    C13   A    
C23   C45   A    
C27   C29   A    
C9    C64   A    
C14   C18   A    
C60   H48   S    
C61   H43   S    
C1    C62   S    
C46   H10   S    
C47   C49   A    
C38   C49   A    
C3    C64   A    
C40   H7    S    
C15   C19   A    
C57   H36   S    
C4    C63   A    
C59   H39   S    
C59   H38   S    
C48   H13   S    
C35   C37   A    
C1    O1    A    
C51   C56   A    
C12   O2    A    
C50   H12   S    
C33   C36   A    
Cu2   O3    S    
C58   H41   S    
C16   O7    A    
C51   H14   S    
C54   H27   S    
C42   C56   S    
C41   H8    S    
C11   C15   A    
C35   H4    S    
C20   N5    S    
H25   N4    S    
C39   H6    S    
C26   N3    S    
C25   N4    S    
C58   H42   S    
C44   C47   A    
C33   H3    S    
C5    H19   S    
C3    C60   S    
C40   C42   A    
C54   N4    S    
C2    H34   S    
C13   C14   A    
C17   O8    A    
C41   C43   A    
C60   H47   S    
C22   N1    A    
C42   C44   A    
C64   H23   S    
C19   H17   S    
C61   H44   S    
C25   N1    A    
C55   N5    S    
C20   C29   A    
C14   H45   S    
C57   H37   S    
C46   C48   A    
C24   N2    A    
C59   H40   S    
C6    H18   S    
C27   C31   A    
Cu1   O4    S    
C28   C32   A    
C39   C41   A    
C5    C7    A    
C12   C63   S    
C6    C8    A    
C45   C52   A    
C58   C59   S    
Cu2   O2    S    
C30   C37   A    
C60   C61   S    
Cu1   O1    S    
C6    C63   A    
C44   H9    S    
C7    C11   A    
C54   H26   S    
C23   C51   A    
C31   C32   A    
C29   C36   A    
C10   C19   A    
C16   C34   S    
C55   H31   S    
H20   N3    S    
C53   H21   S    
C17   C23   S    
C16   O5    A    
C43   C45   S    
C22   H2    S    
C20   C22   A    
Cu2   N1    S    
C31   C35   A    
C47   H11   S    
C36   H50   S    
Cu1   O8    S    
Cu2   O7    S    
C3    C62   A    
H29   N5    S    
C7    C9    A    
C38   H5    S    
C49   H1    S    
C17   O6    A    
C26   C28   A    
C1    O3    A    
C26   N2    A    
C55   H30   S    
Cu1   O5    S    
C12   O4    A    
C25   C27   A    
C57   H35   S    
C21   C30   A    
C34   C52   A    
C32   C33   A    
C21   N6    S    
C28   C30   A    
C53   N3    S    
C57   N6    S    
C38   C40   A    
C11   C13   A    
C2    C4    A    
C55   H32   S    
C48   C50   A    
C24   H52   S    
C18   H16   S    
Cu1   N2    S    
C5    C62   A    
C53   H22   S    
C15   H49   S    
C52   H15   S    
C43   C46   A    
C54   H28   S    
C9    C18   A    
C39   C50   A    
C37   H51   S    
C8    C10   A    
Cu1   Cu2   S    
C21   C24   A    
C4    C58   S    
C53   H24   S    
C61   H46   S    
H33   N6    S    
Cu2   O6    S    
C2    C10   A    
