data_mof_unit_21640.cif
_audit_creation_date              2012-12-10T21:00:36-0500
_audit_creation_method            fapswitch 2.2
_symmetry_space_group_name_H-M    P1
_symmetry_Int_Tables_number       1
_space_group_crystal_system       triclinic
_cell_length_a                    18.141718
_cell_length_b                    18.166108
_cell_length_c                    18.316817
_cell_angle_alpha                 120.034112
_cell_angle_beta                  89.848983
_cell_angle_gamma                 119.932006
_cell_volume                      4276.26534103

loop_
_atom_site_label
_atom_site_type_symbol
_atom_type_description
_atom_site_fract_x
_atom_site_fract_y
_atom_site_fract_z
_atom_type_partial_charge
C1    C     C_R   0.110452 0.220057 0.609863 0.778794
C2    C     C_3   0.449966 0.897470 0.947594 0.030810
C3    C     C_3   0.166562 0.891512 0.774433 -0.812243
C4    C     C_3   0.834142 0.143848 0.165867 0.065226
C5    C     C_3   0.833532 0.108812 0.226023 -0.815958
C6    C     C_2   0.171681 0.785317 0.077540 0.357764
C7    C     C_2   0.823939 0.215994 0.924707 0.369978
C8    C     C_3   0.483724 0.032132 0.078034 -0.144317
C9    C     C_3   0.516244 0.967872 0.922006 -0.142509
C10   C     C_3   0.413132 0.431713 0.447845 -0.134409
C11   C     C_3   0.586782 0.567943 0.552097 -0.126896
C12   C     C_3   0.481372 0.404168 0.446789 -0.170009
C13   C     C_3   0.518547 0.595487 0.553141 -0.161004
C14   C     C_3   0.550991 0.500125 0.449557 0.051113
C15   C     C_3   0.448938 0.499557 0.550388 0.048165
C16   C     C_3   0.483693 0.527722 0.449801 -0.177140
C17   C     C_R   0.888910 0.779977 0.390167 0.802363
C18   C     C_3   0.516215 0.471930 0.550135 -0.182665
C19   C     C_R   0.157319 0.167154 0.825147 -0.240990
C20   C     C_R   0.837802 0.827859 0.173431 -0.241085
C21   C     C_R   0.392745 0.781157 0.888359 0.780659
C22   C     C_R   0.607251 0.218843 0.111652 0.778283
C23   C     C_R   0.129985 0.119759 0.733234 -0.195721
C24   C     C_R   0.864891 0.876591 0.265632 -0.200149
C25   C     C_R   0.051056 0.098758 0.690700 0.058163
C26   C     C_R   0.945334 0.901437 0.309526 0.053883
C27   C     C_R   0.999017 0.125753 0.740987 0.489950
C28   C     C_3   0.981385 0.428347 0.413442 -0.234319
C29   C     C_R   0.000405 0.880045 0.260754 0.476383
C30   C     C_R   0.025747 0.170795 0.833251 -0.220569
C31   C     C_R   0.971610 0.828632 0.167654 -0.220743
C32   C     C_R   0.105575 0.193062 0.875849 0.029332
C33   C     C_R   0.890409 0.802646 0.123622 0.029414
C34   C     C_R   0.970933 0.943712 0.537294 -0.226775
C35   C     C_R   0.025137 0.056436 0.462910 -0.258558
C36   C     C_R   0.944297 0.892348 0.444658 -0.051292
C37   C     C_R   0.052772 0.107766 0.555489 -0.052136
C38   C     C_R   0.971263 0.949417 0.406782 0.060415
C39   C     C_3   0.018653 0.571631 0.586489 -0.234866
C40   C     C_R   0.024749 0.050750 0.593428 0.053626
C41   C     C_R   0.650708 0.642108 0.819867 -0.111525
C42   C     C_R   0.348975 0.355616 0.178537 -0.110744
C43   C     C_R   0.604627 0.580734 0.850653 -0.130946
C44   C     C_R   0.394898 0.417334 0.148009 -0.127884
C45   C     C_R   0.110261 0.500200 0.889119 0.784582
C46   C     C_R   0.889590 0.499642 0.110742 0.801475
C47   C     C_R   0.595191 0.625663 0.935318 0.145274
C48   C     C_R   0.404581 0.372866 0.063417 0.146612
C49   C     C_R   0.632952 0.732545 0.989083 -0.168983
C50   C     C_3   0.412711 0.964033 0.985163 -0.119777
C51   C     C_R   0.367078 0.266053 0.009397 -0.168798
C52   C     C_R   0.679062 0.793639 0.958092 -0.137208
C53   C     C_R   0.321149 0.204617 0.040139 -0.138905
C54   C     C_R   0.687815 0.748433 0.873505 -0.079472
C55   C     C_R   0.312235 0.249389 0.124694 -0.083747
C56   C     C_R   0.593550 0.559713 0.023384 -0.266294
C57   C     C_R   0.406282 0.439175 0.975663 -0.265359
C58   C     C_R   0.550171 0.499426 0.055684 -0.039932
C59   C     C_R   0.449707 0.499817 0.943669 -0.042021
C60   C     C_R   0.455335 0.438347 0.031821 -0.015354
C61   C     C_3   0.587251 0.035964 0.014875 -0.118915
C62   C     C_R   0.544502 0.560589 0.967270 -0.015121
C63   C     C_R   0.124008 0.795208 0.956390 -0.220589
C64   C     C_R   0.873636 0.204553 0.043847 -0.211530
C65   C     C_R   0.109965 0.735919 0.989743 0.006871
C66   C     C_R   0.887608 0.264102 0.010789 -0.001230
C67   C     C_R   0.036966 0.629573 0.938330 0.077487
C68   C     C_R   0.962224 0.369614 0.061031 0.070925
C69   C     C_R   0.392254 0.499902 0.607662 0.792150
C70   C     C_R   0.607732 0.499993 0.392329 0.791930
C71   C     C_R   0.979166 0.585696 0.856333 -0.165781
C72   C     C_3   0.479754 0.035868 0.960281 -0.188525
C73   C     C_R   0.021378 0.412508 0.141774 -0.162770
C74   C     C_R   0.993930 0.645503 0.824256 -0.137792
C75   C     C_R   0.006437 0.352599 0.173791 -0.137504
C76   C     C_R   0.067464 0.749635 0.872491 0.540910
C77   C     C_R   0.931597 0.249247 0.126617 0.541837
C78   C     C_R   0.966054 0.559857 0.022801 -0.243255
C79   C     C_R   0.033493 0.439632 0.976792 -0.271890
C80   C     C_R   0.946062 0.498302 0.054269 -0.067643
C81   C     C_R   0.053491 0.501198 0.945314 -0.067267
C82   C     C_R   0.980077 0.437070 0.030741 -0.014877
C83   C     C_3   0.520211 0.964132 0.039758 -0.188187
C84   C     C_R   0.019344 0.562291 0.968739 -0.021137
C85   C     C_R   0.393932 0.499468 0.888124 0.800805
C86   C     C_R   0.606041 0.500358 0.111719 0.796149
C87   C     C_R   0.109401 0.500634 0.607828 0.845561
C88   C     C_R   0.890604 0.499362 0.392164 0.847487
C89   C     C_3   0.075991 0.523869 0.480971 0.063390
C90   C     C_3   0.924045 0.476103 0.518972 0.063495
C91   C     C_3   0.042462 0.594444 0.515320 -0.269230
C92   C     C_3   0.957575 0.405526 0.484613 -0.272013
C93   C     C_3   0.947652 0.498647 0.448815 0.030959
C94   C     C_3   0.550006 0.102530 0.052441 0.032129
C95   C     C_3   0.052380 0.501335 0.551135 0.031325
C96   C     C_2   0.135576 0.242742 0.972974 0.392641
C97   C     C_2   0.859463 0.748879 0.025857 0.388071
C98   C     C_3   0.925310 0.192719 0.728306 0.115145
C99   C     C_3   0.842357 0.165378 0.672525 -0.824834
C100  C     C_3   0.153194 0.987698 0.308804 0.079209
C101  C     C_3   0.239353 0.019895 0.363986 -0.761392
C102  C     C_2   0.160505 0.551457 0.457087 0.365961
C103  C     C_2   0.839517 0.448447 0.542837 0.366053
C104  C     C_3   0.165195 0.855218 0.833707 0.065503
H1    H     H_    0.077052 0.671843 0.527161 0.140787
H2    H     H_    0.045685 0.099575 0.433399 0.166646
H3    H     H_    0.723352 0.795777 0.849530 0.138268
H4    H     H_    0.276840 0.201781 0.148475 0.130616
H5    H     H_    0.657519 0.607261 0.754396 0.129740
H6    H     H_    0.342043 0.390133 0.243984 0.128642
H7    H     H_    0.575696 0.498351 0.808485 0.114107
H8    H     H_    0.423601 0.499652 0.190360 0.114481
H9    H     H_    0.626037 0.768127 0.054468 0.120986
H10   H     H_    0.374109 0.230800 0.944029 0.120892
H11   H     H_    0.707813 0.875927 0.999544 0.131709
H12   H     H_    0.922992 0.328137 0.472794 0.138604
H13   H     H_    0.292654 0.122401 0.998513 0.130719
H14   H     H_    0.666289 0.605830 0.040800 0.170080
H15   H     H_    0.333503 0.392763 0.958012 0.171819
H16   H     H_    0.178186 0.877131 0.996127 0.158850
H17   H     H_    0.818220 0.123174 0.004836 0.160128
H18   H     H_    0.922541 0.504694 0.817044 0.132492
H19   H     H_    0.079168 0.492867 0.180192 0.138856
H20   H     H_    0.948191 0.610453 0.761137 0.129873
H21   H     H_    0.053104 0.386953 0.236042 0.131189
H22   H     H_    0.939979 0.606613 0.040058 0.193660
H23   H     H_    0.218818 0.183224 0.856645 0.132374
H24   H     H_    0.059616 0.392926 0.959585 0.187469
H25   H     H_    0.965897 0.369697 0.342154 0.171420
H26   H     H_    0.034280 0.630438 0.657745 0.172054
H27   H     H_    0.463322 0.066319 0.928154 0.134839
H28   H     H_    0.536646 0.933686 0.071888 0.134659
H29   H     H_    0.340365 0.933531 0.972747 0.135689
H30   H     H_    0.659591 0.066468 0.027325 0.134863
H31   H     H_    0.470636 0.059491 0.142668 0.152471
H32   H     H_    0.529337 0.940520 0.857375 0.155612
H33   H     H_    0.467146 0.325758 0.402130 0.140708
H34   H     H_    0.775208 0.808911 0.140850 0.132667
H35   H     H_    0.532728 0.673869 0.597810 0.148263
H36   H     H_    0.341020 0.375772 0.405777 0.151582
H37   H     H_    0.658889 0.623857 0.594175 0.157339
H38   H     H_    0.471439 0.550548 0.407602 0.133993
H39   H     H_    0.528428 0.449059 0.592310 0.132738
H40   H     H_    0.197484 0.259453 0.004554 0.078534
H41   H     H_    0.796329 0.728914 0.993071 0.078966
H42   H     H_    0.985583 0.247099 0.721178 0.148373
H43   H     H_    0.928117 0.232538 0.799157 0.131433
H44   H     H_    0.780749 0.112488 0.679256 0.276932
H45   H     H_    0.170757 0.100099 0.695117 0.145972
H46   H     H_    0.846670 0.237262 0.695833 0.193588
H47   H     H_    0.837955 0.126542 0.601162 0.251384
H48   H     H_    0.148965 0.055690 0.341931 0.130639
H49   H     H_    0.157398 0.966535 0.241202 0.174182
H50   H     H_    0.246479 0.954313 0.332009 0.264638
H51   H     H_    0.298369 0.087062 0.368715 0.203999
H52   H     H_    0.237712 0.042695 0.432366 0.242628
H53   H     H_    0.166934 0.563418 0.404399 0.047157
H54   H     H_    0.833029 0.436276 0.595400 0.045226
H55   H     H_    0.185908 0.800784 0.804163 0.151120
H56   H     H_    0.822626 0.893868 0.302794 0.146887
H57   H     H_    0.214883 0.924720 0.900804 0.129709
H58   H     H_    0.148333 0.947941 0.803064 0.262858
H59   H     H_    0.235080 0.929935 0.769743 0.199240
H60   H     H_    0.117813 0.824111 0.706340 0.256978
H61   H     H_    0.784276 0.073780 0.099043 0.131150
H62   H     H_    0.813286 0.198166 0.194990 0.150305
H63   H     H_    0.882538 0.176781 0.293856 0.256134
H64   H     H_    0.765219 0.070664 0.231208 0.200040
H65   H     H_    0.851866 0.052475 0.197825 0.262318
H66   H     H_    0.160442 0.741277 0.105059 0.085746
H67   H     H_    0.983969 0.187712 0.871417 0.171336
H68   H     H_    0.832876 0.261481 0.899314 0.066022
H69   H     H_    0.012530 0.808698 0.130019 0.168320
H70   H     H_    0.950316 0.900586 0.566821 0.178683
O1    O     O_3   0.251620 0.500000 0.748430 -0.481923
O2    O     O_R   0.570330 0.268390 0.136490 -0.631930
O3    O     O_R   0.134680 0.268390 0.572240 -0.652526
O4    O     O_R   0.865320 0.731610 0.427760 -0.654533
O5    O     O_R   0.306670 0.731630 0.863510 -0.648974
O6    O     O_R   0.693330 0.268370 0.136490 -0.651048
O7    O     O_R   0.135450 0.439270 0.865360 -0.662703
O8    O     O_R   0.864550 0.560730 0.134640 -0.640031
O9    O     O_R   0.429670 0.560710 0.692610 -0.641565
O10   O     O_R   0.570330 0.439290 0.307390 -0.643389
O11   O     O_R   0.308540 0.439240 0.865360 -0.648040
O12   O     O_3   0.748380 0.500000 0.251570 -0.487088
O13   O     O_R   0.691460 0.560760 0.134640 -0.651276
O14   O     O_R   0.133580 0.439310 0.571150 -0.604935
O15   O     O_R   0.866420 0.560690 0.428850 -0.603655
O16   O     O_R   0.430770 0.560690 0.864590 -0.635011
O17   O     O_R   0.569230 0.439310 0.135410 -0.635821
O18   O     O_R   0.133580 0.560760 0.692610 -0.670487
O19   O     O_R   0.866420 0.439240 0.307390 -0.670135
O20   O     O_2   0.091809 0.265773 0.018946 -0.578802
O21   O     O_2   0.903891 0.726196 0.980711 -0.581626
O22   O     O_3   0.919092 0.100726 0.697972 -0.611340
O23   O     O_R   0.134680 0.560740 0.864590 -0.643498
O24   O     O_3   0.078814 0.902455 0.303528 -0.619968
O25   O     O_2   0.222164 0.560806 0.496279 -0.569578
O26   O     O_2   0.777897 0.439239 0.503746 -0.570500
O27   O     O_3   0.077686 0.806734 0.839209 -0.608377
O28   O     O_3   0.921403 0.191995 0.159749 -0.608617
O29   O     O_2   0.236325 0.876159 0.120387 -0.603579
O30   O     O_2   0.760268 0.124622 0.880901 -0.579682
O31   O     O_R   0.865320 0.439260 0.135410 -0.649784
O32   O     O_R   0.306670 0.439270 0.571150 -0.629044
O33   O     O_R   0.693330 0.560730 0.428850 -0.626441
O34   O     O_R   0.135450 0.268370 0.694460 -0.659279
O35   O     O_R   0.864550 0.731630 0.305540 -0.634046
O36   O     O_R   0.429670 0.731610 0.863510 -0.631056
Zn1   Zn    Zn3+2 0.207400 0.586780 0.791530 0.958288
Zn2   Zn    Zn3+2 0.792600 0.413220 0.208470 0.960422
Zn3   Zn    Zn3+2 0.208510 0.413230 0.792630 0.945755
Zn4   Zn    Zn3+2 0.791490 0.586770 0.207370 0.975101
Zn5   Zn    Zn3+2 0.383150 0.586740 0.791530 0.985013
Zn6   Zn    Zn3+2 0.616850 0.413260 0.208470 0.980728
Zn7   Zn    Zn3+2 0.207400 0.413250 0.618010 0.992198
Zn8   Zn    Zn3+2 0.792600 0.586750 0.381990 1.004927

loop_
_geom_bond_atom_site_label_1
_geom_bond_atom_site_label_2
_ccdc_geom_bond_type
C17   O4    A    
C3    C104  S    
C15   C18   S    
C74   H20   S    
C79   H24   S    
C63   C65   A    
C11   C18   S    
O34   Zn3   S    
O12   Zn2   S    
C89   C102  S    
C46   O31   A    
C8    C83   S    
C41   C43   A    
C64   C77   A    
C91   H1    S    
C71   H18   S    
C66   C68   A    
C9    C72   S    
C99   H44   S    
C77   O28   S    
C47   C62   S    
C45   O7    A    
C44   C48   A    
C47   C49   A    
O14   Zn7   S    
C21   O36   A    
O12   Zn8   S    
C69   O32   A    
C74   C76   A    
C54   H3    S    
C72   H27   S    
C9    C61   S    
C90   C103  S    
C13   H35   S    
C18   H39   S    
C35   C37   A    
C24   C26   A    
C37   C40   A    
C17   O35   A    
C10   C15   S    
C25   C40   S    
C6    H66   S    
O17   Zn6   S    
C11   C14   S    
C78   C80   A    
O10   Zn6   S    
C96   H40   S    
C63   C76   A    
C101  H51   S    
C58   C60   A    
C64   H17   S    
O5    Zn1   S    
C4    H61   S    
C79   C82   A    
C28   H25   S    
C22   C94   S    
C5    H64   S    
C20   H34   S    
O6    Zn2   S    
C1    O34   A    
C50   C72   S    
C2    C50   S    
C3    H58   S    
C59   C62   A    
C4    O28   S    
C48   C51   A    
C20   C24   A    
O11   Zn3   S    
C65   C67   A    
O12   Zn6   S    
O2    Zn6   S    
C28   C89   S    
C17   C36   S    
O1    Zn1   S    
C89   C91   S    
O16   Zn5   S    
C39   C90   S    
C67   C71   A    
C3    H59   S    
C57   H15   S    
C72   C94   S    
C96   O20   D    
C23   H45   S    
O13   Zn4   S    
C86   O13   A    
C41   H5    S    
C7    H68   S    
C8    H31   S    
O9    Zn5   S    
O1    Zn7   S    
C2    C83   S    
C14   C70   S    
C42   C44   A    
C6    O29   D    
C19   C32   A    
C58   C86   S    
C102  H53   S    
C39   C91   S    
C52   C54   A    
C61   H30   S    
C48   C60   S    
C6    C65   S    
O32   Zn7   S    
C85   O11   A    
C88   O15   A    
C15   C69   S    
C99   H46   S    
C51   H10   S    
C45   O23   A    
C35   C38   A    
C8    C94   S    
C22   O6    A    
C61   C83   S    
C104  H57   S    
C79   C81   A    
C61   C94   S    
C26   C38   S    
O19   Zn2   S    
C98   H42   S    
C101  H52   S    
C73   H19   S    
C70   O33   A    
C99   H47   S    
C100  H49   S    
C92   C95   S    
C100  H48   S    
C87   C95   S    
C28   C93   S    
C75   H21   S    
O1    Zn5   S    
C89   C95   S    
C16   H38   S    
C59   C85   S    
O18   Zn1   S    
C7    O30   D    
C34   H70   S    
C42   C55   A    
C91   C93   S    
C75   C77   A    
C90   C92   S    
C49   C52   A    
O23   Zn1   S    
C2    C21   S    
C31   C33   A    
C49   H9    S    
C86   O17   A    
C98   O22   S    
C28   C92   S    
C41   C54   A    
C92   H12   S    
C39   C95   S    
C46   C80   S    
C10   C12   S    
C3    H60   S    
C69   O9    A    
C20   C33   A    
C44   H8    S    
C70   O10   A    
C32   C96   S    
C12   C14   S    
C29   O24   S    
C10   H36   S    
C56   C62   A    
C73   C75   A    
C53   C55   A    
C78   H22   S    
C8    C50   S    
C81   C84   A    
O15   Zn8   S    
C19   C23   A    
C90   C93   S    
O8    Zn4   S    
C31   H69   S    
C52   H11   S    
C4    H62   S    
C88   C93   S    
O33   Zn8   S    
C14   C16   S    
C76   O27   S    
C56   H14   S    
C88   O19   A    
O4    Zn8   S    
C45   C81   S    
O3    Zn7   S    
C4    C5    S    
C57   C60   A    
C50   H29   S    
C71   C74   A    
C22   O2    A    
C24   H56   S    
C103  H54   S    
C87   O14   A    
C39   H26   S    
C1    C37   S    
C25   C27   A    
C11   H37   S    
C19   H23   S    
C1    O3    A    
O35   Zn4   S    
O31   Zn2   S    
C55   H4    S    
C68   C82   S    
C104  O27   S    
C46   O8    A    
C13   C15   S    
C68   C73   A    
C83   H28   S    
C29   C31   A    
C35   H2    S    
C10   C16   S    
C102  O25   D    
C7    C66   S    
C30   C32   A    
C63   H16   S    
C11   C13   S    
C97   O21   D    
C67   C84   S    
C101  H50   S    
C53   H13   S    
O12   Zn4   S    
C36   C38   A    
C100  C101  S    
C80   C82   A    
C56   C58   A    
C34   C36   A    
C103  O26   D    
C5    H63   S    
C42   H6    S    
C30   H67   S    
C85   O16   A    
C57   C59   A    
C43   H7    S    
C9    H32   S    
C78   C84   A    
C21   O5    A    
C23   C25   A    
C97   H41   S    
C26   C29   A    
C98   C99   S    
C98   H43   S    
C13   C16   S    
C12   C18   S    
O1    Zn3   S    
C5    H65   S    
C12   H33   S    
C34   C40   A    
O7    Zn3   S    
C27   O22   S    
C104  H55   S    
C33   C97   S    
C51   C53   A    
C2    C9    S    
C43   C47   A    
O36   Zn5   S    
C64   C66   A    
C87   O18   A    
C27   C30   A    
C100  O24   S    
