data_mof_unit_18386.cif
_audit_creation_date              2012-12-10T18:46:18-0500
_audit_creation_method            fapswitch 2.2
_symmetry_space_group_name_H-M    P1
_symmetry_Int_Tables_number       1
_space_group_crystal_system       triclinic
_cell_length_a                    9.885072
_cell_length_b                    10.656175
_cell_length_c                    13.218903
_cell_angle_alpha                 90.014751
_cell_angle_beta                  69.881178
_cell_angle_gamma                 89.494055
_cell_volume                      1307.41642601

loop_
_atom_site_label
_atom_site_type_symbol
_atom_type_description
_atom_site_fract_x
_atom_site_fract_y
_atom_site_fract_z
_atom_type_partial_charge
C1    C     C_R   0.500451 0.739579 0.498087 0.926819
C2    C     C_R   0.436248 0.475907 0.983247 0.089486
C3    C     C_R   0.469857 0.445060 0.873578 0.080309
C4    C     C_R   0.546805 0.465843 0.028495 0.074678
C5    C     C_R   0.681101 0.408454 0.969674 0.169938
C6    C     C_R   0.704995 0.363370 0.866514 -0.239731
C7    C     C_R   0.601104 0.380779 0.819336 -0.186188
C8    C     C_R   0.528168 0.512938 0.130466 -0.255434
C9    C     C_R   0.761523 0.431980 0.121998 -0.211400
C10   C     C_R   0.371761 0.480717 0.821276 -0.118394
C11   C     C_R   0.545402 0.932525 0.573405 -0.229392
C12   C     C_R   0.420715 0.492296 0.703859 0.841865
C13   C     C_R   0.539970 0.061183 0.579471 0.454493
C14   C     C_R   0.497814 0.127654 0.503074 -0.149836
C15   C     C_R   0.453211 0.066733 0.426666 -0.279037
C16   C     C_R   0.452977 0.937366 0.423939 0.112579
C17   C     C_R   0.500111 0.871817 0.497507 -0.108733
C18   C     C_R   0.960060 0.422431 0.432729 -0.142131
C19   C     C_R   0.103598 0.422514 0.432675 -0.151387
C20   C     C_R   0.038106 0.578146 0.568020 0.433546
C21   C     C_R   0.894910 0.577933 0.567213 0.178234
C22   C     C_R   0.499720 0.260230 0.500942 0.862527
C23   C     C_R   0.579990 0.500786 0.296137 0.874322
C24   C     C_R   0.788726 0.394565 0.015893 -0.194088
C25   C     C_R   0.628903 0.487869 0.179951 -0.053928
C26   C     C_R   0.231887 0.520522 0.882281 -0.186539
C27   C     C_R   0.191912 0.533224 0.993226 -0.146810
C28   C     C_R   0.293292 0.514368 0.043372 -0.191381
H1    H     H_    0.840730 0.412387 0.159835 0.153198
H2    H     H_    0.420341 0.119571 0.368728 0.158726
H3    H     H_    0.931440 0.360283 0.378720 0.152026
H4    H     H_    0.183118 0.360397 0.378655 0.159638
H5    H     H_    0.805016 0.315738 0.821479 0.161676
H6    H     H_    0.891189 0.350290 0.971557 0.144640
H7    H     H_    0.433013 0.566222 0.175025 0.157070
H8    H     H_    0.154555 0.545213 0.843928 0.173448
H9    H     H_    0.255603 0.527206 0.129585 0.132200
H10   H     H_    0.083262 0.562655 0.040192 0.150521
H11   H     H_    0.626152 0.341345 0.740073 0.199027
H12   H     H_    0.578074 0.879581 0.631374 0.174196
N1    N     N_R   0.142790 0.500030 0.500030 -0.136736
N2    N     N_R   0.857180 0.499940 0.500010 -0.106507
O1    O     O_R   0.385370 0.683250 0.500010 -0.610071
O2    O     O_R   0.614700 0.683220 0.500010 -0.607011
O3    O     O_R   0.328400 0.499990 0.653620 -0.638068
O4    O     O_R   0.557730 0.499960 0.653620 -0.603877
O5    O     O_R   0.385300 0.316780 0.499990 -0.613348
O6    O     O_R   0.614630 0.316750 0.499990 -0.605252
O7    O     O_R   0.442270 0.500040 0.346380 -0.616272
O8    O     O_R   0.671600 0.500010 0.346380 -0.619390
Zn1   Zn    Zn3+2 0.346870 0.500020 0.500000 0.949977
Zn2   Zn    Zn3+2 0.653130 0.499980 0.500000 0.957005
O9    O     O_3   0.570015 0.117793 0.662893 -0.766852
H13   H     H_    0.512234 0.196110 0.681608 0.309333
N3    N     N_3   0.409370 0.872724 0.345235 -0.445019
H14   H     H_    0.303681 0.900315 0.355510 0.197907
H15   H     H_    0.475397 0.901798 0.268780 0.178291
O10   O     O_3   0.066773 0.659206 0.638960 -0.806247
H16   H     H_    0.166499 0.646405 0.635022 0.388890
N4    N     N_3   0.788186 0.659932 0.637343 -0.383744
H17   H     H_    0.779270 0.639670 0.716766 0.205075
H18   H     H_    0.823780 0.752256 0.620726 0.201161

loop_
_geom_bond_atom_site_label_1
_geom_bond_atom_site_label_2
_ccdc_geom_bond_type
C22   O6    A    
N3    H14   S    
C9    C24   A    
C6    C7    A    
C2    C28   A    
C8    H7    S    
C1    O2    A    
C1    C17   S    
C15   H2    S    
C6    H5    S    
C9    H1    S    
C4    C8    A    
O1    Zn1   S    
C10   C26   A    
C11   H12   S    
N3    H15   S    
C22   O5    A    
C16   N3    S    
C9    C25   A    
C3    C10   A    
C13   C14   A    
O8    Zn2   S    
C8    C25   A    
C11   C13   A    
O2    Zn2   S    
C26   C27   A    
C5    C6    A    
C5    C24   A    
C10   C12   S    
C28   H9    S    
N4    H17   S    
C19   H4    S    
N4    H18   S    
N1    Zn1   S    
C20   N1    A    
C3    C7    A    
C2    C3    A    
C18   N2    A    
C14   C22   S    
C24   H6    S    
C23   O7    A    
C13   O9    S    
O3    Zn1   S    
C27   H10   S    
C20   O10   S    
C15   C16   A    
C2    C4    A    
O4    Zn2   S    
O6    Zn2   S    
C23   C25   S    
C20   C21   A    
C21   N4    S    
C12   O4    A    
C18   C19   A    
C26   H8    S    
C27   C28   A    
C7    H11   S    
C14   C15   A    
C16   C17   A    
C23   O8    A    
O5    Zn1   S    
C18   H3    S    
O10   H16   S    
O9    H13   S    
C4    C5    A    
C1    O1    A    
C11   C17   A    
C21   N2    A    
N2    Zn2   S    
C12   O3    A    
O7    Zn1   S    
C19   N1    A    
