data_mof_unit_14380.cif
_audit_creation_date              2013-03-05T16:10:15-0500
_audit_creation_method            fapswitch 2.2
_symmetry_space_group_name_H-M    P1
_symmetry_Int_Tables_number       1
_space_group_crystal_system       triclinic
_cell_length_a                    9.862871
_cell_length_b                    10.704472
_cell_length_c                    13.106474
_cell_angle_alpha                 90.453525
_cell_angle_beta                  70.142043
_cell_angle_gamma                 90.243955
_cell_volume                      1301.41690741

loop_
_atom_site_label
_atom_site_type_symbol
_atom_site_description
_atom_site_fract_x
_atom_site_fract_y
_atom_site_fract_z
_atom_type_partial_charge
O1    O     O_R   0.385370 0.683250 0.500010 -0.633841
O2    O     O_R   0.614700 0.683220 0.500010 -0.576558
C1    C     C_R   0.500091 0.740048 0.500297 0.890149
O3    O     O_R   0.328400 0.499990 0.653620 -0.605194
O4    O     O_R   0.557730 0.499960 0.653620 -0.579734
C2    C     C_R   0.420162 0.492186 0.704004 0.879827
Zn1   Zn    Zn3+2 0.346870 0.500020 0.500000 0.972431
Zn2   Zn    Zn3+2 0.653130 0.499980 0.500000 0.998129
O5    O     O_R   0.385300 0.316780 0.499990 -0.609766
O6    O     O_R   0.614630 0.316750 0.499990 -0.627957
O7    O     O_R   0.442270 0.500040 0.346380 -0.622702
O8    O     O_R   0.671600 0.500010 0.346380 -0.626015
C3    C     C_R   0.499816 0.259963 0.499927 0.857068
C4    C     C_R   0.579952 0.499004 0.295650 0.856616
C5    C     C_R   0.778690 0.371020 0.018835 -0.129765
H1    H     H_    0.831729 0.392338 0.163782 0.150235
H2    H     H_    0.876007 0.318391 0.979561 0.189662
C6    C     C_R   0.628356 0.479619 0.179069 -0.050658
C7    C     C_R   0.230944 0.522945 0.882664 -0.143451
C8    C     C_R   0.191108 0.533142 0.994644 -0.143143
C9    C     C_R   0.291426 0.507985 0.045079 -0.182882
C10   C     C_R   0.431793 0.465022 0.983936 0.096297
C11   C     C_R   0.461407 0.433472 0.874473 0.047935
C12   C     C_R   0.543506 0.452552 0.027803 0.051995
C13   C     C_R   0.673550 0.388754 0.969329 0.051177
C14   C     C_R   0.691986 0.340780 0.865088 0.307412
C15   C     C_R   0.584721 0.361416 0.819989 -0.230085
C16   C     C_R   0.529821 0.505593 0.127932 -0.210524
C17   C     C_R   0.754960 0.414574 0.123993 -0.227821
C18   C     C_R   0.368082 0.477774 0.821649 -0.090200
H3    H     H_    0.439497 0.564799 0.170080 0.147811
H4    H     H_    0.156206 0.553624 0.843630 0.179289
H5    H     H_    0.255314 0.519706 0.132083 0.127264
H6    H     H_    0.084473 0.566180 0.041990 0.153694
H7    H     H_    0.600015 0.321672 0.740711 0.191611
C19   C     C_R   0.631341 0.936318 0.471374 -0.125792
H8    H     H_    0.733612 0.887661 0.447698 0.175395
C20   C     C_R   0.631179 0.064298 0.471187 -0.165914
H9    H     H_    0.733404 0.113400 0.447586 0.164775
C21   C     C_R   0.499717 0.127521 0.500061 -0.033760
C22   C     C_R   0.368406 0.063768 0.529351 -0.165787
H10   H     H_    0.266167 0.112485 0.552739 0.188003
C23   C     C_R   0.368565 0.935758 0.529732 -0.179956
H11   H     H_    0.266354 0.886631 0.553372 0.171649
C24   C     C_R   0.500058 0.872528 0.500633 -0.027510
C25   C     C_R   0.961921 0.433169 0.424055 -0.149509
H12   H     H_    0.934743 0.379779 0.363237 0.140747
C26   C     C_R   0.105656 0.433323 0.424005 -0.066650
H13   H     H_    0.187033 0.379905 0.363062 0.141505
N1    N     N_R   0.142790 0.500030 0.500030 -0.098049
C27   C     C_R   0.038738 0.565644 0.576457 -0.078641
H14   H     H_    0.067149 0.618612 0.636976 0.153528
C28   C     C_R   0.895164 0.566789 0.576573 0.388641
N2    N     N_R   0.857180 0.499940 0.500010 -0.136526
N3    N     N_R   0.791410 0.640051 0.657218 0.216516
O9    O     O_R   0.757345 0.749540 0.631286 -0.381518
O10   O     O_R   0.767413 0.616374 0.759053 -0.396667
N4    N     N_R   0.821285 0.277087 0.801204 0.195780
O11   O     O_R   0.812788 0.179191 0.744170 -0.378658
O12   O     O_R   0.946049 0.330728 0.782146 -0.409904

loop_
_geom_bond_atom_site_label_1
_geom_bond_atom_site_label_2
_geom_bond_distance
_ccdc_geom_bond_type
O4    Zn2   1.911051 S    
C20   C21   1.397302 A    
N3    O9    1.299717 A    
C16   H3    1.079522 S    
C5    H2    1.080726 S    
C11   C15   1.411850 A    
C23   C24   1.397449 A    
C22   H10   1.083821 S    
C4    C6    1.451173 S    
C28   N3    1.427681 S    
C7    C8    1.387940 A    
Zn2   O8    1.959045 S    
C13   C14   1.408656 A    
C8    H6    1.082853 S    
C25   N2    1.365805 A    
C26   N1    1.367962 A    
N1    C27   1.358856 A    
N4    O11   1.301292 A    
C1    C24   1.418109 S    
C19   C24   1.396123 A    
C6    C17   1.397198 A    
O1    Zn1   1.996217 S    
C28   N2    1.378811 A    
C8    C9    1.392078 A    
Zn1   O7    1.911053 S    
C14   N4    1.437058 S    
C14   C15   1.395096 A    
O4    C2    1.294269 A    
O3    Zn1   1.959044 S    
C26   H13   1.081801 S    
C7    H4    1.083456 S    
C19   C20   1.369994 A    
C19   H8    1.083651 S    
C2    C18   1.459508 S    
O8    C4    1.291259 A    
C5    C17   1.394024 A    
O2    C1    1.284804 A    
N3    O10   1.300723 A    
C23   H11   1.083819 S    
C20   H9    1.083823 S    
O7    C4    1.293376 A    
C10   C12   1.412513 A    
C5    C13   1.411780 A    
O3    C2    1.292164 A    
C9    H5    1.079393 S    
N4    O12   1.301442 A    
C27   H14   1.082439 S    
C11   C18   1.411848 A    
C6    C16   1.385195 A    
C12   C13   1.424835 A    
Zn2   O6    1.996220 S    
Zn2   N2    2.012565 S    
O1    C1    1.283322 A    
Zn1   O5    1.999347 S    
O5    C3    1.284835 A    
C25   H12   1.081901 S    
C21   C22   1.396145 A    
C3    C21   1.417727 S    
C15   H7    1.081873 S    
H1    C17   1.083364 S    
C9    C10   1.419927 A    
C7    C18   1.402630 A    
C25   C26   1.417412 A    
C10   C11   1.402187 A    
O2    Zn2   1.999348 S    
C22   C23   1.370341 A    
C12   C16   1.389721 A    
Zn1   N1    2.012682 S    
C27   C28   1.415639 A    
O6    C3    1.283192 A    
