data_mof_unit_15256.cif
_audit_creation_date              2012-10-26T21:20:08-0400
_audit_creation_method            fapswitch 2.2
_symmetry_space_group_name_H-M    P1
_symmetry_Int_Tables_number       1
_space_group_crystal_system       triclinic
_cell_length_a                    13.076226
_cell_length_b                    10.868823
_cell_length_c                    9.57595
_cell_angle_alpha                 90.635376
_cell_angle_beta                  97.727301
_cell_angle_gamma                 92.607734
_cell_volume                      1347.00582511

loop_
_atom_site_label
_atom_site_type_symbol
_atom_type_description
_atom_site_fract_x
_atom_site_fract_y
_atom_site_fract_z
_atom_type_partial_charge
C1    C     C_R   0.501932 0.262468 0.499370 0.546424
C2    C     C_R   0.699582 0.494269 0.528740 0.545744
C3    C     C_R   0.813585 0.486334 0.550279 -0.026479
C4    C     C_R   0.186414 0.513645 0.449722 -0.026476
C5    C     C_R   0.020253 0.447185 0.318471 -0.018037
C6    C     C_R   0.979748 0.552780 0.681534 -0.018039
C7    C     C_R   0.126256 0.475135 0.322220 -0.085492
C8    C     C_R   0.873743 0.524836 0.677783 -0.085486
C9    C     C_R   0.136764 0.553969 0.562486 0.226307
C10   C     C_R   0.863234 0.446005 0.437515 0.226311
C11   C     C_R   0.029406 0.528128 0.561379 0.011406
C12   C     C_R   0.498068 0.737532 0.500630 0.546431
C13   C     C_R   0.970594 0.471839 0.438626 0.011415
C14   C     C_R   0.534806 0.061603 0.385386 -0.024050
C15   C     C_R   0.465194 0.938397 0.614614 -0.024054
C16   C     C_R   0.530415 0.934109 0.388163 -0.124303
C17   C     C_R   0.469585 0.065891 0.611837 -0.124304
C18   C     C_1   0.830465 0.526023 0.809469 0.258541
C19   C     C_1   0.169533 0.473949 0.190533 0.258540
C20   C     C_1   0.965669 0.390427 0.189733 0.328040
C21   C     C_1   0.034332 0.609534 0.810274 0.328035
C22   C     C_1   0.575687 0.119546 0.268006 0.232256
C23   C     C_R   0.496992 0.871498 0.502085 -0.000331
C24   C     C_1   0.424313 0.880453 0.731994 0.232258
C25   C     C_1   0.379280 0.321051 0.123534 0.282387
C26   C     C_1   0.620725 0.678944 0.876466 0.282385
C27   C     C_1   0.364953 0.335939 0.825821 0.279200
C28   C     C_1   0.635046 0.664060 0.174179 0.279198
C29   C     C_R   0.503008 0.128502 0.497915 -0.000329
C30   C     C_R   0.439544 0.415663 0.062276 0.094463
C31   C     C_R   0.560457 0.584336 0.937724 0.094462
C32   C     C_R   0.437588 0.417695 0.913244 0.094076
C33   C     C_R   0.562412 0.582305 0.086756 0.094074
C34   C     C_R   0.300417 0.505725 0.471260 0.545755
Cu1   Cu    Cu3+1 0.500000 0.500020 0.640660 1.029793
Cu2   Cu    Cu3+1 0.500000 0.499980 0.359340 1.029781
H1    H     H_    0.554662 0.883703 0.301171 0.160461
H2    H     H_    0.445338 0.116297 0.698828 0.160461
H3    H     H_    0.755338 0.324524 0.365387 0.339008
H4    H     H_    0.244631 0.675490 0.634587 0.338990
N1    N     N_R   0.500030 0.500030 0.852080 -0.265969
N2    N     N_1   0.669388 0.755459 0.829020 -0.266967
N3    N     N_1   0.305516 0.270859 0.757050 -0.276731
N4    N     N_1   0.694484 0.729141 0.242950 -0.276727
N5    N     N_R   0.499970 0.499970 0.147920 -0.265971
N6    N     N_1   0.798337 0.525090 0.916237 -0.246035
N7    N     N_1   0.201659 0.474882 0.083765 -0.246036
N8    N     N_1   0.923367 0.344064 0.087321 -0.207263
N9    N     N_1   0.076635 0.655896 0.912686 -0.207265
N10   N     N_1   0.608469 0.165473 0.173870 -0.253244
N11   N     N_1   0.391531 0.834526 0.826129 -0.253238
N12   N     N_1   0.330620 0.244533 0.170979 -0.266970
O1    O     O_R   0.499990 0.319660 0.618740 -0.512006
O2    O     O_3   0.192470 0.621139 0.672860 -0.655681
O3    O     O_R   0.500010 0.680340 0.381260 -0.512003
O4    O     O_R   0.499990 0.319630 0.381170 -0.498291
O5    O     O_R   0.500010 0.680370 0.618830 -0.498283
O6    O     O_R   0.349000 0.499990 0.599490 -0.468160
O7    O     O_R   0.651000 0.500010 0.400510 -0.468185
O8    O     O_R   0.348990 0.499960 0.361920 -0.499055
O9    O     O_R   0.651010 0.500040 0.638080 -0.499051
O10   O     O_3   0.807526 0.378846 0.327132 -0.655690

loop_
_geom_bond_atom_site_label_1
_geom_bond_atom_site_label_2
_ccdc_geom_bond_type
C30   C32   A    
C32   N1    A    
C31   C33   A    
C15   C17   A    
Cu2   O4    S    
Cu1   O1    S    
C33   N5    A    
C30   N5    A    
C5    C13   A    
Cu1   Cu2   S    
C2    O9    A    
Cu1   O5    S    
C16   H1    S    
C22   N10   T    
Cu2   O7    S    
C15   C23   A    
C14   C22   S    
C24   N11   T    
C1    C29   S    
C2    C3    S    
C27   C32   S    
C25   N12   T    
C26   C31   S    
Cu1   O9    S    
C5    C20   S    
C10   O10   S    
C34   O8    A    
C11   C13   A    
C12   C23   S    
C20   N8    T    
Cu1   O6    S    
C3    C10   A    
C12   O5    A    
C18   N6    T    
C21   N9    T    
C15   C24   S    
C1    O4    A    
C28   C33   S    
C16   C23   A    
H4    O2    S    
C17   H2    S    
C9    C11   A    
C4    C34   S    
Cu2   O3    S    
Cu1   N1    S    
C14   C16   A    
C12   O3    A    
C14   C29   A    
C27   N3    T    
Cu2   N5    S    
C17   C29   A    
C26   N2    T    
C34   O6    A    
C3    C8    A    
C19   N7    T    
C6    C11   A    
C5    C7    A    
H3    O10   S    
C1    O1    A    
C2    O7    A    
C25   C30   S    
C7    C19   S    
C6    C8    A    
C9    O2    S    
C31   N1    A    
C4    C7    A    
C4    C9    A    
C6    C21   S    
C28   N4    T    
C8    C18   S    
Cu2   O8    S    
C10   C13   A    
