data_mof_unit_51852.cif
_audit_creation_date              2012-10-26T21:00:41-0400
_audit_creation_method            fapswitch 2.2
_symmetry_space_group_name_H-M    P1
_symmetry_Int_Tables_number       1
_space_group_crystal_system       triclinic
_cell_length_a                    10.832207
_cell_length_b                    9.489944
_cell_length_c                    10.810705
_cell_angle_alpha                 90.002439
_cell_angle_beta                  90.124945
_cell_angle_gamma                 90.00015
_cell_volume                      1111.30580741

loop_
_atom_site_label
_atom_site_type_symbol
_atom_type_description
_atom_site_fract_x
_atom_site_fract_y
_atom_site_fract_z
_atom_type_partial_charge
C1    C     C_R   0.261974 0.499976 0.499859 0.550285
C2    C     C_R   0.489219 0.500688 0.737815 0.569818
C3    C     C_R   0.572658 0.761393 0.107900 0.160635
C4    C     C_R   0.427547 0.761478 0.892138 0.160667
C5    C     C_R   0.538698 0.888610 0.051506 -0.152668
C6    C     C_R   0.461638 0.888655 0.948542 -0.152675
C7    C     C_R   0.475471 0.632363 0.939690 0.019272
C8    C     C_R   0.524637 0.632337 0.060326 0.019285
C9    C     C_R   0.521052 0.503305 0.127239 -0.006789
C10   C     C_R   0.478982 0.503328 0.872764 -0.006903
C11   C     C_R   0.506892 0.375888 0.063474 -0.178121
C12   C     C_R   0.738026 0.499977 0.500144 0.550343
C13   C     C_R   0.493069 0.375897 0.936518 -0.178121
C14   C     C_R   0.063845 0.371965 0.499907 -0.143537
C15   C     C_R   0.936155 0.371965 0.500009 -0.143530
C16   C     C_R   0.871820 0.500019 0.500225 0.018239
C17   C     C_R   0.128180 0.500019 0.499784 0.018235
C18   C     C_3   0.779853 0.699166 0.173090 -0.299257
C19   C     C_3   0.220416 0.699070 0.826807 -0.299047
C20   C     C_R   0.936161 0.628078 0.500401 -0.154934
C21   C     C_R   0.063840 0.628078 0.499703 -0.154913
C22   C     C_R   0.428254 0.074492 0.418288 -0.000021
C23   C     C_R   0.571747 0.074500 0.581712 -0.000029
C24   C     C_R   0.428265 0.925460 0.418282 0.005211
C25   C     C_R   0.571735 0.925468 0.581718 0.005246
C26   C     C_R   0.510796 0.500680 0.262186 0.569959
Cu1   Cu    Cu3+1 0.500000 0.640660 0.500000 0.956145
Cu2   Cu    Cu3+1 0.500000 0.359340 0.500000 0.921313
H1    H     H_    0.507671 0.275640 0.111426 0.132612
H2    H     H_    0.629216 0.130833 0.647034 0.108573
H3    H     H_    0.370901 0.869082 0.352891 0.113140
H4    H     H_    0.629098 0.869097 0.647109 0.113152
H5    H     H_    0.673911 0.860853 0.246470 0.244521
H6    H     H_    0.842992 0.705012 0.253896 0.141681
H7    H     H_    0.823195 0.755217 0.094055 0.127959
H8    H     H_    0.766946 0.586386 0.149103 0.149847
H9    H     H_    0.326129 0.861180 0.753809 0.244409
H10   H     H_    0.157111 0.705480 0.746175 0.141485
H11   H     H_    0.177198 0.754457 0.906250 0.127987
H12   H     H_    0.492227 0.275651 0.888556 0.132617
H13   H     H_    0.233436 0.586142 0.850078 0.149860
H14   H     H_    0.570962 0.988171 0.088386 0.101101
H15   H     H_    0.429465 0.988259 0.911679 0.101039
H16   H     H_    0.111889 0.271850 0.499868 0.125608
H17   H     H_    0.888110 0.271850 0.499971 0.125612
H18   H     H_    0.888108 0.728190 0.500681 0.124669
H19   H     H_    0.111893 0.728190 0.499497 0.124684
H20   H     H_    0.370784 0.130819 0.352966 0.108564
N1    N     N_R   0.500000 0.852070 0.500000 -0.222381
N2    N     N_R   0.500000 0.147940 0.500000 -0.225612
N3    N     N_2   0.663122 0.764207 0.204047 -0.473056
N4    N     N_2   0.337052 0.764427 0.796014 -0.473014
O1    O     O_R   0.319640 0.618740 0.499990 -0.503229
O2    O     O_R   0.680360 0.618740 0.500010 -0.503260
O3    O     O_R   0.319620 0.381170 0.499990 -0.510594
O4    O     O_R   0.680380 0.381170 0.500010 -0.510584
O5    O     O_R   0.500000 0.618810 0.319650 -0.468924
O6    O     O_R   0.500000 0.618810 0.680350 -0.468834
O7    O     O_R   0.499970 0.381240 0.319640 -0.516869
O8    O     O_R   0.500030 0.381240 0.680360 -0.516871

loop_
_geom_bond_atom_site_label_1
_geom_bond_atom_site_label_2
_ccdc_geom_bond_type
C9    C26   S    
C7    C10   A    
C22   H20   S    
C5    H14   S    
C2    O6    A    
C19   H10   S    
H5    N3    S    
C11   C13   A    
C26   O7    A    
C1    C17   S    
C22   N2    A    
C16   C20   A    
C3    C5    A    
C25   H4    S    
Cu1   O1    S    
C1    O3    A    
C24   H3    S    
C19   H13   S    
C7    C8    A    
Cu1   O5    S    
C9    C11   A    
C14   C17   A    
C18   H8    S    
C12   O4    A    
Cu2   O8    S    
C19   H11   S    
C4    N4    S    
C4    C7    A    
C22   C24   A    
C4    C6    A    
Cu2   O3    S    
C20   H18   S    
C18   N3    S    
C25   N1    A    
C6    H15   S    
C18   H6    S    
Cu2   O4    S    
C5    C6    A    
C26   O5    A    
C2    O8    A    
Cu1   O2    S    
C15   H17   S    
C15   C16   A    
C2    C10   S    
C23   H2    S    
Cu1   N1    S    
C24   N1    A    
C23   C25   A    
C20   C21   A    
C11   H1    S    
C14   H16   S    
C3    C8    A    
C18   H7    S    
Cu2   O7    S    
Cu1   Cu2   S    
H9    N4    S    
C3    N3    S    
C14   C15   A    
C13   H12   S    
C1    O1    A    
C21   H19   S    
Cu2   N2    S    
C19   N4    S    
C10   C13   A    
C12   O2    A    
C12   C16   S    
C8    C9    A    
C23   N2    A    
Cu1   O6    S    
C17   C21   A    
