data_mof_unit_39147.cif
_audit_creation_date              2012-12-10T18:10:51-0500
_audit_creation_method            fapswitch 2.2
_symmetry_space_group_name_H-M    P1
_symmetry_Int_Tables_number       1
_space_group_crystal_system       triclinic
_cell_length_a                    12.85863
_cell_length_b                    13.460696
_cell_length_c                    15.654311
_cell_angle_alpha                 100.374026
_cell_angle_beta                  100.97034
_cell_angle_gamma                 85.230508
_cell_volume                      2613.19218966

loop_
_atom_site_label
_atom_site_type_symbol
_atom_type_description
_atom_site_fract_x
_atom_site_fract_y
_atom_site_fract_z
_atom_type_partial_charge
C1    C     C_R   0.443470 0.689218 0.488322 0.864869
C2    C     C_3   0.381093 0.543830 0.033363 -0.417691
C3    C     C_3   0.489542 0.508127 0.082605 0.150621
C4    C     C_3   0.518059 0.397572 0.041152 -0.362432
C5    C     C_3   0.529106 0.391870 0.944076 -0.317168
C6    C     C_1   0.485854 0.512589 0.174107 -0.045344
C7    C     C_1   0.502001 0.494775 0.825055 0.054590
C8    C     C_1   0.504003 0.496932 0.750063 -0.075942
C9    C     C_R   0.727821 0.079296 0.521567 0.381939
C10   C     C_R   0.588852 0.209256 0.516512 -0.118748
C11   C     C_R   0.307672 0.827676 0.488121 -0.133031
C12   C     C_R   0.501344 0.499847 0.661279 0.884251
C13   C     C_R   0.277238 0.929100 0.497401 -0.087542
C14   C     C_R   0.352229 0.000056 0.505367 -0.148685
C15   C     C_R   0.460224 0.969984 0.500259 0.108898
C16   C     C_R   0.488677 0.866125 0.482745 0.074542
C17   C     C_R   0.540666 0.039563 0.509799 0.046628
C18   C     C_R   0.649185 0.005764 0.506319 -0.015073
C19   C     C_R   0.671243 0.902444 0.478159 -0.052656
C20   C     C_R   0.590240 0.835763 0.462703 -0.244244
C21   C     C_R   0.514557 0.142633 0.519108 -0.246075
C22   C     C_R   0.694452 0.178444 0.518806 -0.180808
C23   C     C_R   0.556777 0.312122 0.511589 0.968855
C24   C     C_R   0.413234 0.795265 0.483217 -0.124866
C25   C     C_R   0.096889 0.328368 0.375965 0.390070
C26   C     C_R   0.800128 0.624313 0.617184 0.017861
C27   C     C_R   0.901161 0.624129 0.665009 -0.184843
C28   C     C_R   0.978120 0.558653 0.631242 0.020214
C29   C     C_R   0.962635 0.506645 0.543374 0.003734
C30   C     C_R   0.853955 0.490732 0.504239 0.089090
C31   C     C_R   0.047565 0.460180 0.497347 -0.141862
C32   C     C_R   0.023159 0.373891 0.431144 -0.107537
C33   C     C_R   0.925985 0.333719 0.422870 -0.144818
C34   C     C_R   0.496420 0.505464 0.339199 0.962924
C35   C     C_R   0.836788 0.397386 0.437179 0.367151
C36   C     C_R   0.154130 0.494254 0.511098 0.495591
C37   C     C_R   0.195937 0.366564 0.391264 -0.138470
C38   C     C_3   0.382296 0.529135 0.933127 0.268685
C39   C     C_3   0.576709 0.576292 0.974375 0.216795
C40   C     C_3   0.575909 0.576977 0.073238 -0.430697
C41   C     C_1   0.488542 0.511548 0.250283 -0.112543
C42   C     C_3   0.498110 0.496912 0.916303 0.013819
H1    H     H_    0.364014 0.625184 0.058713 0.157542
H2    H     H_    0.317086 0.501608 0.047697 0.256868
H3    H     H_    0.593984 0.369299 0.078234 0.190784
H4    H     H_    0.752567 0.232698 0.520005 0.207116
H5    H     H_    0.435768 0.173608 0.523211 0.174329
H6    H     H_    0.248083 0.774962 0.487281 0.222753
H7    H     H_    0.320909 0.077113 0.514975 0.158834
H8    H     H_    0.195289 0.952770 0.500920 0.206906
H9    H     H_    0.358508 0.603106 0.910917 0.095186
H10   H     H_    0.607630 0.759879 0.430240 0.181401
H11   H     H_    0.256226 0.330992 0.354140 0.202693
H12   H     H_    0.916266 0.256881 0.389708 0.252727
H13   H     H_    0.736537 0.667625 0.645721 0.142057
H14   H     H_    0.045795 0.544059 0.677893 0.237417
H15   H     H_    0.917689 0.667263 0.731207 0.187757
H16   H     H_    0.545282 0.652248 0.959821 0.099901
H17   H     H_    0.561070 0.655950 0.106522 0.172269
H18   H     H_    0.653349 0.549305 0.108072 0.246621
H19   H     H_    0.478779 0.332665 0.900989 0.224506
H20   H     H_    0.611790 0.367409 0.936524 0.234557
H21   H     H_    0.455724 0.347081 0.045337 0.239023
N1    N     N_R   0.222200 0.444690 0.455710 -0.195763
N2    N     N_R   0.776960 0.554780 0.543830 -0.133256
O1    O     O_R   0.366740 0.627160 0.478850 -0.550715
O2    O     O_R   0.544830 0.662520 0.507140 -0.654308
O3    O     O_R   0.410920 0.482310 0.608710 -0.523307
O4    O     O_R   0.589010 0.517670 0.637000 -0.635896
O5    O     O_R   0.455170 0.337480 0.492860 -0.631314
O6    O     O_R   0.633260 0.372840 0.521150 -0.599865
O7    O     O_R   0.410990 0.482330 0.363000 -0.624050
O8    O     O_R   0.589080 0.517690 0.391290 -0.531500
Zn1   Zn    Zn3+2 0.381090 0.476390 0.481110 1.052876
Zn2   Zn    Zn3+2 0.618910 0.523610 0.518890 1.012865
S1    S     S_3+6 0.281956 0.441834 0.873030 0.052975
O9    O     O_2   0.174810 0.496536 0.867407 -0.216279
O10   O     O_2   0.302064 0.401704 0.781352 -0.278690
O11   O     O_3   0.281265 0.343579 0.925848 -0.554505
H22   H     H_    0.257609 0.285854 0.878635 0.395169
C43   C     C_1   0.769758 0.862209 0.451667 0.337884
N3    N     N_1   0.848652 0.829091 0.429891 -0.085226
S2    S     S_3+6 0.867209 0.060314 0.554020 0.027020
O12   O     O_2   0.917833 0.031545 0.473676 -0.251961
O13   O     O_2   0.912314 0.157277 0.605563 -0.304116
O14   O     O_3   0.894798 0.970941 0.618081 -0.533466
H23   H     H_    0.910751 0.008698 0.679184 0.387874
S3    S     S_3+6 0.078122 0.221904 0.288409 0.058128
O15   O     O_2   0.133976 0.238935 0.215559 -0.254094
O16   O     O_2   0.131299 0.130452 0.325624 -0.298617
O17   O     O_3   0.952393 0.198029 0.242514 -0.475773
H24   H     H_    0.955824 0.127587 0.209869 0.401034
S4    S     S_3+6 0.200265 0.594661 0.603756 0.039588
O18   O     O_2   0.117315 0.680117 0.607222 -0.310051
O19   O     O_2   0.216120 0.548470 0.685957 -0.291944
O20   O     O_3   0.313131 0.652461 0.614693 -0.532095
H25   H     H_    0.330658 0.683959 0.677632 0.364325
S5    S     S_3+6 0.733733 0.361510 0.341944 0.048454
O21   O     O_2   0.767420 0.268557 0.281626 -0.252314
O22   O     O_2   0.631148 0.334361 0.361311 -0.321903
O23   O     O_3   0.715796 0.455127 0.281276 -0.535815
H26   H     H_    0.674857 0.422766 0.223170 0.366125
S6    S     S_3+6 0.711221 0.563180 0.949549 0.054562
O24   O     O_2   0.793888 0.562989 0.031994 -0.204509
O25   O     O_2   0.728553 0.467396 0.885948 -0.302774
O26   O     O_3   0.730365 0.663110 0.903785 -0.516721
H27   H     H_    0.723732 0.637270 0.839406 0.360651

loop_
_geom_bond_atom_site_label_1
_geom_bond_atom_site_label_2
_ccdc_geom_bond_type
C5    C42   S    
S4    O18   D    
C40   H18   S    
C19   C20   A    
S1    O11   S    
C12   O4    A    
C3    C6    S    
C26   H13   S    
C43   N3    T    
C28   H14   S    
C7    C8    T    
C38   S1    S    
C10   C22   A    
C12   O3    A    
C4    H21   S    
C26   C27   A    
O23   H26   S    
C30   C35   A    
C28   C29   A    
S1    O10   D    
C38   C42   S    
C9    C22   A    
C14   H7    S    
O26   H27   S    
O3    Zn1   S    
C15   C16   A    
O1    Zn1   S    
C11   C24   A    
C18   C19   A    
C7    C42   S    
S6    O24   D    
C1    O2    A    
C36   S4    S    
S2    O12   D    
C2    H2    S    
C6    C41   T    
O5    Zn1   S    
C35   S5    S    
C8    C12   S    
C37   H11   S    
C25   C32   A    
C16   C24   A    
C40   H17   S    
C13   C14   A    
C29   C31   A    
O8    Zn2   S    
C23   O5    A    
C11   H6    S    
C34   C41   S    
C1    O1    A    
C39   C42   S    
C4    H3    S    
C10   C21   A    
C23   O6    A    
S1    O9    D    
O7    Zn1   S    
C27   H15   S    
C39   C40   S    
O14   H23   S    
C38   H9    S    
C39   H16   S    
C25   S3    S    
C17   C21   A    
O11   H22   S    
C29   C30   A    
C2    C38   S    
C31   C32   A    
S3    O17   S    
C2    H1    S    
C16   C20   A    
O20   H25   S    
C17   C18   A    
C5    H19   S    
S6    O25   D    
C9    S2    S    
S2    O13   D    
S3    O16   D    
C3    C40   S    
S4    O20   S    
S5    O22   D    
O2    Zn2   S    
C3    C4    S    
C34   O7    A    
O17   H24   S    
C37   N1    A    
C33   H12   S    
C15   C17   A    
C22   H4    S    
C14   C15   A    
C26   N2    A    
C4    C5    S    
C39   S6    S    
C10   C23   S    
S5    O23   S    
N2    Zn2   S    
C32   C33   A    
C2    C3    S    
C20   H10   S    
C36   N1    A    
O6    Zn2   S    
C11   C13   A    
C33   C35   A    
C5    H20   S    
O4    Zn2   S    
S6    O26   S    
C30   N2    A    
C34   O8    A    
C13   H8    S    
C9    C18   A    
S2    O14   S    
S3    O15   D    
C1    C24   S    
S4    O19   D    
S5    O21   D    
C27   C28   A    
N1    Zn1   S    
C31   C36   A    
C19   C43   S    
C25   C37   A    
C21   H5    S    
