data_mof_unit_57043.cif
_audit_creation_date              2012-12-11T15:19:29-0500
_audit_creation_method            fapswitch 2.2
_symmetry_space_group_name_H-M    P1
_symmetry_Int_Tables_number       1
_space_group_crystal_system       triclinic
_cell_length_a                    19.969049
_cell_length_b                    6.881468
_cell_length_c                    18.182611
_cell_angle_alpha                 90.0
_cell_angle_beta                  104.099425
_cell_angle_gamma                 89.999757
_cell_volume                      2423.31710578

loop_
_atom_site_label
_atom_site_type_symbol
_atom_type_description
_atom_site_fract_x
_atom_site_fract_y
_atom_site_fract_z
_atom_type_partial_charge
O1    O     O_R   0.312200 0.620210 0.189560 -0.534515
O2    O     O_R   0.687800 0.379790 0.810440 -0.533662
O3    O     O_R   0.187800 0.120210 0.310440 -0.534514
O4    O     O_R   0.812200 0.879790 0.689560 -0.533664
O5    O     O_R   0.171590 0.286140 0.165000 -0.532963
O6    O     O_R   0.828410 0.713860 0.835000 -0.533767
O7    O     O_R   0.328410 0.786140 0.335000 -0.532964
O8    O     O_R   0.671590 0.213860 0.665000 -0.533767
C1    C     C_R   0.145697 0.459541 0.143782 0.705325
C2    C     C_R   0.854298 0.540458 0.856221 0.707925
C3    C     C_R   0.354303 0.959541 0.356218 0.705327
C4    C     C_R   0.645702 0.040459 0.643779 0.707926
O9    O     O_R   0.310670 0.290220 0.180540 -0.542233
O10   O     O_R   0.689330 0.709780 0.819460 -0.544168
O11   O     O_R   0.189330 0.790220 0.319460 -0.542235
O12   O     O_R   0.810670 0.209780 0.680540 -0.544168
O13   O     O_R   0.327870 0.124170 0.326080 -0.534154
O14   O     O_R   0.672130 0.875830 0.673920 -0.532602
O15   O     O_R   0.172130 0.624170 0.173920 -0.534154
O16   O     O_R   0.827870 0.375830 0.826080 -0.532602
C5    C     C_R   0.330043 0.459618 0.162958 0.710777
C6    C     C_R   0.668662 0.540616 0.835477 0.716443
C7    C     C_R   0.169956 0.959619 0.337041 0.710780
C8    C     C_R   0.831338 0.040615 0.664524 0.716441
O17   O     O_3   0.255480 0.455050 0.297740 -0.363365
O18   O     O_3   0.744520 0.544950 0.702260 -0.364179
O19   O     O_3   0.244520 0.955050 0.202260 -0.363363
O20   O     O_3   0.755480 0.044950 0.797740 -0.364178
V1    V     V_3+5 0.248980 0.178550 0.241140 1.422854
V2    V     V_3+5 0.751020 0.821450 0.758860 1.418528
V3    V     V_3+5 0.251020 0.678550 0.258860 1.422850
V4    V     V_3+5 0.748980 0.321450 0.741140 1.418528
C9    C     C_R   0.938346 0.141428 0.630609 -0.249883
C10   C     C_R   0.066667 0.851240 0.376390 -0.233724
C11   C     C_R   0.561651 0.641425 0.869386 -0.249888
C12   C     C_R   0.433333 0.351252 0.123609 -0.233713
C13   C     C_R   0.878562 0.030044 0.613100 -0.099990
C14   C     C_R   0.124638 0.969929 0.390859 -0.100271
C15   C     C_R   0.621438 0.530048 0.886899 -0.099993
C16   C     C_R   0.375358 0.469925 0.109136 -0.100261
C17   C     C_R   0.864104 0.913306 0.547316 0.123022
C18   C     C_R   0.138441 0.094287 0.454859 0.118655
C19   C     C_R   0.635894 0.413309 0.952683 0.123026
C20   C     C_R   0.361546 0.594253 0.045127 0.118636
C21   C     C_R   0.916809 0.883765 0.506765 0.026599
C22   C     C_R   0.087625 0.114835 0.498929 0.017278
C23   C     C_R   0.583187 0.383767 0.993232 0.026596
C24   C     C_R   0.412359 0.614794 0.001051 0.017295
C25   C     C_R   0.977354 0.002923 0.525001 -0.081801
C26   C     C_R   0.027827 0.991571 0.481770 -0.076961
C27   C     C_R   0.522640 0.502916 0.974991 -0.081801
C28   C     C_R   0.472165 0.491559 0.018220 -0.076953
C29   C     C_R   0.985780 0.139743 0.584714 0.059926
C30   C     C_R   0.018651 0.855626 0.421509 0.069507
C31   C     C_R   0.514211 0.639727 0.915274 0.059941
C32   C     C_R   0.481347 0.355631 0.078487 0.069520
C33   C     C_R   0.910670 0.741263 0.448553 0.278061
C34   C     C_R   0.093278 0.256505 0.557955 0.283372
C35   C     C_R   0.589327 0.241263 0.051442 0.278053
C36   C     C_R   0.406693 0.756421 0.942007 0.283386
C37   C     C_R   0.961489 0.726544 0.406351 0.108146
C38   C     C_R   0.040328 0.275986 0.597027 0.117494
C39   C     C_R   0.538509 0.226550 0.093646 0.108149
C40   C     C_R   0.459650 0.775931 0.902945 0.117487
H1    H     H_    0.946719 0.232235 0.680619 0.136932
H2    H     H_    0.059351 0.756468 0.327653 0.137587
H3    H     H_    0.553281 0.732229 0.819376 0.136934
H4    H     H_    0.440656 0.256499 0.172354 0.137578
C41   C     C_1   0.583209 0.027439 0.581556 -0.197190
C42   C     C_1   0.416791 0.972568 0.418449 -0.196227
C43   C     C_1   0.916791 0.527438 0.918444 -0.197190
C44   C     C_1   0.083209 0.472568 0.081550 -0.196224
C45   C     C_1   0.530869 0.010874 0.530171 0.004771
C46   C     C_1   0.469127 0.989137 0.469840 0.004697
C47   C     C_1   0.969131 0.510874 0.969829 0.004773
C48   C     C_1   0.030873 0.489137 0.030160 0.004700
C49   C     C_3   0.790176 0.844439 0.517133 -0.692628
H5    H     H_    0.752727 0.931536 0.539437 0.161892
H6    H     H_    0.773650 0.864901 0.454785 0.209882
H7    H     H_    0.784662 0.690797 0.533033 0.230963
C50   C     C_3   0.208900 0.191453 0.477100 -0.682542
H8    H     H_    0.246199 0.136889 0.445903 0.171395
H9    H     H_    0.203964 0.350476 0.467044 0.225754
H10   H     H_    0.234257 0.157164 0.536828 0.215510
C51   C     C_3   0.709822 0.344441 0.982869 -0.692639
H11   H     H_    0.747271 0.431537 0.960567 0.161893
H12   H     H_    0.726345 0.364904 0.045217 0.209875
H13   H     H_    0.715336 0.190798 0.966971 0.230972
C52   C     C_3   0.291087 0.691415 0.022890 -0.682547
H14   H     H_    0.253795 0.636876 0.054101 0.171401
H15   H     H_    0.296025 0.850444 0.032929 0.225737
H16   H     H_    0.265718 0.657090 0.963168 0.215530
N1    N     N_2   0.853826 0.609854 0.433342 -0.534686
H17   H     H_    0.827593 0.596750 0.377250 0.257151
C53   C     C_3   0.865300 0.429075 0.474936 -0.530828
H18   H     H_    0.816877 0.342765 0.462664 0.194434
H19   H     H_    0.880631 0.458573 0.536752 0.213048
H20   H     H_    0.906124 0.343044 0.458198 0.207467
N2    N     N_2   0.151168 0.383943 0.576785 -0.522274
H21   H     H_    0.140726 0.527945 0.562970 0.260753
C54   C     C_3   0.199220 0.350873 0.649576 -0.569990
H22   H     H_    0.248439 0.427193 0.650757 0.198474
H23   H     H_    0.210308 0.193237 0.658756 0.199064
H24   H     H_    0.178609 0.407434 0.696730 0.201903
N3    N     N_2   0.646167 0.109839 0.066647 -0.534686
H25   H     H_    0.672403 0.096730 0.122738 0.257151
C55   C     C_3   0.634684 0.929063 0.025052 -0.530820
H26   H     H_    0.683105 0.842741 0.037317 0.194435
H27   H     H_    0.619348 0.958565 0.963236 0.213051
H28   H     H_    0.593860 0.843040 0.041794 0.207463
N4    N     N_2   0.348776 0.883759 0.923137 -0.522271
H29   H     H_    0.359188 0.027795 0.936913 0.260742
C56   C     C_3   0.300747 0.850527 0.850345 -0.570014
H30   H     H_    0.251537 0.926980 0.849092 0.198461
H31   H     H_    0.289631 0.692885 0.841244 0.199058
H32   H     H_    0.321398 0.906827 0.803179 0.201937
C57   C     C_3   0.956172 0.570040 0.345862 -0.800654
H33   H     H_    0.949224 0.639010 0.289302 0.202060
H34   H     H_    0.003929 0.480558 0.358700 0.212455
H35   H     H_    0.913142 0.466492 0.341170 0.217672
C58   C     C_3   0.039554 0.448463 0.649337 -0.786043
H36   H     H_    0.052561 0.399292 0.709294 0.201925
H37   H     H_    0.075350 0.566855 0.643644 0.217616
H38   H     H_    0.987684 0.517194 0.635583 0.203986
C59   C     C_3   0.543827 0.070046 0.154137 -0.800648
H39   H     H_    0.550778 0.139015 0.210698 0.202055
H40   H     H_    0.496069 0.980568 0.141301 0.212455
H41   H     H_    0.586856 0.966492 0.158827 0.217671
C60   C     C_3   0.460412 0.948389 0.850623 -0.786100
H42   H     H_    0.447434 0.899179 0.790671 0.201916
H43   H     H_    0.424589 0.066739 0.856284 0.217614
H44   H     H_    0.512272 0.017182 0.864391 0.204006

loop_
_geom_bond_atom_site_label_1
_geom_bond_atom_site_label_2
_ccdc_geom_bond_type
C34   C38   A    
C4    C41   S    
O17   V3    S    
N1    H17   S    
O19   V1    S    
O13   V1    S    
C45   C46   S    
O12   C8    A    
O3    C7    A    
C53   H18   S    
C1    C44   S    
C44   C48   T    
O15   V3    S    
C10   H2    S    
C50   H8    S    
C3    C42   S    
C9    H1    S    
C51   H11   S    
O1    C5    A    
N3    C55   S    
C21   C33   A    
C35   N3    S    
O9    V1    S    
C14   C18   A    
C57   H34   S    
C17   C49   S    
O4    C8    A    
C49   H7    S    
O1    V3    S    
O2    V4    S    
C18   C22   A    
O3    V1    S    
C42   C46   T    
C12   C16   A    
C1    O15   A    
N4    H29   S    
C2    O16   A    
C58   H38   S    
O2    C6    A    
C59   H41   S    
C55   H26   S    
C41   C45   T    
O14   V2    S    
C21   C25   A    
C52   H15   S    
C16   C20   A    
C37   C57   S    
C56   H32   S    
C2    C43   S    
O11   C7    A    
C54   H23   S    
C33   N1    S    
C22   C34   A    
O17   V1    S    
C55   H27   S    
C18   C50   S    
O10   V2    S    
C50   H9    S    
O7    C3    A    
O5    V1    S    
C49   H6    S    
C9    C29   A    
C53   H20   S    
O7    V3    S    
C51   H12   S    
C11   C31   A    
C27   C28   A    
C19   C51   S    
C54   H22   S    
O20   V4    S    
C57   H35   S    
O18   V4    S    
C15   C19   A    
C49   H5    S    
O19   V3    S    
C9    C13   A    
O8    V4    S    
C11   C15   A    
C47   C48   S    
O5    C1    A    
C12   C32   A    
C29   C38   A    
N2    H21   S    
C11   H3    S    
O8    C4    A    
C31   C40   A    
C53   H19   S    
C8    C13   S    
C32   C39   A    
O9    C5    A    
N4    C56   S    
C26   C30   A    
C52   H16   S    
C33   C37   A    
C58   H36   S    
C39   C59   S    
N2    C54   S    
C10   C30   A    
C54   H24   S    
C59   H39   S    
C55   H28   S    
C50   H10   S    
C56   H30   S    
O16   V4    S    
C51   H13   S    
C3    O13   A    
O6    V2    S    
C10   C14   A    
C34   N2    S    
O6    C2    A    
C23   C27   A    
C12   H4    S    
O11   V3    S    
C30   C37   A    
O12   V4    S    
C7    C14   S    
N3    H25   S    
C22   C26   A    
C35   C39   A    
C36   C40   A    
C60   H44   S    
O20   V2    S    
C60   H42   S    
C36   N4    S    
C24   C36   A    
C43   C47   T    
O10   C6    A    
C5    C16   S    
C25   C29   A    
C6    C15   S    
C27   C31   A    
C13   C17   A    
C58   H37   S    
C23   C35   A    
C28   C32   A    
C24   C28   A    
C40   C60   S    
N1    C53   S    
C25   C26   A    
C4    O14   A    
C59   H40   S    
C17   C21   A    
C56   H31   S    
C52   H14   S    
C57   H33   S    
C19   C23   A    
C38   C58   S    
O4    V2    S    
C20   C52   S    
C20   C24   A    
C60   H43   S    
O18   V2    S    
