data_mof_unit_18825.cif
_audit_creation_date              2012-12-10T17:41:47-0500
_audit_creation_method            fapswitch 2.2
_symmetry_space_group_name_H-M    P1
_symmetry_Int_Tables_number       1
_space_group_crystal_system       triclinic
_cell_length_a                    13.784509
_cell_length_b                    13.907163
_cell_length_c                    15.134479
_cell_angle_alpha                 88.927609
_cell_angle_beta                  89.47966
_cell_angle_gamma                 86.392966
_cell_volume                      2894.98578741

loop_
_atom_site_label
_atom_site_type_symbol
_atom_type_description
_atom_site_fract_x
_atom_site_fract_y
_atom_site_fract_z
_atom_type_partial_charge
C1    C     C_R   0.500343 0.501982 0.329003 0.827382
C2    C     C_R   0.499681 0.500060 0.670977 0.834291
C3    C     C_R   0.501032 0.502620 0.953232 0.040423
C4    C     C_R   0.502291 0.502878 0.046699 0.042665
C5    C     C_R   0.514641 0.414676 0.908528 0.074794
C6    C     C_R   0.476924 0.588898 0.091776 0.075152
C7    C     C_R   0.469431 0.676314 0.951225 -0.213775
C8    C     C_R   0.550252 0.331721 0.047968 -0.217401
C9    C     C_R   0.459843 0.674997 0.042585 -0.210503
C10   C     C_R   0.539066 0.329696 0.957139 -0.209122
C11   C     C_R   0.792276 0.554014 0.437551 0.299109
C12   C     C_R   0.207720 0.443941 0.560858 0.295440
C13   C     C_R   0.795948 0.449805 0.563862 -0.020336
C14   C     C_R   0.203759 0.550607 0.436728 -0.020067
C15   C     C_R   0.898117 0.453181 0.567723 -0.041103
C16   C     C_R   0.101765 0.546067 0.432139 -0.040260
C17   C     C_R   0.948420 0.498200 0.498646 0.011159
C18   C     C_R   0.051491 0.500470 0.500865 0.012130
C19   C     C_R   0.895611 0.541616 0.427782 -0.002579
C20   C     C_R   0.104482 0.456192 0.571162 0.002763
C21   C     C_R   0.950178 0.415947 0.640912 -0.214893
C22   C     C_R   0.050020 0.582154 0.358407 -0.215705
C23   C     C_R   0.514842 0.317254 0.499251 0.849950
C24   C     C_R   0.485319 0.682727 0.498448 0.845798
C25   C     C_R   0.051626 0.421700 0.645774 0.189234
C26   C     C_R   0.948851 0.574959 0.352890 0.187510
C27   C     C_1   0.477610 0.785182 0.492044 -0.128633
C28   C     C_1   0.523458 0.214908 0.493615 -0.131302
C29   C     C_2   0.459907 0.975092 0.478961 -0.051846
C30   C     C_2   0.540904 0.025770 0.477301 -0.058249
C31   C     C_1   0.532555 0.128861 0.487077 -0.044470
C32   C     C_1   0.469450 0.871455 0.485758 -0.036722
C33   C     C_R   0.504835 0.413684 0.816142 -0.084910
C34   C     C_R   0.468833 0.586797 0.184730 -0.090127
C35   C     C_R   0.499328 0.501161 0.767678 -0.149022
C36   C     C_R   0.501841 0.502931 0.232301 -0.152488
C37   C     C_R   0.495866 0.589778 0.811690 -0.079838
C38   C     C_R   0.537187 0.419757 0.187335 -0.082786
C39   C     C_R   0.487805 0.590339 0.904846 0.075689
C40   C     C_R   0.529650 0.417294 0.094520 0.073781
Cu1   Cu    Cu3+1 0.597420 0.500010 0.499990 0.942510
Cu2   Cu    Cu3+1 0.402580 0.499990 0.500010 0.950044
H1    H     H_    0.459384 0.745419 0.917825 0.159651
H2    H     H_    0.572879 0.264616 0.080943 0.161976
H3    H     H_    0.441866 0.742986 0.074165 0.163155
H4    H     H_    0.553130 0.261212 0.925128 0.164105
H5    H     H_    0.757535 0.411426 0.614772 0.130746
H6    H     H_    0.241967 0.589794 0.386782 0.146253
H7    H     H_    0.911073 0.386968 0.696879 0.141404
H8    H     H_    0.089277 0.610614 0.302324 0.136705
N1    N     N_R   0.743820 0.499960 0.499930 -0.181178
N2    N     N_R   0.256180 0.500040 0.500070 -0.182719
O1    O     O_R   0.582280 0.500030 0.370250 -0.590161
O2    O     O_R   0.417720 0.499970 0.629750 -0.583029
O3    O     O_R   0.417740 0.500020 0.370270 -0.583448
O4    O     O_R   0.582260 0.499980 0.629730 -0.593001
O5    O     O_R   0.593900 0.362160 0.500010 -0.571285
O6    O     O_R   0.406100 0.637840 0.499990 -0.571543
O7    O     O_R   0.429360 0.362150 0.500030 -0.586190
O8    O     O_R   0.570640 0.637850 0.499970 -0.582889
C41   C     C_R   0.640066 0.978980 0.464734 0.146773
C42   C     C_R   0.712110 0.986714 0.528756 -0.159132
C43   C     C_R   0.806119 0.945653 0.514974 -0.148390
C44   C     C_R   0.829566 0.898230 0.436359 -0.114868
C45   C     C_R   0.758910 0.891649 0.371591 -0.165700
C46   C     C_R   0.664403 0.930822 0.386004 -0.156265
H9    H     H_    0.695575 0.023509 0.589591 0.106754
H10   H     H_    0.860967 0.951178 0.565034 0.124222
H11   H     H_    0.902536 0.867091 0.425404 0.129273
H12   H     H_    0.777391 0.856480 0.309966 0.128161
H13   H     H_    0.611328 0.926202 0.334575 0.111411
C47   C     C_R   0.359660 0.022501 0.478626 0.140334
C48   C     C_R   0.289054 0.992998 0.539254 -0.152921
C49   C     C_R   0.195649 0.038479 0.539886 -0.150534
C50   C     C_R   0.171279 0.112834 0.479245 -0.117588
C51   C     C_R   0.239882 0.140947 0.417048 -0.150826
C52   C     C_R   0.333296 0.095600 0.416117 -0.152141
H14   H     H_    0.306207 0.935269 0.586391 0.122034
H15   H     H_    0.142097 0.016003 0.587435 0.124280
H16   H     H_    0.099036 0.148159 0.480019 0.128130
H17   H     H_    0.220661 0.197847 0.369430 0.132739
H18   H     H_    0.384901 0.117399 0.366449 0.122088
C53   C     C_R   0.498002 0.321065 0.771280 0.098218
C54   C     C_R   0.410264 0.275075 0.774765 -0.170261
C55   C     C_R   0.404890 0.183837 0.738909 -0.139379
C56   C     C_R   0.487760 0.137156 0.702042 -0.098091
C57   C     C_R   0.575865 0.182003 0.700296 -0.150614
C58   C     C_R   0.580884 0.274285 0.733825 -0.156351
H19   H     H_    0.346244 0.310010 0.805178 0.134213
H20   H     H_    0.336823 0.149024 0.740355 0.130497
H21   H     H_    0.483164 0.066718 0.674317 0.122449
H22   H     H_    0.640332 0.145940 0.672655 0.121325
H23   H     H_    0.649499 0.308223 0.732675 0.122697
C59   C     C_R   0.420278 0.670167 0.230614 0.119007
C60   C     C_R   0.319131 0.673566 0.242979 -0.132604
C61   C     C_R   0.269816 0.756199 0.276279 -0.163866
C62   C     C_R   0.320797 0.836912 0.294863 -0.089880
C63   C     C_R   0.421168 0.834773 0.280709 -0.135795
C64   C     C_R   0.471486 0.751056 0.250435 -0.194695
H24   H     H_    0.278400 0.612643 0.225544 0.119519
H25   H     H_    0.191864 0.758307 0.286116 0.122069
H26   H     H_    0.282426 0.901511 0.319208 0.137097
H27   H     H_    0.459366 0.898592 0.292608 0.121717
H28   H     H_    0.549168 0.750568 0.238861 0.125666
C65   C     C_R   0.513977 0.679615 0.761657 0.098159
C66   C     C_R   0.439852 0.752201 0.748593 -0.172616
C67   C     C_R   0.462172 0.841401 0.712424 -0.151621
C68   C     C_R   0.557373 0.856911 0.685754 -0.103775
C69   C     C_R   0.630434 0.783404 0.694649 -0.135019
C70   C     C_R   0.609109 0.695231 0.733269 -0.111536
H29   H     H_    0.366194 0.741163 0.770175 0.132298
H30   H     H_    0.406069 0.898896 0.706198 0.119379
H31   H     H_    0.574597 0.925552 0.657589 0.122894
H32   H     H_    0.703882 0.795420 0.673193 0.133227
H33   H     H_    0.667045 0.639799 0.742871 0.131617
C71   C     C_R   0.586612 0.337685 0.236575 0.107834
C72   C     C_R   0.540869 0.251269 0.250378 -0.195632
C73   C     C_R   0.593053 0.170740 0.286424 -0.142910
C74   C     C_R   0.689346 0.177414 0.312885 -0.103678
C75   C     C_R   0.734103 0.264221 0.302078 -0.137362
C76   C     C_R   0.683416 0.343820 0.262964 -0.084267
H34   H     H_    0.466465 0.245306 0.229826 0.129607
H35   H     H_    0.558653 0.103265 0.293997 0.125744
H36   H     H_    0.729565 0.115458 0.341534 0.149268
H37   H     H_    0.808630 0.269318 0.322489 0.126881
H38   H     H_    0.719857 0.409863 0.252141 0.125153
C77   C     C_3   0.741639 0.644400 0.398512 -0.777194
H39   H     H_    0.682137 0.629431 0.353561 0.240376
H40   H     H_    0.716524 0.692218 0.452751 0.248538
H41   H     H_    0.791286 0.689905 0.361719 0.199598
C78   C     C_3   0.258064 0.351900 0.596340 -0.772336
H42   H     H_    0.319545 0.366423 0.638826 0.256706
H43   H     H_    0.281111 0.305950 0.540103 0.245706
H44   H     H_    0.209870 0.305188 0.633846 0.200985
C79   C     C_3   0.096916 0.402955 0.735439 -0.907947
H45   H     H_    0.171499 0.428235 0.738795 0.243628
H46   H     H_    0.053301 0.443277 0.786319 0.236804
H47   H     H_    0.097915 0.324934 0.752633 0.227969
C80   C     C_3   0.904551 0.590660 0.262465 -0.914500
H48   H     H_    0.830423 0.564303 0.259070 0.239163
H49   H     H_    0.902869 0.668251 0.243457 0.229081
H50   H     H_    0.949264 0.549380 0.212951 0.236766

loop_
_geom_bond_atom_site_label_1
_geom_bond_atom_site_label_2
_ccdc_geom_bond_type
C2    C35   S    
C79   H47   S    
C57   C58   A    
C9    H3    S    
C20   C25   A    
C12   C78   S    
Cu1   Cu2   S    
C60   C61   A    
C24   C27   S    
C65   C70   A    
C78   H44   S    
Cu2   O6    S    
C6    C9    A    
C21   H7    S    
C62   C63   A    
C79   H45   S    
C74   H36   S    
C71   C72   A    
C23   O7    A    
C11   C19   A    
C29   C30   D    
C42   H9    S    
C53   C54   A    
C52   H18   S    
C35   C37   A    
C29   C32   S    
C56   H21   S    
C72   H34   S    
C30   C31   S    
C80   H50   S    
C66   C67   A    
C63   H27   S    
C68   C69   A    
C79   H46   S    
C48   C49   A    
C19   C26   A    
C1    O1    A    
C73   C74   A    
C47   C52   A    
C17   C19   A    
C13   N1    A    
C41   C46   A    
C14   N2    A    
C4    C40   A    
C5    C33   A    
C10   H4    S    
C67   C68   A    
C7    H1    S    
C50   H16   S    
C18   C20   A    
C62   H26   S    
C24   O8    A    
C22   H8    S    
C29   C47   S    
C53   C58   A    
C3    C39   A    
C57   H22   S    
C41   C42   A    
C12   N2    A    
C66   H29   S    
C80   H48   S    
C49   C50   A    
C8    H2    S    
C51   C52   A    
C4    C6    A    
C26   C80   S    
C2    O2    A    
C13   H5    S    
C58   H23   S    
C56   C57   A    
C14   H6    S    
C3    C5    A    
C55   C56   A    
C6    C34   A    
C68   H31   S    
Cu2   O7    S    
C11   C77   S    
C50   C51   A    
C77   H40   S    
Cu1   O4    S    
C37   C65   S    
C42   C43   A    
Cu2   O3    S    
C38   C71   S    
C46   H13   S    
C15   C21   A    
C48   H14   S    
C61   C62   A    
C12   C20   A    
C17   C18   A    
C67   H30   S    
C23   C28   S    
C54   C55   A    
C74   C75   A    
C33   C53   S    
Cu1   O1    S    
C69   H32   S    
C23   O5    A    
C24   O6    A    
C45   C46   A    
C49   H15   S    
C13   C15   A    
C14   C16   A    
C54   H19   S    
C3    C4    A    
C75   C76   A    
C15   C17   A    
C21   C25   A    
C43   H10   S    
C16   C22   A    
C27   C32   T    
C60   H24   S    
C28   C31   T    
C34   C59   S    
Cu1   O8    S    
C47   C48   A    
C78   H43   S    
C16   C18   A    
C51   H17   S    
C55   H20   S    
C77   H39   S    
C44   H11   S    
C65   C66   A    
C44   C45   A    
C36   C38   A    
C1    O3    A    
C77   H41   S    
Cu1   O5    S    
C76   H38   S    
C37   C39   A    
C2    O4    A    
C72   C73   A    
Cu2   O2    S    
C38   C40   A    
C80   H49   S    
C59   C64   A    
C33   C35   A    
C64   H28   S    
C34   C36   A    
C73   H35   S    
C75   H37   S    
C59   C60   A    
C25   C79   S    
C11   N1    A    
C43   C44   A    
C7    C9    A    
C5    C10   A    
C8    C10   A    
C63   C64   A    
C22   C26   A    
C30   C41   S    
C69   C70   A    
C7    C39   A    
C71   C76   A    
C8    C40   A    
C45   H12   S    
C61   H25   S    
C70   H33   S    
Cu1   N1    S    
C78   H42   S    
C1    C36   S    
Cu2   N2    S    
