data_mof_unit_36805.cif
_audit_creation_date              2012-12-10T17:49:38-0500
_audit_creation_method            fapswitch 2.2
_symmetry_space_group_name_H-M    P1
_symmetry_Int_Tables_number       1
_space_group_crystal_system       triclinic
_cell_length_a                    10.499278
_cell_length_b                    10.646375
_cell_length_c                    9.998713
_cell_angle_alpha                 91.160939
_cell_angle_beta                  89.457408
_cell_angle_gamma                 92.311971
_cell_volume                      1116.46775399

loop_
_atom_site_label
_atom_site_type_symbol
_atom_type_description
_atom_site_fract_x
_atom_site_fract_y
_atom_site_fract_z
_atom_type_partial_charge
C1    C     C_R   0.498681 0.260693 0.498960 0.879333
C2    C     C_3   0.962566 0.609501 0.455408 -0.198226
C3    C     C_3   0.042973 0.516051 0.374391 -0.124389
C4    C     C_3   0.122123 0.498525 0.500068 0.044691
C5    C     C_R   0.280666 0.123643 0.609781 -0.204602
C6    C     C_R   0.182265 0.057135 0.674951 -0.145449
C7    C     C_R   0.187748 0.927805 0.687728 -0.136862
C8    C     C_R   0.290047 0.864521 0.632370 -0.189121
C9    C     C_R   0.391344 0.931317 0.567342 0.091192
C10   C     C_R   0.388187 0.062246 0.559805 0.119653
C11   C     C_R   0.490945 0.127730 0.497260 -0.105548
C12   C     C_R   0.257582 0.499347 0.500269 0.852325
C13   C     C_R   0.590374 0.066307 0.434979 -0.250016
C14   C     C_R   0.590953 0.937738 0.437112 -0.211886
C15   C     C_R   0.493764 0.871384 0.504292 -0.099954
C16   C     C_R   0.294455 0.372518 0.131652 0.527289
C17   C     C_R   0.181192 0.351120 0.059557 -0.298990
C18   C     C_R   0.186890 0.346867 0.921647 -0.283904
C19   C     C_R   0.301306 0.378032 0.858382 -0.140349
C20   C     C_R   0.401162 0.440537 0.927095 0.108734
C21   C     C_R   0.399985 0.439235 0.070718 0.046081
C22   C     C_R   0.594982 0.557743 0.071611 -0.118912
C23   C     C_R   0.499209 0.739127 0.501291 0.852374
C24   C     C_R   0.594990 0.557592 0.929099 -0.107154
C25   C     C_R   0.742173 0.499383 0.499633 0.848127
C26   C     C_3   0.036511 0.387280 0.543897 -0.191347
C27   C     C_3   0.954800 0.404703 0.418544 -0.167008
C28   C     C_3   0.877215 0.498253 0.499386 0.035008
C29   C     C_3   0.956161 0.480598 0.624828 -0.139544
C30   C     C_3   0.044123 0.591828 0.580768 -0.175628
H1    H     H_    0.914128 0.328502 0.352442 0.124927
H2    H     H_    0.111107 0.876290 0.738148 0.126512
H3    H     H_    0.288061 0.763585 0.640151 0.152954
H4    H     H_    0.668455 0.889711 0.388415 0.145118
H5    H     H_    0.672723 0.605427 0.124757 0.140599
H6    H     H_    0.096071 0.313931 0.108789 0.155344
H7    H     H_    0.106713 0.308374 0.864754 0.165846
H8    H     H_    0.312243 0.348289 0.757744 0.208396
H9    H     H_    0.672816 0.605164 0.876495 0.140495
H10   H     H_    0.067641 0.296260 0.580547 0.116966
H11   H     H_    0.917472 0.465988 0.727341 0.142375
H12   H     H_    0.082666 0.666531 0.649242 0.128359
H13   H     H_    0.928000 0.699929 0.419382 0.127289
H14   H     H_    0.081855 0.531079 0.272083 0.144571
H15   H     H_    0.668034 0.118244 0.386110 0.146675
H16   H     H_    0.269619 0.221960 0.592349 0.116620
H17   H     H_    0.100671 0.105539 0.713670 0.124140
N1    N     N_R   0.498800 0.498800 0.142780 -0.108215
N2    N     N_R   0.498760 0.498720 0.857170 -0.107962
O1    O     O_R   0.500000 0.316780 0.614690 -0.635614
O2    O     O_R   0.499990 0.316750 0.385360 -0.570972
O3    O     O_R   0.313960 0.499980 0.614650 -0.657937
O4    O     O_R   0.313940 0.499960 0.385310 -0.579482
O5    O     O_R   0.500010 0.683250 0.614640 -0.616678
O6    O     O_R   0.500000 0.683220 0.385310 -0.616402
O7    O     O_R   0.686060 0.500040 0.614690 -0.626528
O8    O     O_R   0.686040 0.500020 0.385350 -0.629749
Zn1   Zn    Zn3+2 0.500010 0.500020 0.653130 0.933035
Zn2   Zn    Zn3+2 0.499990 0.499980 0.346870 0.970072
O9    O     O_3   0.309612 0.300476 0.242913 -0.608164
C31   C     C_3   0.313683 0.170732 0.204837 0.083839
H18   H     H_    0.400167 0.132358 0.248013 0.182363
H19   H     H_    0.323056 0.152191 0.094771 0.124778
C32   C     C_3   0.195974 0.097514 0.258582 -0.374135
H20   H     H_    0.180637 0.122362 0.365429 0.238376
H21   H     H_    0.109912 0.122990 0.203488 0.204629
C33   C     C_3   0.210191 0.955760 0.243489 -0.924026
H22   H     H_    0.218891 0.928514 0.136061 0.262413
H23   H     H_    0.125002 0.905618 0.286500 0.258493
H24   H     H_    0.295842 0.926439 0.297018 0.274761

loop_
_geom_bond_atom_site_label_1
_geom_bond_atom_site_label_2
_ccdc_geom_bond_type
C14   H4    S    
C31   C32   S    
C22   N1    A    
C23   O6    A    
C16   C21   A    
C17   H6    S    
O6    Zn2   S    
C4    C12   S    
C29   C30   S    
C1    O2    A    
C5    H16   S    
C4    C26   S    
C19   C20   A    
C1    C11   S    
C25   O7    A    
C2    H13   S    
C2    C30   S    
C21   N1    A    
C32   H20   S    
C33   H24   S    
C3    C27   S    
C17   C18   A    
O4    Zn2   S    
C4    C30   S    
C7    C8    A    
C13   C14   A    
C25   C28   S    
C13   H15   S    
C22   H5    S    
C11   C13   A    
C26   H10   S    
C26   C27   S    
C20   N2    A    
C12   O4    A    
O3    Zn1   S    
N1    Zn2   S    
C16   O9    S    
C5    C6    A    
C15   C23   S    
C28   C29   S    
C12   O3    A    
C18   H7    S    
O7    Zn1   S    
C1    O1    A    
C2    C3    S    
C6    C7    A    
C8    H3    S    
O5    Zn1   S    
C31   H18   S    
C16   C17   A    
C22   C24   A    
C3    H14   S    
O8    Zn2   S    
O2    Zn2   S    
C10   C11   A    
C27   H1    S    
C33   H22   S    
O1    Zn1   S    
C32   C33   S    
C6    H17   S    
C25   O8    A    
C5    C10   A    
C24   H9    S    
C20   C21   A    
C26   C29   S    
C23   O5    A    
C9    C10   A    
C33   H23   S    
C24   N2    A    
C31   H19   S    
C19   H8    S    
C18   C19   A    
C2    C28   S    
C7    H2    S    
C29   H11   S    
C14   C15   A    
O9    C31   S    
C30   H12   S    
N2    Zn1   S    
C3    C4    S    
C9    C15   A    
C8    C9    A    
C27   C28   S    
C32   H21   S    
