data_mof_unit_51496.cif
_audit_creation_date              2012-12-10T17:18:55-0500
_audit_creation_method            fapswitch 2.2
_symmetry_space_group_name_H-M    P1
_symmetry_Int_Tables_number       1
_space_group_crystal_system       triclinic
_cell_length_a                    10.253981
_cell_length_b                    10.834519
_cell_length_c                    13.382494
_cell_angle_alpha                 92.259716
_cell_angle_beta                  98.918294
_cell_angle_gamma                 95.718177
_cell_volume                      1459.19238615

loop_
_atom_site_label
_atom_site_type_symbol
_atom_type_description
_atom_site_fract_x
_atom_site_fract_y
_atom_site_fract_z
_atom_type_partial_charge
C1    C     C_R   0.052006 0.732029 0.491039 0.942491
C2    C     C_2   0.999464 0.063404 0.469130 -0.150535
C3    C     C_2   0.429914 0.510633 0.507868 -0.036244
C4    C     C_2   0.570088 0.489367 0.492128 -0.037444
C5    C     C_R   0.092453 0.515744 0.686954 0.891334
C6    C     C_R   0.907517 0.484140 0.313058 0.885882
C7    C     C_R   0.140913 0.531433 0.796726 -0.138687
C8    C     C_R   0.858922 0.467884 0.203349 -0.136050
C9    C     C_R   0.143873 0.617070 0.968491 0.109826
C10   C     C_R   0.855796 0.381377 0.031828 0.109610
C11   C     C_R   0.080386 0.598986 0.866666 0.174267
C12   C     C_R   0.945900 0.267538 0.503819 0.943232
C13   C     C_R   0.919304 0.399834 0.133625 0.174793
C14   C     C_R   0.260110 0.483738 0.829152 -0.311843
C15   C     C_R   0.739627 0.515337 0.170814 -0.311878
C16   C     C_R   0.333006 0.515042 0.924916 0.071967
C17   C     C_R   0.666541 0.483267 0.075241 0.071822
C18   C     C_R   0.270723 0.575809 0.997412 0.086097
C19   C     C_R   0.728811 0.422293 0.002864 0.085734
C20   C     C_R   0.466425 0.486989 0.949748 0.094767
C21   C     C_R   0.533015 0.510950 0.050458 0.095143
C22   C     C_3   0.048557 0.345860 0.167037 -0.853723
C23   C     C_R   0.462583 0.558180 0.123986 -0.228475
C24   C     C_3   0.950920 0.652725 0.833476 -0.852989
C25   C     C_3   0.668666 0.653369 0.612340 -0.666714
C26   C     C_3   0.331324 0.346672 0.387617 -0.668073
C27   C     C_R   0.536787 0.439363 0.876321 -0.228030
C28   C     C_R   0.336148 0.593195 0.097376 -0.244680
C29   C     C_R   0.663232 0.404369 0.902990 -0.244357
C30   C     C_2   0.078126 0.862969 0.477494 -0.386121
C31   C     C_2   0.911731 0.134904 0.497703 -0.385590
C32   C     C_2   0.976534 0.931523 0.472403 -0.148225
H1    H     H_    0.290170 0.632949 0.156815 0.147827
H2    H     H_    0.178315 0.903412 0.473040 0.149549
H3    H     H_    0.583349 0.416125 0.438338 0.144315
H4    H     H_    0.416656 0.583864 0.561667 0.143859
H5    H     H_    0.128630 0.421753 0.194144 0.245465
H6    H     H_    0.035982 0.281664 0.228266 0.230007
H7    H     H_    0.082430 0.291716 0.105803 0.256414
H8    H     H_    0.871075 0.576723 0.806058 0.245208
H9    H     H_    0.916772 0.706283 0.894912 0.256373
H10   H     H_    0.963328 0.717388 0.772536 0.231311
H11   H     H_    0.066230 0.624636 0.099262 0.193048
H12   H     H_    0.709119 0.364252 0.843652 0.147700
H13   H     H_    0.143625 0.761826 0.069750 0.182298
H14   H     H_    0.932988 0.373712 0.900861 0.192856
H15   H     H_    0.856809 0.236318 0.931056 0.182182
H16   H     H_    0.769665 0.698201 0.642235 0.237448
H17   H     H_    0.610619 0.725472 0.575907 0.184689
H18   H     H_    0.623893 0.616148 0.676992 0.189497
H19   H     H_    0.230328 0.301851 0.357714 0.233450
H20   H     H_    0.376088 0.383934 0.322975 0.189694
H21   H     H_    0.389371 0.274545 0.424009 0.185642
H22   H     H_    0.704343 0.577372 0.222939 0.171586
H23   H     H_    0.295415 0.422099 0.776771 0.172239
H24   H     H_    0.501537 0.568516 0.203736 0.146832
H25   H     H_    0.497810 0.428560 0.796613 0.147151
H26   H     H_    0.093513 0.102075 0.449195 0.185943
H27   H     H_    0.876138 0.891539 0.477072 0.189976
H28   H     H_    0.817949 0.095796 0.517623 0.148884
N1    N     N_2   0.322180 0.446120 0.460900 -0.046350
N2    N     N_2   0.677820 0.553880 0.539100 -0.047625
N3    N     N_3   0.081238 0.682199 0.040396 -0.467602
N4    N     N_3   0.918649 0.316389 0.959985 -0.467780
O1    O     O_R   0.935190 0.693030 0.507870 -0.608449
O2    O     O_R   0.064810 0.306970 0.492130 -0.606675
O3    O     O_R   0.142080 0.658430 0.482770 -0.612914
O4    O     O_R   0.857920 0.341570 0.517230 -0.612881
O5    O     O_R   0.969700 0.527180 0.651960 -0.603278
O6    O     O_R   0.030300 0.472820 0.348040 -0.605749
O7    O     O_R   0.176600 0.492580 0.626860 -0.611607
O8    O     O_R   0.823400 0.507420 0.373140 -0.613991
Zn1   Zn    Zn3+2 0.861850 0.523100 0.516760 0.932539
Zn2   Zn    Zn3+2 0.138150 0.476900 0.483240 0.933611

loop_
_geom_bond_atom_site_label_1
_geom_bond_atom_site_label_2
_ccdc_geom_bond_type
C31   H28   S    
O6    Zn2   S    
O7    Zn2   S    
C7    C11   A    
C2    H26   S    
N2    Zn1   S    
O5    Zn1   S    
C8    C13   A    
C25   H18   S    
C20   C27   A    
C26   H20   S    
N1    Zn2   S    
C27   C29   A    
O2    Zn2   S    
C24   H10   S    
C9    C18   A    
C1    O1    A    
C12   C31   S    
C10   C19   A    
C16   C20   A    
C10   N4    S    
C21   C23   A    
C14   H23   S    
C4    H3    S    
H11   N3    S    
C23   H24   S    
C5    O7    A    
O3    Zn2   S    
C9    N3    S    
C26   H19   S    
C30   C32   D    
C24   H9    S    
C12   O4    A    
C25   H16   S    
C9    C11   A    
C12   O2    A    
C3    H4    S    
C22   H7    S    
C2    C31   D    
C16   C18   A    
C1    C30   S    
C1    O3    A    
C26   N1    S    
C13   C22   S    
C8    C15   A    
C25   H17   S    
C25   N2    S    
C3    N1    D    
C29   H12   S    
C14   C16   A    
C28   H1    S    
C15   C17   A    
C3    C4    S    
C19   C29   A    
C15   H22   S    
C4    N2    D    
C11   C24   S    
C26   H21   S    
C18   C28   A    
C20   C21   A    
C2    C32   S    
C27   H25   S    
O1    Zn1   S    
H15   N4    S    
C6    O6    A    
C30   H2    S    
C5    C7    S    
C24   H8    S    
C6    C8    S    
C32   H27   S    
C17   C19   A    
O4    Zn1   S    
C23   C28   A    
C22   H5    S    
C5    O5    A    
H13   N3    S    
C7    C14   A    
C17   C21   A    
H14   N4    S    
O8    Zn1   S    
C6    O8    A    
C10   C13   A    
C22   H6    S    
