data_mof_unit_38964.cif
_audit_creation_date              2012-12-10T16:48:11-0500
_audit_creation_method            fapswitch 2.2
_symmetry_space_group_name_H-M    P1
_symmetry_Int_Tables_number       1
_space_group_crystal_system       triclinic
_cell_length_a                    15.811403
_cell_length_b                    8.681455
_cell_length_c                    7.515221
_cell_angle_alpha                 103.037505
_cell_angle_beta                  94.974958
_cell_angle_gamma                 93.048131
_cell_volume                      998.390819618

loop_
_atom_site_label
_atom_site_type_symbol
_atom_type_description
_atom_site_fract_x
_atom_site_fract_y
_atom_site_fract_z
_atom_type_partial_charge
C1    C     C_R   0.495835 0.199874 0.453442 0.861755
C2    C     C_R   0.502129 0.800119 0.546821 0.842407
C3    C     C_R   0.340034 0.499362 0.500945 0.793326
C4    C     C_R   0.659972 0.500291 0.498981 0.794374
C5    C     C_2   0.490766 0.031658 0.428365 -0.390624
C6    C     C_2   0.503660 0.968417 0.572945 -0.362324
C7    C     C_3   0.963965 0.356630 0.402856 -0.154974
C8    C     C_3   0.036010 0.638646 0.596786 -0.159749
C9    C     C_3   0.021020 0.472080 0.326712 -0.158779
C10   C     C_3   0.978979 0.523195 0.672941 -0.160960
C11   C     C_1   0.250307 0.498655 0.502928 -0.189816
C12   C     C_1   0.749679 0.499375 0.496739 -0.161158
C13   C     C_3   0.027356 0.381996 0.577799 -0.164921
C14   C     C_3   0.972665 0.613272 0.421855 -0.160469
C15   C     C_3   0.082801 0.497468 0.501649 0.197394
C16   C     C_3   0.917177 0.497847 0.498003 0.194710
C17   C     C_1   0.174611 0.497914 0.503047 -0.077431
C18   C     C_1   0.825356 0.498564 0.496579 -0.076440
Cu1   Cu    Cu3+1 0.509330 0.517380 0.684380 1.022063
Cu2   Cu    Cu3+1 0.490670 0.482620 0.315620 0.997078
H1    H     H_    0.039758 0.451067 0.184677 0.125193
H2    H     H_    0.960315 0.544118 0.815015 0.127874
H3    H     H_    0.932897 0.241004 0.323213 0.129305
H4    H     H_    0.067064 0.754314 0.676384 0.128023
H5    H     H_    0.948764 0.708083 0.357770 0.126616
H6    H     H_    0.051291 0.287156 0.641777 0.131674
H7    H     H_    0.476300 0.959593 0.289758 0.158560
H8    H     H_    0.516498 0.040674 0.712123 0.195440
N1    N     N_2   0.476600 0.456420 0.038510 0.119828
N2    N     N_2   0.523400 0.543580 0.961490 0.139810
O1    O     O_R   0.506070 0.286130 0.619780 -0.522809
O2    O     O_R   0.493930 0.713870 0.380220 -0.588492
O3    O     O_R   0.490300 0.256770 0.308360 -0.606718
O4    O     O_R   0.509700 0.743230 0.691640 -0.616478
O5    O     O_R   0.386960 0.514660 0.655680 -0.562043
O6    O     O_R   0.613040 0.485340 0.344320 -0.526493
O7    O     O_R   0.371190 0.485310 0.344260 -0.630550
O8    O     O_R   0.628810 0.514690 0.655740 -0.576680
O9    O     O_3   0.431155 0.336671 0.915750 -0.506213
C19   C     C_3   0.352383 0.307302 0.978877 0.174907
H9    H     H_    0.319872 0.419243 0.015423 0.149547
H10   H     H_    0.360975 0.249979 0.096214 0.166391
C20   C     C_3   0.296075 0.192160 0.824763 -0.390305
H11   H     H_    0.289249 0.242505 0.701324 0.227758
H12   H     H_    0.326582 0.078327 0.787681 0.220816
C21   C     C_3   0.207800 0.160143 0.882327 -0.952874
H13   H     H_    0.212816 0.107250 0.004008 0.257525
H14   H     H_    0.168681 0.075904 0.767853 0.256041
H15   H     H_    0.175421 0.272067 0.915990 0.255984
O10   O     O_3   0.596217 0.609036 0.063339 -0.490389
C22   C     C_3   0.599986 0.774861 0.081017 0.185274
H16   H     H_    0.610084 0.831009 0.229921 0.139655
H17   H     H_    0.540473 0.819069 0.026834 0.124986
C23   C     C_3   0.676747 0.830380 0.994594 -0.379805
H18   H     H_    0.735167 0.782930 0.048197 0.218947
H19   H     H_    0.667778 0.786181 0.843632 0.240844
C24   C     C_3   0.688948 0.011200 0.038214 -0.919343
H20   H     H_    0.631357 0.061388 0.985408 0.269696
H21   H     H_    0.744224 0.048145 0.971902 0.257812
H22   H     H_    0.701286 0.059705 0.188836 0.255226

loop_
_geom_bond_atom_site_label_1
_geom_bond_atom_site_label_2
_ccdc_geom_bond_type
C7    C13   S    
C9    C14   S    
C4    O6    A    
C19   C20   S    
C15   C17   S    
N1    N2    D    
Cu1   O8    S    
C6    H8    S    
C4    C12   S    
Cu1   Cu2   S    
C7    H3    S    
C3    O5    A    
C20   H11   S    
C22   C23   S    
Cu1   O1    S    
C5    H7    S    
C2    O4    A    
C19   H10   S    
O10   C22   S    
N2    O10   S    
C1    O3    A    
C10   C16   S    
Cu1   O5    S    
C10   H2    S    
Cu2   O7    S    
C20   H12   S    
C21   H15   S    
C9    H1    S    
C24   H20   S    
C2    C6    S    
C1    C5    S    
Cu2   O3    S    
C16   C18   S    
C19   H9    S    
C8    H4    S    
C23   C24   S    
C4    O8    A    
C8    C15   S    
C23   H19   S    
Cu2   N1    S    
C13   C15   S    
C14   H5    S    
C9    C15   S    
C5    C6    D    
C20   C21   S    
C14   C16   S    
C13   H6    S    
C24   H21   S    
C3    C11   S    
C22   H16   S    
Cu2   O6    S    
C21   H14   S    
C1    O1    A    
C3    O7    A    
C2    O2    A    
Cu2   O2    S    
C12   C18   T    
O9    C19   S    
C7    C9    S    
C23   H18   S    
C7    C16   S    
C24   H22   S    
C8    C14   S    
C21   H13   S    
Cu1   N2    S    
N1    O9    S    
Cu1   O4    S    
C8    C10   S    
C11   C17   T    
C22   H17   S    
C10   C13   S    
