data_mof_unit_19908.cif
_audit_creation_date              2012-12-10T18:57:38-0500
_audit_creation_method            fapswitch 2.2
_symmetry_space_group_name_H-M    P1
_symmetry_Int_Tables_number       1
_space_group_crystal_system       triclinic
_cell_length_a                    10.952916
_cell_length_b                    10.814672
_cell_length_c                    9.624778
_cell_angle_alpha                 90.203703
_cell_angle_beta                  90.02986
_cell_angle_gamma                 91.481751
_cell_volume                      1139.68742543

loop_
_atom_site_label
_atom_site_type_symbol
_atom_type_description
_atom_site_fract_x
_atom_site_fract_y
_atom_site_fract_z
_atom_type_partial_charge
C1    C     C_R   0.497229 0.262520 0.499778 0.871516
C2    C     C_R   0.484301 0.128968 0.500559 -0.283911
C3    C     C_R   0.432258 0.063131 0.387493 0.614205
C4    C     C_R   0.424312 0.933635 0.389360 0.335803
C5    C     C_R   0.476646 0.869343 0.502358 -0.274690
C6    C     C_R   0.511650 0.936863 0.620147 -0.088620
C7    C     C_3   0.620225 0.930358 0.715453 0.231498
C8    C     C_3   0.622960 0.072126 0.715256 0.289345
C9    C     C_R   0.584639 0.569121 0.073636 0.084908
C10   C     C_R   0.408036 0.443189 0.073051 0.495133
C11   C     C_R   0.408181 0.442987 0.926185 0.488468
C12   C     C_R   0.265525 0.497032 0.499702 0.752754
C13   C     C_R   0.585220 0.568260 0.926748 -0.015678
C14   C     C_3   0.720391 0.554822 0.922024 0.390687
C15   C     C_3   0.719531 0.556419 0.079135 0.350975
C16   C     C_R   0.493848 0.736951 0.500231 0.849567
C17   C     C_R   0.734270 0.504582 0.500507 0.883977
C18   C     C_2   0.933905 0.514667 0.390348 -0.184810
C19   C     C_2   0.865685 0.521198 0.504731 -0.212138
C20   C     C_2   0.067118 0.533930 0.396202 0.393764
C21   C     C_2   0.132713 0.481370 0.498200 0.233925
C22   C     C_R   0.514121 0.063825 0.619871 -0.143247
Cu1   Cu    Cu3+1 0.499990 0.499980 0.640670 1.030077
Cu2   Cu    Cu3+1 0.500010 0.500020 0.359330 1.031581
H1    H     H_    0.892603 0.499795 0.289575 0.189814
H2    H     H_    0.769396 0.634804 0.873252 0.145260
H3    H     H_    0.747919 0.468204 0.126402 0.126628
H4    H     H_    0.906855 0.543451 0.604764 0.212819
H5    H     H_    0.596586 0.889657 0.818162 0.139827
H6    H     H_    0.600808 0.113354 0.817847 0.148485
N1    N     N_R   0.500780 0.500930 0.147930 -0.300397
N2    N     N_R   0.500780 0.500890 0.852020 -0.248152
O1    O     O_R   0.500000 0.319640 0.618810 -0.589029
O2    O     O_R   0.500010 0.319680 0.381230 -0.578571
O3    O     O_R   0.321940 0.499980 0.618760 -0.592711
O4    O     O_R   0.321950 0.500020 0.381180 -0.544355
O5    O     O_R   0.499990 0.680320 0.618770 -0.565932
O6    O     O_R   0.500000 0.680360 0.381190 -0.549359
O7    O     O_R   0.678050 0.499980 0.618820 -0.514152
O8    O     O_R   0.678060 0.500020 0.381240 -0.586586
O9    O     O_3   0.728843 0.126662 0.655539 -0.620906
H7    H     H_    0.730140 0.107763 0.554566 0.332089
O10   O     O_3   0.313559 0.379089 0.136150 -0.616854
H8    H     H_    0.345705 0.341825 0.220852 0.394503
O11   O     O_3   0.314275 0.378208 0.862167 -0.663653
H9    H     H_    0.347950 0.336903 0.780240 0.349782
F1    F     F_    0.753645 0.440556 0.871093 -0.617101
F2    F     F_    0.776657 0.661564 0.133400 -0.656958
O12   O     O_3   0.125121 0.604012 0.294499 -0.705618
H10   H     H_    0.062375 0.635491 0.230236 0.367279
O13   O     O_3   0.075626 0.404644 0.594683 -0.709120
H11   H     H_    0.138410 0.366158 0.653380 0.366703
F3    F     F_    0.388832 0.123215 0.275061 -0.621100
O14   O     O_3   0.367535 0.874618 0.278713 -0.631972
H12   H     H_    0.328402 0.797016 0.313030 0.353071
O15   O     O_3   0.724016 0.876791 0.655700 -0.676619
H13   H     H_    0.725359 0.894026 0.554479 0.337798

loop_
_geom_bond_atom_site_label_1
_geom_bond_atom_site_label_2
_ccdc_geom_bond_type
C2    C22   A    
C8    C22   S    
O10   H8    S    
C14   F1    S    
C7    H5    S    
Cu1   O5    S    
C12   O4    A    
O9    H7    S    
C13   N2    A    
Cu2   O6    S    
C14   C15   S    
C16   O5    A    
Cu1   Cu2   S    
C8    H6    S    
Cu1   N2    S    
C14   H2    S    
C2    C3    A    
C9    C15   S    
Cu2   N1    S    
C1    O1    A    
C7    C8    S    
Cu2   O4    S    
C13   C14   S    
C8    O9    S    
C12   O3    A    
C19   H4    S    
C3    F3    S    
C20   O12   S    
C18   H1    S    
C12   C21   S    
C7    O15   S    
Cu1   O7    S    
C15   F2    S    
Cu2   O8    S    
C11   N2    A    
C18   C19   D    
C6    C7    S    
Cu1   O3    S    
C5    C6    A    
O12   H10   S    
C11   O11   S    
C10   C11   A    
C9    N1    A    
C1    O2    A    
C3    C4    A    
C6    C22   A    
C21   O13   S    
C20   C21   D    
C18   C20   S    
C1    C2    S    
C17   O7    A    
O15   H13   S    
C9    C13   A    
O14   H12   S    
C5    C16   S    
C17   C19   S    
C10   O10   S    
O11   H9    S    
C15   H3    S    
C10   N1    A    
C4    O14   S    
Cu2   O2    S    
O13   H11   S    
C16   O6    A    
C4    C5    A    
Cu1   O1    S    
C17   O8    A    
