data_mof_unit_26600.cif
_audit_creation_date              2012-12-10T18:57:51-0500
_audit_creation_method            fapswitch 2.2
_symmetry_space_group_name_H-M    P1
_symmetry_Int_Tables_number       1
_space_group_crystal_system       triclinic
_cell_length_a                    10.791732
_cell_length_b                    9.879111
_cell_length_c                    8.906938
_cell_angle_alpha                 90.000874
_cell_angle_beta                  91.349314
_cell_angle_gamma                 89.958979
_cell_volume                      949.3293182

loop_
_atom_site_label
_atom_site_type_symbol
_atom_type_description
_atom_site_fract_x
_atom_site_fract_y
_atom_site_fract_z
_atom_type_partial_charge
C1    C     C_R   0.260303 0.500056 0.512726 0.976664
C2    C     C_R   0.062270 0.624310 0.517768 0.345706
C3    C     C_R   0.872997 0.499839 0.475802 -0.404372
C4    C     C_R   0.127003 0.500161 0.524198 -0.404370
C5    C     C_R   0.574459 0.071791 0.598774 0.358743
C6    C     C_R   0.425541 0.928209 0.401226 0.358744
C7    C     C_R   0.425508 0.071911 0.401263 0.358572
C8    C     C_R   0.574491 0.928089 0.598737 0.358572
C9    C     C_R   0.739697 0.499944 0.487274 0.976671
C10   C     C_R   0.499673 0.499999 0.218725 0.925822
C11   C     C_R   0.500323 0.500000 0.781275 0.925821
C12   C     C_1   0.499880 0.499999 0.065402 -0.075742
C13   C     C_1   0.500114 0.500001 0.934596 -0.075739
C14   C     C_R   0.062500 0.375935 0.519351 0.345417
C15   C     C_R   0.937500 0.624065 0.480648 0.345417
C16   C     C_R   0.937730 0.375690 0.482232 0.345706
Cl1   Cl    Cl    0.130683 0.218805 0.573778 -0.352215
Cl2   Cl    Cl    0.869317 0.781195 0.426222 -0.352214
Cl3   Cl    Cl    0.869927 0.217885 0.429747 -0.350814
Cl4   Cl    Cl    0.130073 0.782115 0.570253 -0.350815
Cl5   Cl    Cl    0.671252 0.158875 0.727803 -0.386053
Cl6   Cl    Cl    0.328748 0.841125 0.272197 -0.386055
Cl7   Cl    Cl    0.328448 0.159146 0.272531 -0.386265
Cl8   Cl    Cl    0.671552 0.840854 0.727469 -0.386263
N1    N     N_R   0.500000 0.857200 0.500000 -0.203519
N2    N     N_R   0.500000 0.142800 0.500000 -0.203519
O1    O     O_R   0.316770 0.614620 0.499990 -0.554911
O2    O     O_R   0.683230 0.385380 0.500010 -0.554909
O3    O     O_R   0.683230 0.614620 0.500010 -0.554552
O4    O     O_R   0.316770 0.385380 0.499990 -0.554554
O5    O     O_R   0.500010 0.614640 0.285340 -0.581378
O6    O     O_R   0.499990 0.385360 0.714660 -0.581378
O7    O     O_R   0.499990 0.614640 0.714660 -0.581651
O8    O     O_R   0.500010 0.385360 0.285340 -0.581651
Zn1   Zn    Zn3+2 0.500000 0.653120 0.500000 1.120542
Zn2   Zn    Zn3+2 0.500000 0.346880 0.500000 1.120542

loop_
_geom_bond_atom_site_label_1
_geom_bond_atom_site_label_2
_ccdc_geom_bond_type
C15   Cl2   S    
C2    C4    A    
C6    C7    A    
C8    N1    A    
C14   C16   A    
C9    O3    A    
C5    C8    A    
O3    Zn1   S    
O4    Zn2   S    
C1    C4    S    
O1    Zn1   S    
C5    Cl5   S    
C10   O8    A    
C2    C15   A    
C11   C13   S    
C14   Cl1   S    
C7    N2    A    
C10   C12   S    
N1    Zn1   S    
C16   Cl3   S    
C7    Cl7   S    
O6    Zn2   S    
N2    Zn2   S    
C1    O4    A    
C8    Cl8   S    
C11   O6    A    
O8    Zn2   S    
C4    C14   A    
O5    Zn1   S    
C3    C9    S    
C6    N1    A    
C2    Cl4   S    
C5    N2    A    
C6    Cl6   S    
C11   O7    A    
C3    C15   A    
C12   C13   T    
O2    Zn2   S    
C1    O1    A    
O7    Zn1   S    
C10   O5    A    
C3    C16   A    
C9    O2    A    
