data_mof_unit_12334.cif
_audit_creation_date              2012-12-10T17:02:15-0500
_audit_creation_method            fapswitch 2.2
_symmetry_space_group_name_H-M    P1
_symmetry_Int_Tables_number       1
_space_group_crystal_system       triclinic
_cell_length_a                    10.626339
_cell_length_b                    10.649486
_cell_length_c                    10.0533
_cell_angle_alpha                 93.39184
_cell_angle_beta                  90.84535
_cell_angle_gamma                 89.925335
_cell_volume                      1135.5655482

loop_
_atom_site_label
_atom_site_type_symbol
_atom_type_description
_atom_site_fract_x
_atom_site_fract_y
_atom_site_fract_z
_atom_type_partial_charge
C1    C     C_R   0.496399 0.262761 0.495495 0.894267
C2    C     C_R   0.067586 0.387812 0.558380 0.090452
C3    C     C_R   0.128419 0.486096 0.496577 -0.100852
C4    C     C_R   0.062836 0.579345 0.433779 -0.223246
C5    C     C_R   0.934407 0.579824 0.435899 -0.203856
C6    C     C_R   0.871764 0.486999 0.500689 -0.088514
C7    C     C_2   0.588590 0.932139 0.418014 0.158203
C8    C     C_2   0.540046 0.870552 0.519952 -0.232043
C9    C     C_2   0.587100 0.068666 0.423076 -0.197513
C10   C     C_2   0.491709 0.130554 0.481332 -0.308951
C11   C     C_2   0.599040 0.523455 0.930274 0.000457
C12   C     C_R   0.260638 0.496312 0.498970 0.860603
C13   C     C_2   0.600783 0.500926 0.076591 -0.142616
C14   C     C_R   0.510373 0.737969 0.504414 0.904976
C15   C     C_R   0.739370 0.495420 0.500492 0.867328
C16   C     C_R   0.134508 0.288851 0.615527 -0.192007
C17   C     C_R   0.070882 0.194751 0.677608 -0.142500
C18   C     C_R   0.940192 0.195893 0.681328 -0.150279
C19   C     C_R   0.872349 0.290196 0.621449 -0.191776
C20   C     C_R   0.935665 0.388240 0.560714 0.101166
H1    H     H_    0.111468 0.653764 0.386243 0.158445
H2    H     H_    0.409770 0.084475 0.519146 0.140690
H3    H     H_    0.424903 0.459951 0.893325 0.157715
H4    H     H_    0.691290 0.494182 0.126962 0.179737
H5    H     H_    0.417085 0.519879 0.101356 0.167546
H6    H     H_    0.235886 0.282384 0.612077 0.146662
H7    H     H_    0.123159 0.120282 0.722252 0.133333
H8    H     H_    0.891698 0.122952 0.730377 0.123868
H9    H     H_    0.770822 0.285263 0.623581 0.154170
H10   H     H_    0.883532 0.654338 0.389321 0.178673
H11   H     H_    0.663700 0.118464 0.378632 0.169767
N1    N     N_2   0.501340 0.501330 0.852150 -0.215424
N2    N     N_2   0.501380 0.501360 0.147810 -0.189365
O1    O     O_R   0.499980 0.319060 0.613040 -0.614623
O2    O     O_R   0.500020 0.319100 0.386900 -0.602560
O3    O     O_R   0.316750 0.499980 0.613090 -0.626697
O4    O     O_R   0.316790 0.500020 0.386950 -0.612051
O5    O     O_R   0.499980 0.680900 0.613100 -0.622001
O6    O     O_R   0.500020 0.680940 0.386960 -0.565742
O7    O     O_R   0.683210 0.499980 0.613050 -0.612884
O8    O     O_R   0.683250 0.500020 0.386910 -0.612376
Zn1   Zn    Zn3+2 0.499970 0.499970 0.650990 0.931605
Zn2   Zn    Zn3+2 0.500030 0.500030 0.349010 0.960964
C21   C     C_R   0.717264 0.572680 0.878681 0.198164
C22   C     C_R   0.829118 0.502848 0.887676 -0.174073
C23   C     C_R   0.942999 0.552694 0.847117 -0.111065
C24   C     C_R   0.946052 0.672205 0.797054 -0.110501
C25   C     C_R   0.835556 0.742869 0.789550 -0.165193
C26   C     C_R   0.721575 0.693977 0.831563 -0.048672
H12   H     H_    0.828014 0.409848 0.925846 0.123552
H13   H     H_    0.028714 0.498217 0.853507 0.145139
H14   H     H_    0.034103 0.710218 0.764560 0.131622
H15   H     H_    0.838883 0.835940 0.752394 0.127422
H16   H     H_    0.637244 0.750762 0.829249 0.156931
I1    I     I_    0.669433 0.847430 0.241201 -0.424254
C27   C     C_R   0.527737 0.931860 0.657994 0.121664
C28   C     C_R   0.415020 0.922300 0.728614 -0.147549
C29   C     C_R   0.404029 0.979903 0.856561 -0.151857
C30   C     C_R   0.505090 0.047452 0.915296 -0.070393
C31   C     C_R   0.617324 0.057586 0.846154 -0.126058
C32   C     C_R   0.628702 0.999963 0.718324 -0.157551
H17   H     H_    0.335358 0.871432 0.683932 0.121892
H18   H     H_    0.316953 0.972452 0.910034 0.132685
H19   H     H_    0.496396 0.092032 0.014322 0.143824
H20   H     H_    0.695520 0.110051 0.891620 0.129060
H21   H     H_    0.715907 0.008067 0.665621 0.122461

loop_
_geom_bond_atom_site_label_1
_geom_bond_atom_site_label_2
_ccdc_geom_bond_type
C21   C26   A    
C1    O1    A    
O6    Zn2   S    
C13   N2    D    
C24   H14   S    
C14   O5    A    
O2    Zn2   S    
C9    C10   D    
C17   H7    S    
O3    Zn1   S    
C19   C20   A    
O1    Zn1   S    
C7    I1    S    
C6    C15   S    
H3    N1    S    
C8    C27   S    
O7    Zn1   S    
C17   C18   A    
C14   O6    A    
C18   H8    S    
C30   C31   A    
C22   C23   A    
C10   H2    S    
C29   H18   S    
C4    H1    S    
O8    Zn2   S    
C15   O8    A    
C28   C29   A    
C5    C6    A    
C6    C20   A    
C23   H13   S    
C22   H12   S    
C25   C26   A    
C31   H20   S    
O5    Zn1   S    
C2    C3    A    
C16   H6    S    
C25   H15   S    
C15   O7    A    
C11   C13   S    
C12   O3    A    
C1    C10   S    
C9    H11   S    
C2    C20   A    
C26   H16   S    
C19   H9    S    
C16   C17   A    
C30   H19   S    
C11   C21   S    
C2    C16   A    
C27   C28   A    
C1    O2    A    
C18   C19   A    
C5    H10   S    
C12   O4    A    
C7    C9    S    
C7    C8    D    
N1    Zn1   S    
C23   C24   A    
C4    C5    A    
C8    C14   S    
C3    C12   S    
C28   H17   S    
C29   C30   A    
C27   C32   A    
C32   H21   S    
O4    Zn2   S    
C21   C22   A    
C24   C25   A    
C13   H4    S    
H5    N2    S    
C31   C32   A    
C11   N1    D    
C3    C4    A    
N2    Zn2   S    
