data_mof_unit_53626.cif
_audit_creation_date              2012-10-26T19:41:48-0400
_audit_creation_method            fapswitch 2.2
_symmetry_space_group_name_H-M    P1
_symmetry_Int_Tables_number       1
_space_group_crystal_system       triclinic
_cell_length_a                    10.616229
_cell_length_b                    10.762796
_cell_length_c                    9.642883
_cell_angle_alpha                 90.172048
_cell_angle_beta                  89.949319
_cell_angle_gamma                 93.856398
_cell_volume                      1099.29881027

loop_
_atom_site_label
_atom_site_type_symbol
_atom_type_description
_atom_site_fract_x
_atom_site_fract_y
_atom_site_fract_z
_atom_type_partial_charge
C1    C     C_R   0.496106 0.262658 0.499849 0.526062
C2    C     C_R   0.388335 0.058484 0.566816 0.026790
C3    C     C_R   0.488032 0.128269 0.499426 0.004943
C4    C     C_R   0.259559 0.499562 0.500174 0.523503
C5    C     C_R   0.582405 0.069432 0.429129 -0.150043
C6    C     C_R   0.582650 0.941234 0.429497 -0.137237
C7    C     C_R   0.488542 0.870229 0.500203 0.017849
C8    C     C_R   0.670155 0.663709 0.149312 -0.110131
C9    C     C_R   0.757033 0.743922 0.083401 -0.246655
C10   C     C_R   0.760483 0.746942 0.941761 -0.108756
C11   C     C_R   0.677161 0.670354 0.863649 0.400670
C12   C     C_3   0.959576 0.501622 0.368181 -0.116553
C13   C     C_R   0.585661 0.582395 0.926607 0.152069
C14   C     C_R   0.584336 0.581064 0.076350 0.109035
C15   C     C_R   0.419829 0.422951 0.073346 -0.000184
C16   C     C_R   0.496590 0.736911 0.500112 0.562824
C17   C     C_R   0.419820 0.422958 0.925893 -0.014960
C18   C     C_R   0.740490 0.500519 0.499828 0.577680
C19   C     C_3   0.040676 0.499735 0.632007 -0.117920
C20   C     C_3   0.950776 0.398041 0.564470 -0.128493
C21   C     C_3   0.877625 0.500988 0.499322 0.051413
C22   C     C_3   0.965298 0.602719 0.566742 -0.116338
C23   C     C_3   0.034919 0.398602 0.433466 -0.126455
C24   C     C_3   0.049525 0.603282 0.435768 -0.134465
C25   C     C_3   0.122570 0.500242 0.500858 0.042921
C26   C     C_R   0.286537 0.115920 0.629447 -0.112430
C27   C     C_R   0.187953 0.044470 0.692075 -0.127004
C28   C     C_R   0.188141 0.915185 0.692415 -0.121932
C29   C     C_R   0.286969 0.856548 0.630222 -0.107661
C30   C     C_R   0.388579 0.927099 0.567222 0.022811
Cu1   Cu    Cu3+1 0.499990 0.499990 0.640660 0.991657
Cu2   Cu    Cu3+1 0.500010 0.500010 0.359340 0.926442
F1    F     F_    0.693342 0.691786 0.728404 -0.635256
H1    H     H_    0.907333 0.314082 0.617056 0.108671
H2    H     H_    0.934262 0.686418 0.621149 0.149284
H3    H     H_    0.093185 0.687280 0.383439 0.114236
H4    H     H_    0.923776 0.502642 0.260055 0.125755
H5    H     H_    0.066636 0.315101 0.379179 0.106726
H6    H     H_    0.657754 0.123323 0.376177 0.122964
H7    H     H_    0.280721 0.215853 0.628493 0.122062
H8    H     H_    0.110407 0.089595 0.739221 0.106774
H9    H     H_    0.353897 0.359558 0.870928 0.109594
H10   H     H_    0.110748 0.859991 0.739829 0.107292
H11   H     H_    0.281507 0.755951 0.630058 0.130871
H12   H     H_    0.658119 0.897144 0.376669 0.114534
H13   H     H_    0.353857 0.359513 0.127869 0.115873
H14   H     H_    0.675134 0.671558 0.258394 0.199834
H15   H     H_    0.821657 0.805153 0.143097 0.121225
H16   H     H_    0.828407 0.811280 0.890809 0.139384
H17   H     H_    0.076443 0.499019 0.740144 0.118826
N1    N     N_R   0.501210 0.501210 0.147910 -0.238848
N2    N     N_R   0.501250 0.501290 0.852040 -0.238064
O1    O     O_R   0.499990 0.319640 0.618810 -0.510963
O2    O     O_R   0.500000 0.319660 0.381240 -0.502614
O3    O     O_R   0.316850 0.499960 0.618770 -0.531836
O4    O     O_R   0.316860 0.499980 0.381190 -0.502761
O5    O     O_R   0.500000 0.680340 0.618760 -0.421504
O6    O     O_R   0.500010 0.680360 0.381190 -0.531253
O7    O     O_R   0.683140 0.500020 0.618810 -0.422108
O8    O     O_R   0.683150 0.500040 0.381230 -0.538152

loop_
_geom_bond_atom_site_label_1
_geom_bond_atom_site_label_2
_ccdc_geom_bond_type
C1    O2    A    
Cu2   N1    S    
C6    C7    A    
C6    H12   S    
C15   N1    A    
C23   H5    S    
C9    C10   A    
C27   H8    S    
C28   H10   S    
Cu1   Cu2   S    
C19   H17   S    
C20   C23   S    
Cu2   O6    S    
Cu1   N2    S    
C2    C30   A    
C27   C28   A    
C20   H1    S    
Cu1   O5    S    
C23   C25   S    
C2    C3    A    
C8    H14   S    
C4    O3    A    
C7    C30   A    
C16   O6    A    
C21   C22   S    
Cu1   O1    S    
C18   C21   S    
C1    O1    A    
C22   H2    S    
C11   C13   A    
C12   C23   S    
C26   H7    S    
C26   C27   A    
C24   H3    S    
C17   N2    A    
Cu2   O2    S    
C7    C16   S    
C4    C25   S    
C16   O5    A    
C5    H6    S    
C29   H11   S    
C5    C6    A    
C19   C25   S    
C22   C24   S    
C14   N1    A    
C10   C11   A    
Cu2   O8    S    
C29   C30   A    
C13   N2    A    
C3    C5    A    
C18   O7    A    
C11   F1    S    
C19   C22   S    
C24   C25   S    
C9    H15   S    
C2    C26   A    
C18   O8    A    
C12   H4    S    
C15   C17   A    
C12   C24   S    
C17   H9    S    
C28   C29   A    
C8    C14   A    
C15   H13   S    
Cu1   O3    S    
C20   C21   S    
C13   C14   A    
C10   H16   S    
C12   C21   S    
Cu2   O4    S    
C4    O4    A    
C19   C20   S    
C8    C9    A    
C1    C3    S    
Cu1   O7    S    
