data_mof_unit_62419.cif
_audit_creation_date              2012-10-26T18:46:10-0400
_audit_creation_method            fapswitch 2.2
_symmetry_space_group_name_H-M    P1
_symmetry_Int_Tables_number       1
_space_group_crystal_system       triclinic
_cell_length_a                    13.912946
_cell_length_b                    16.497582
_cell_length_c                    17.758461
_cell_angle_alpha                 90.909413
_cell_angle_beta                  90.90657
_cell_angle_gamma                 84.82063
_cell_volume                      4058.52101504

loop_
_atom_site_label
_atom_site_type_symbol
_atom_type_description
_atom_site_fract_x
_atom_site_fract_y
_atom_site_fract_z
_atom_type_partial_charge
Br1   Br    Br    0.041840 0.358795 0.492812 -0.386946
Br2   Br    Br    0.958160 0.641205 0.507188 -0.386946
Br3   Br    Br    0.554448 0.324844 0.092601 -0.429316
Br4   Br    Br    0.445555 0.675155 0.907399 -0.429317
Br5   Br    Br    0.647004 0.101321 0.614682 -0.431581
Br6   Br    Br    0.352996 0.898679 0.385318 -0.431581
C1    C     C_R   0.498887 0.500883 0.644790 0.571080
C2    C     C_R   0.562857 0.824398 0.549711 0.199664
C3    C     C_R   0.439159 0.261971 0.451764 0.423477
C4    C     C_R   0.560841 0.738029 0.548236 0.423476
C5    C     C_R   0.560994 0.253569 0.547662 0.365643
C6    C     C_R   0.439006 0.746431 0.452338 0.365644
C7    C     C_R   0.561596 0.166809 0.548166 0.095730
C8    C     C_R   0.438404 0.833191 0.451834 0.095730
C9    C     C_R   0.499307 0.127080 0.499337 -0.024901
C10   C     C_R   0.500692 0.872920 0.500663 -0.024901
C11   C     C_1   0.499852 0.037208 0.499851 0.078525
C12   C     C_R   0.501113 0.499117 0.355210 0.571080
C13   C     C_1   0.500147 0.962792 0.500149 0.078525
C14   C     C_R   0.683201 0.486907 0.500046 0.551331
C15   C     C_R   0.316799 0.513093 0.499953 0.551331
C16   C     C_1   0.213948 0.521156 0.500377 0.053655
C17   C     C_1   0.786052 0.478844 0.499623 0.053654
C18   C     C_2   0.023833 0.533668 0.501549 0.166156
C19   C     C_2   0.976167 0.466332 0.498451 0.166156
C20   C     C_1   0.872682 0.472516 0.499121 0.065282
C21   C     C_1   0.127318 0.527484 0.500879 0.065282
C22   C     C_R   0.524974 0.423189 0.151807 0.165092
C23   C     C_R   0.480973 0.569341 0.154545 -0.131779
C24   C     C_R   0.475028 0.576811 0.848193 0.165092
C25   C     C_R   0.525741 0.422727 0.231680 0.270510
C26   C     C_R   0.474261 0.577273 0.768321 0.270509
C27   C     C_R   0.502912 0.496731 0.272023 0.028274
C28   C     C_R   0.497088 0.503268 0.727977 0.028273
C29   C     C_R   0.481330 0.569355 0.232719 -0.164462
C30   C     C_R   0.518668 0.430645 0.767280 -0.164462
C31   C     C_R   0.519026 0.430658 0.845455 -0.131779
C32   C     C_R   0.502297 0.496919 0.114240 0.016978
C33   C     C_R   0.497703 0.503081 0.885760 0.016978
C34   C     C_1   0.500650 0.499230 0.033739 0.086141
C35   C     C_1   0.499350 0.500770 0.966260 0.086141
C36   C     C_R   0.437143 0.175602 0.450289 0.199665
Cu1   Cu    Cu3+1 0.500000 0.419580 0.500020 1.143362
Cu2   Cu    Cu3+1 0.500000 0.580420 0.499980 1.143363
H1    H     H_    0.463750 0.626447 0.262501 0.181977
H2    H     H_    0.659768 0.721890 0.627750 0.379874
H3    H     H_    0.660243 0.257100 0.626967 0.357817
H4    H     H_    0.339757 0.742900 0.373033 0.357817
H5    H     H_    0.536247 0.373553 0.737499 0.181977
H6    H     H_    0.463638 0.626111 0.125333 0.177904
H7    H     H_    0.536360 0.373888 0.874667 0.177904
H8    H     H_    0.563706 0.305370 0.237663 0.378112
H9    H     H_    0.436307 0.694632 0.762338 0.378113
H10   H     H_    0.378994 0.082082 0.404525 0.376279
H11   H     H_    0.621006 0.917918 0.595475 0.376279
H12   H     H_    0.340232 0.278110 0.372250 0.379874
N1    N     N_R   0.500030 0.298780 0.500030 -0.211715
N2    N     N_R   0.499970 0.701220 0.499970 -0.211715
O1    O     O_R   0.500010 0.432070 0.608760 -0.489618
O2    O     O_3   0.450475 0.647592 0.728081 -0.637859
O3    O     O_3   0.373801 0.141937 0.400408 -0.658426
O4    O     O_3   0.626199 0.858063 0.599592 -0.658427
O5    O     O_3   0.380300 0.311253 0.404766 -0.604480
O6    O     O_3   0.619700 0.688747 0.595234 -0.604480
O7    O     O_3   0.620941 0.295036 0.594056 -0.637899
O8    O     O_3   0.379059 0.704964 0.405943 -0.637899
O9    O     O_R   0.499990 0.567930 0.391240 -0.489618
O10   O     O_R   0.500000 0.567880 0.608730 -0.406274
O11   O     O_R   0.500000 0.432120 0.391270 -0.406274
O12   O     O_R   0.637850 0.422490 0.500000 -0.453995
O13   O     O_R   0.362150 0.577510 0.500000 -0.453995
O14   O     O_R   0.637840 0.558310 0.499970 -0.463611
O15   O     O_R   0.362160 0.441690 0.500030 -0.463611
O16   O     O_3   0.549530 0.352409 0.271920 -0.637859

loop_
_geom_bond_atom_site_label_1
_geom_bond_atom_site_label_2
_ccdc_geom_bond_type
C23   C32   A    
Cu1   O15   S    
C24   C26   A    
Cu1   Cu2   S    
C25   C27   A    
C27   C29   A    
H10   O3    S    
C22   C32   A    
Br6   C8    S    
C1    O10   A    
C23   C29   A    
Br5   C7    S    
C18   C21   S    
Cu1   O1    S    
C23   H6    S    
C6    N2    A    
Cu1   O11   S    
C12   O11   A    
C19   C20   S    
H12   O5    S    
Br4   C24   S    
C31   C33   A    
C3    O5    S    
C15   C16   S    
Br1   C19   S    
C5    C7    A    
C36   O3    S    
C14   O12   A    
C3    C36   A    
H2    O6    S    
C15   O13   A    
C10   C13   S    
C1    O1    A    
C34   C35   T    
C32   C34   S    
H9    O2    S    
C6    C8    A    
C24   C33   A    
Cu2   O14   S    
Cu1   O12   S    
H8    O16   S    
C16   C21   T    
C7    C9    A    
Br2   C18   S    
C31   H7    S    
C1    C28   S    
C8    C10   A    
Cu2   O10   S    
Br3   C22   S    
C12   C27   S    
C26   O2    S    
C29   H1    S    
H11   O4    S    
C15   O15   A    
C22   C25   A    
C18   C19   D    
C28   C30   A    
Cu2   O13   S    
C33   C35   S    
C2    C10   A    
C17   C20   T    
C2    O4    S    
C9    C11   S    
C3    N1    A    
Cu1   N1    S    
C14   O14   A    
C30   C31   A    
Cu2   O9    S    
C4    N2    A    
H4    O8    S    
C11   C13   T    
C12   O9    A    
C5    N1    A    
C14   C17   S    
C6    O8    S    
H3    O7    S    
C2    C4    A    
C4    O6    S    
C30   H5    S    
C5    O7    S    
C9    C36   A    
Cu2   N2    S    
C25   O16   S    
C26   C28   A    
