data_mof_unit_46344.cif
_audit_creation_date              2013-03-05T15:40:06-0500
_audit_creation_method            fapswitch 2.2
_symmetry_space_group_name_H-M    P1
_symmetry_Int_Tables_number       1
_space_group_crystal_system       triclinic
_cell_length_a                    28.299475
_cell_length_b                    18.611252
_cell_length_c                    17.076778
_cell_angle_alpha                 90.457398
_cell_angle_beta                  61.056572
_cell_angle_gamma                 89.869388
_cell_volume                      7870.31355722

loop_
_atom_site_label
_atom_site_type_symbol
_atom_site_description
_atom_site_fract_x
_atom_site_fract_y
_atom_site_fract_z
_atom_type_partial_charge
O1    O     O_R   0.746490 0.236330 0.638080 -0.632513
O2    O     O_R   0.253510 0.763670 0.361920 -0.634366
O3    O     O_R   0.253510 0.236330 0.361920 -0.631427
O4    O     O_R   0.746490 0.763670 0.638080 -0.630308
O5    O     O_R   0.246490 0.736330 0.638080 -0.628922
O6    O     O_R   0.753510 0.263670 0.361920 -0.633070
O7    O     O_R   0.753510 0.736330 0.361920 -0.629937
O8    O     O_R   0.246490 0.263670 0.638080 -0.628657
O9    O     O_R   0.674170 0.186160 0.516270 -0.650204
O10   O     O_R   0.325830 0.813840 0.483730 -0.630224
O11   O     O_R   0.325830 0.186160 0.483730 -0.643127
O12   O     O_R   0.674170 0.813840 0.516270 -0.649251
O13   O     O_R   0.174170 0.686160 0.516270 -0.653683
O14   O     O_R   0.825830 0.313840 0.483730 -0.623065
O15   O     O_R   0.825830 0.686160 0.483730 -0.647568
O16   O     O_R   0.174170 0.313840 0.516270 -0.650479
O17   O     O_R   0.739960 0.127620 0.525000 -0.559835
O18   O     O_R   0.260040 0.872380 0.475000 -0.564724
O19   O     O_R   0.260040 0.127620 0.475000 -0.561855
O20   O     O_R   0.739960 0.872380 0.525000 -0.552686
O21   O     O_R   0.239960 0.627620 0.525000 -0.557918
O22   O     O_R   0.760040 0.372380 0.475000 -0.564622
O23   O     O_R   0.760040 0.627620 0.475000 -0.553397
O24   O     O_R   0.239960 0.372380 0.525000 -0.551029
O25   O     O_R   0.680700 0.294870 0.629350 -0.577433
O26   O     O_R   0.319300 0.705130 0.370650 -0.562908
O27   O     O_R   0.319300 0.294870 0.370650 -0.563104
O28   O     O_R   0.680700 0.705130 0.629350 -0.574771
O29   O     O_R   0.180700 0.794870 0.629350 -0.578472
O30   O     O_R   0.819300 0.205130 0.370650 -0.562341
O31   O     O_R   0.819300 0.794870 0.370650 -0.573183
O32   O     O_R   0.180700 0.205130 0.629350 -0.579854
C1    C     C_R   0.700418 0.266099 0.676516 0.895198
C2    C     C_R   0.298102 0.730758 0.324149 0.921511
C3    C     C_R   0.298405 0.268154 0.323966 0.921218
C4    C     C_R   0.701591 0.731800 0.676075 0.899127
C5    C     C_R   0.200656 0.766605 0.676436 0.894508
C6    C     C_R   0.798125 0.230802 0.324127 0.920412
C7    C     C_R   0.798432 0.768188 0.323906 0.900673
C8    C     C_R   0.201471 0.232120 0.676163 0.888273
C9    C     C_R   0.691362 0.129417 0.535595 0.876534
C10   C     C_R   0.305193 0.871755 0.477003 0.918609
C11   C     C_R   0.306307 0.128711 0.473670 0.918449
C12   C     C_R   0.691147 0.870405 0.536555 0.889399
C13   C     C_R   0.191361 0.629314 0.534593 0.881288
C14   C     C_R   0.804785 0.372499 0.477221 0.915444
C15   C     C_R   0.809398 0.629888 0.462491 0.886265
C16   C     C_R   0.190802 0.370584 0.536473 0.883662
Zn1   Zn    Zn3+2 0.792340 0.208750 0.507670 1.120246
Zn2   Zn    Zn3+2 0.207660 0.791250 0.492330 1.093101
Zn3   Zn    Zn3+2 0.207660 0.208750 0.492330 1.100473
Zn4   Zn    Zn3+2 0.792340 0.791250 0.507670 1.106668
Zn5   Zn    Zn3+2 0.292340 0.708750 0.507670 1.119882
Zn6   Zn    Zn3+2 0.707660 0.291250 0.492330 1.099665
Zn7   Zn    Zn3+2 0.707660 0.708750 0.492330 1.103271
Zn8   Zn    Zn3+2 0.292340 0.291250 0.507670 1.121688
C17   C     C_R   0.541873 0.999220 0.527668 0.035039
C18   C     C_R   0.450870 0.999447 0.501564 0.034455
C19   C     C_R   0.040136 0.499814 0.527124 0.038523
C20   C     C_R   0.951527 0.501274 0.493507 0.040318
C21   C     C_R   0.520029 0.064908 0.518628 0.043380
C22   C     C_R   0.469334 0.934414 0.519101 0.042563
C23   C     C_R   0.476371 0.064863 0.500440 0.032237
C24   C     C_R   0.517142 0.933761 0.525955 0.043892
C25   C     C_R   0.023779 0.564068 0.503665 0.037748
C26   C     C_R   0.962499 0.439807 0.530208 0.039299
C27   C     C_R   0.983609 0.562712 0.477006 0.041350
C28   C     C_R   0.010316 0.436757 0.537691 0.043321
C29   C     C_R   0.606917 0.934324 0.557816 -0.009855
C30   C     C_R   0.378821 0.065301 0.492616 -0.022181
C31   C     C_R   0.373962 0.937211 0.504124 -0.013605
C32   C     C_R   0.607494 0.064860 0.555924 -0.008658
C33   C     C_R   0.104513 0.434685 0.559825 -0.003560
C34   C     C_R   0.893647 0.564628 0.444947 -0.002571
C35   C     C_R   0.870921 0.444016 0.504342 -0.020270
C36   C     C_R   0.107565 0.565793 0.550325 -0.007775
C37   C     C_R   0.656474 0.934929 0.560900 -0.229376
C38   C     C_R   0.335490 0.064368 0.471779 -0.212682
C39   C     C_R   0.332934 0.936904 0.477848 -0.231446
C40   C     C_R   0.657017 0.064794 0.559095 -0.238538
C41   C     C_R   0.155153 0.435084 0.560756 -0.228040
C42   C     C_R   0.844297 0.565400 0.440491 -0.219379
C43   C     C_R   0.832099 0.439849 0.473889 -0.239131
C44   C     C_R   0.156483 0.565183 0.556513 -0.236160
C45   C     C_R   0.677843 0.999999 0.570739 0.244249
C46   C     C_R   0.319569 0.000119 0.450494 0.229882
C47   C     C_R   0.176434 0.500292 0.570227 0.238388
C48   C     C_R   0.821282 0.500584 0.437092 0.243285
C49   C     C_R   0.586326 0.999382 0.545055 0.047398
C50   C     C_R   0.403173 0.000196 0.493763 0.045420
C51   C     C_R   0.084783 0.499886 0.544341 0.046042
C52   C     C_R   0.906209 0.502716 0.478705 0.051092
C53   C     C_R   0.070929 0.373300 0.577284 0.006732
C54   C     C_R   0.930915 0.622050 0.417799 0.009187
C55   C     C_R   0.874682 0.393822 0.562498 0.053084
C56   C     C_R   0.078060 0.629090 0.554132 0.016874
C57   C     C_R   0.575939 0.871740 0.568849 0.014025
C58   C     C_R   0.398555 0.127601 0.514616 0.053745
C59   C     C_R   0.384396 0.880397 0.547785 0.056974
C60   C     C_R   0.575788 0.127059 0.568706 0.013143
C61   C     C_R   0.026893 0.373957 0.561882 -0.233730
C62   C     C_R   0.974130 0.621407 0.435544 -0.239927
C63   C     C_R   0.921831 0.387904 0.568650 -0.230674
C64   C     C_R   0.042258 0.628818 0.520230 -0.250249
C65   C     C_R   0.537127 0.870158 0.542022 -0.234322
C66   C     C_R   0.451677 0.128971 0.495721 -0.221320
C67   C     C_R   0.433931 0.875575 0.545762 -0.229004
C68   C     C_R   0.536583 0.128159 0.542855 -0.234233
H1    H     H_    0.005097 0.324293 0.570995 0.158923
H2    H     H_    0.001779 0.666292 0.413141 0.159132
H3    H     H_    0.922735 0.348298 0.613931 0.151252
H4    H     H_    0.022739 0.679007 0.520276 0.158808
H5    H     H_    0.520319 0.818380 0.540805 0.157801
H6    H     H_    0.468135 0.181374 0.494307 0.157508
H7    H     H_    0.439414 0.830365 0.579876 0.151621
H8    H     H_    0.515195 0.178347 0.553337 0.152318
H9    H     H_    0.652999 0.202035 0.065356 0.168070
H10   H     H_    0.340996 0.788528 0.940010 0.164819
H11   H     H_    0.250508 0.374121 0.048673 0.167645
H12   H     H_    0.752349 0.624022 0.949653 0.168797
H13   H     H_    0.153104 0.701276 0.064646 0.164241
H14   H     H_    0.841444 0.287496 0.938685 0.164466
H15   H     H_    0.747698 0.875871 0.050277 0.168344
H16   H     H_    0.252840 0.122845 0.947965 0.168034
C69   C     C_R   0.718453 0.256106 0.954210 0.136844
C70   C     C_R   0.276333 0.731693 0.049354 0.145987
C71   C     C_R   0.277645 0.265403 0.049169 0.121001
C72   C     C_R   0.724604 0.732260 0.948548 0.122756
C73   C     C_R   0.218318 0.756572 0.954499 0.139897
C74   C     C_R   0.776533 0.231831 0.049069 0.144352
C75   C     C_R   0.775431 0.767632 0.051408 0.123748
C76   C     C_R   0.225474 0.231520 0.947745 0.127078
C77   C     C_R   0.771941 0.279616 0.919685 -0.138009
C78   C     C_R   0.222868 0.707892 0.083549 -0.147930
C79   C     C_R   0.277755 0.194580 0.020207 -0.115680
C80   C     C_R   0.723865 0.803267 0.977401 -0.113769
C81   C     C_R   0.271617 0.780679 0.920649 -0.137226
C82   C     C_R   0.722927 0.208497 0.083780 -0.143866
C83   C     C_R   0.776177 0.696624 0.022545 -0.115418
C84   C     C_R   0.225555 0.302394 0.976448 -0.116946
H17   H     H_    0.791293 0.308435 0.857175 0.154736
H18   H     H_    0.203556 0.678760 0.145866 0.143291
H19   H     H_    0.298455 0.152498 0.035465 0.164509
H20   H     H_    0.703045 0.844871 0.961684 0.163935
H21   H     H_    0.290816 0.810309 0.858779 0.157100
H22   H     H_    0.703516 0.179938 0.146511 0.146027
H23   H     H_    0.797005 0.655023 0.038251 0.163718
H24   H     H_    0.204831 0.344495 0.961265 0.162789
C85   C     C_R   0.800441 0.268130 0.966769 -0.077506
C86   C     C_R   0.194252 0.720079 0.036628 -0.079103
C87   C     C_R   0.252118 0.177853 0.969693 -0.092277
C88   C     C_R   0.748864 0.820745 0.028623 -0.091535
C89   C     C_R   0.300112 0.768790 0.967649 -0.077213
C90   C     C_R   0.694276 0.220411 0.036882 -0.076376
C91   C     C_R   0.751176 0.679145 0.971321 -0.093846
C92   C     C_R   0.251193 0.319112 0.026954 -0.092838
C93   C     C_R   0.640902 0.320063 0.950179 0.264505
C94   C     C_R   0.357824 0.676391 0.050562 0.266413
C95   C     C_R   0.354652 0.327856 0.054530 0.274976
C96   C     C_R   0.648615 0.667336 0.942818 0.268957
C97   C     C_R   0.140515 0.819885 0.950399 0.266246
C98   C     C_R   0.857960 0.176526 0.050449 0.267118
C99   C     C_R   0.851375 0.832664 0.057125 0.268487
C100  C     C_R   0.149416 0.166309 0.941963 0.266885
C101  C     C_R   0.612995 0.340956 0.903048 -0.263406
C102  C     C_R   0.386943 0.658651 0.096917 -0.265033
C103  C     C_R   0.384001 0.345960 0.100299 -0.284895
C104  C     C_R   0.618061 0.651221 0.898642 -0.273508
C105  C     C_R   0.112568 0.840534 0.903166 -0.264583
C106  C     C_R   0.887015 0.158719 0.096878 -0.263870
C107  C     C_R   0.881891 0.848872 0.101322 -0.274271
C108  C     C_R   0.118532 0.150619 0.898164 -0.275765
C109  C     C_R   0.626817 0.311481 0.819999 0.215947
C110  C     C_R   0.371841 0.687687 0.180745 0.214570
C111  C     C_R   0.370174 0.315951 0.182954 0.218894
C112  C     C_R   0.630673 0.682776 0.817603 0.223134
C113  C     C_R   0.126784 0.811258 0.819722 0.216638
C114  C     C_R   0.871900 0.187747 0.180721 0.214294
C115  C     C_R   0.869356 0.817337 0.182304 0.221863
C116  C     C_R   0.130864 0.182545 0.817428 0.221587
C117  C     C_R   0.675567 0.275016 0.773726 -0.160902
C118  C     C_R   0.320780 0.717908 0.228515 -0.164404
C119  C     C_R   0.321353 0.280357 0.228236 -0.160311
C120  C     C_R   0.679289 0.718636 0.771502 -0.167075
C121  C     C_R   0.175910 0.775724 0.773504 -0.166718
C122  C     C_R   0.820865 0.218056 0.228434 -0.165832
C123  C     C_R   0.820764 0.781374 0.228462 -0.167098
C124  C     C_R   0.179053 0.219299 0.771762 -0.165477
C125  C     C_R   0.703897 0.253430 0.819422 -0.221999
C126  C     C_R   0.289273 0.731722 0.185879 -0.259017
C127  C     C_R   0.291626 0.262243 0.183831 -0.255795
C128  C     C_R   0.709499 0.736424 0.815169 -0.255752
C129  C     C_R   0.204191 0.754376 0.819307 -0.227947
C130  C     C_R   0.789442 0.232020 0.185680 -0.257094
C131  C     C_R   0.790567 0.763506 0.184781 -0.253213
C132  C     C_R   0.208875 0.237925 0.815856 -0.247087
H25   H     H_    0.740840 0.222161 0.785043 0.205786
H26   H     H_    0.249822 0.756860 0.222545 0.201001
H27   H     H_    0.254260 0.232579 0.217979 0.207081
H28   H     H_    0.746364 0.767141 0.781197 0.207000
H29   H     H_    0.240762 0.722373 0.785481 0.212055
H30   H     H_    0.750018 0.257235 0.222299 0.202031
H31   H     H_    0.753730 0.732731 0.218746 0.207704
H32   H     H_    0.244907 0.270272 0.782706 0.214665
C133  C     C_R   0.686480 0.274885 0.908197 -0.049421
C134  C     C_R   0.308535 0.714089 0.095522 -0.045229
C135  C     C_R   0.308807 0.284363 0.096117 -0.047608
C136  C     C_R   0.693505 0.712562 0.901851 -0.046392
C137  C     C_R   0.186454 0.775394 0.908273 -0.053437
C138  C     C_R   0.808732 0.214365 0.095298 -0.045548
C139  C     C_R   0.806534 0.787359 0.098090 -0.047597
C140  C     C_R   0.193768 0.212580 0.901660 -0.048360
O33   O     O_R   0.062020 0.072840 0.007170 -0.578238
O34   O     O_R   0.937980 0.927160 0.992830 -0.575984
O35   O     O_R   0.937980 0.072840 0.992830 -0.566108
O36   O     O_R   0.062020 0.927160 0.007170 -0.568628
O37   O     O_R   0.562020 0.572840 0.007170 -0.578317
O38   O     O_R   0.437980 0.427160 0.992830 -0.569564
O39   O     O_R   0.437980 0.572840 0.992830 -0.567301
O40   O     O_R   0.562020 0.427160 0.007170 -0.573646
O41   O     O_R   0.947860 0.073950 0.109290 -0.576984
O42   O     O_R   0.052140 0.926050 0.890710 -0.569115
O43   O     O_R   0.052140 0.073950 0.890710 -0.559835
O44   O     O_R   0.947860 0.926050 0.109290 -0.559191
O45   O     O_R   0.447860 0.573950 0.109290 -0.574079
O46   O     O_R   0.552140 0.426050 0.890710 -0.563306
O47   O     O_R   0.552140 0.573950 0.890710 -0.560067
O48   O     O_R   0.447860 0.426050 0.109290 -0.569449
C141  C     C_R   0.075047 0.098411 0.933521 0.933011
C142  C     C_R   0.925159 0.901353 0.066246 0.939752
C143  C     C_R   0.928029 0.102309 0.063862 0.925596
C144  C     C_R   0.072546 0.898315 0.935601 0.935341
C145  C     C_R   0.574778 0.598749 0.933785 0.932825
C146  C     C_R   0.426318 0.399826 0.065400 0.922547
C147  C     C_R   0.428007 0.602295 0.063875 0.927367
C148  C     C_R   0.572951 0.398760 0.935318 0.931400
Zn9   Zn    Zn3+2 0.505960 0.500000 0.080520 1.236079
Zn10  Zn    Zn3+2 0.494040 0.500000 0.919480 1.243315
Zn11  Zn    Zn3+2 0.005960 1.000000 0.080520 1.238354
Zn12  Zn    Zn3+2 0.994040 1.000000 0.919480 1.241082
N1    N     N_R   0.717538 0.000251 0.600452 0.227270
O49   O     O_R   0.768956 0.000710 0.543171 -0.325326
O50   O     O_R   0.702020 0.992507 0.685071 -0.377419
N2    N     N_R   0.292228 0.999294 0.397970 0.225695
O51   O     O_R   0.239705 0.998570 0.436464 -0.327459
O52   O     O_R   0.319868 0.009652 0.312184 -0.362772
N3    N     N_R   0.215210 0.500607 0.601924 0.225705
O53   O     O_R   0.198632 0.492118 0.686787 -0.376534
O54   O     O_R   0.266859 0.500853 0.546090 -0.325047
N4    N     N_R   0.788160 0.497429 0.394454 0.227041
O55   O     O_R   0.735730 0.497130 0.442348 -0.325417
O56   O     O_R   0.809916 0.510709 0.309372 -0.372222
C149  C     C_1   0.072436 0.312550 0.627084 0.239602
N5    N     N_1   0.072898 0.262682 0.666204 -0.053353
C150  C     C_1   0.930152 0.679675 0.363594 0.234243
N6    N     N_1   0.929977 0.726906 0.320674 -0.057774
C151  C     C_1   0.826448 0.367751 0.637354 0.186297
N7    N     N_1   0.787813 0.349196 0.699643 -0.221280
C152  C     C_1   0.071374 0.689002 0.612612 0.244726
N8    N     N_1   0.065345 0.737691 0.658855 -0.057960
C153  C     C_1   0.572560 0.813777 0.626302 0.234048
N9    N     N_1   0.569071 0.766450 0.671794 -0.054730
C154  C     C_1   0.363486 0.170731 0.592390 0.222003
N10   N     N_1   0.336084 0.204968 0.655102 -0.184217
C155  C     C_1   0.340640 0.847041 0.623709 0.199659
N11   N     N_1   0.306210 0.821723 0.686890 -0.220026
C156  C     C_1   0.572468 0.185401 0.626452 0.238158
N12   N     N_1   0.568998 0.233324 0.671904 -0.056466
N13   N     N_R   0.623838 0.345382 0.039587 0.217183
O57   O     O_R   0.578435 0.323463 0.105439 -0.329430
O58   O     O_R   0.655279 0.386254 0.056127 -0.338206
N14   N     N_R   0.377290 0.654574 0.959115 0.213171
O59   O     O_R   0.348693 0.612068 0.937927 -0.345531
O60   O     O_R   0.422848 0.679279 0.896503 -0.329429
N15   N     N_R   0.372025 0.351283 0.964908 0.224709
O61   O     O_R   0.398735 0.307367 0.897958 -0.332626
O62   O     O_R   0.355780 0.413009 0.951088 -0.352612
N16   N     N_R   0.633624 0.639825 0.029932 0.221992
O63   O     O_R   0.648449 0.575324 0.038055 -0.348761
O64   O     O_R   0.611477 0.682289 0.099495 -0.332432
N17   N     N_R   0.123079 0.844694 0.040133 0.217370
O65   O     O_R   0.077656 0.822326 0.105510 -0.328936
O66   O     O_R   0.154213 0.885550 0.057428 -0.340027
N18   N     N_R   0.877391 0.154534 0.959068 0.213132
O67   O     O_R   0.848813 0.111832 0.938067 -0.340366
O68   O     O_R   0.922946 0.179160 0.896351 -0.331917
N19   N     N_R   0.866389 0.860116 0.969962 0.222627
O69   O     O_R   0.888493 0.817560 0.900422 -0.338146
O70   O     O_R   0.851616 0.924644 0.961758 -0.350643
N20   N     N_R   0.135268 0.137306 0.028097 0.221471
O71   O     O_R   0.149687 0.072044 0.034268 -0.350577
O72   O     O_R   0.114348 0.178961 0.098566 -0.334320
N21   N     N_R   0.589591 0.316592 0.785755 0.217134
O73   O     O_R   0.595634 0.367006 0.729197 -0.329221
O74   O     O_R   0.541797 0.289093 0.833247 -0.357951
N22   N     N_R   0.409006 0.687993 0.215744 0.226700
O75   O     O_R   0.408162 0.636850 0.268009 -0.322629
O76   O     O_R   0.449262 0.732491 0.183154 -0.341378
N23   N     N_R   0.406556 0.319410 0.219355 0.231788
O77   O     O_R   0.404066 0.372709 0.271152 -0.322050
O78   O     O_R   0.444034 0.270649 0.196838 -0.334006
N24   N     N_R   0.592131 0.681881 0.785824 0.219829
O79   O     O_R   0.595493 0.632206 0.729126 -0.326718
O80   O     O_R   0.545949 0.714206 0.834122 -0.348128
N25   N     N_R   0.089759 0.815062 0.784813 0.220221
O81   O     O_R   0.094491 0.866067 0.729720 -0.331563
O82   O     O_R   0.043473 0.782966 0.828555 -0.358992
N26   N     N_R   0.909019 0.187930 0.215811 0.226637
O83   O     O_R   0.908110 0.136722 0.268050 -0.323174
O84   O     O_R   0.949280 0.232421 0.183375 -0.345118
N27   N     N_R   0.908113 0.818232 0.213641 0.220120
O85   O     O_R   0.904412 0.867233 0.271290 -0.325508
O86   O     O_R   0.954800 0.787597 0.163676 -0.349010
N28   N     N_R   0.092550 0.180899 0.785203 0.221139
O87   O     O_R   0.096101 0.130580 0.729077 -0.329056
O88   O     O_R   0.046483 0.213828 0.832232 -0.348856

loop_
_geom_bond_atom_site_label_1
_geom_bond_atom_site_label_2
_geom_bond_distance
_ccdc_geom_bond_type
O4    C4    1.264470 A    
O5    C5    1.263884 A    
O45   Zn9   2.008982 S    
C33   C53   1.425995 A    
O31   Zn4   2.082414 S    
O8    Zn8   2.032486 S    
C113  N25   1.436375 S    
C35   C55   1.409613 A    
O18   Zn2   2.038996 S    
C106  C114  1.385137 A    
N18   O67   1.301312 A    
C131  H31   1.083521 S    
N4    O56   1.300667 A    
C129  H29   1.082869 S    
N2    O51   1.302370 A    
O30   C6    1.297718 A    
H10   C89   1.082824 S    
C34   C52   1.411913 A    
C21   C23   1.412204 A    
C71   C135  1.492040 S    
C22   C24   1.413320 A    
C126  C134  1.400956 A    
C5    C121  1.462286 S    
C55   C63   1.392348 A    
N14   O59   1.301310 A    
C111  N23   1.438646 S    
N19   O70   1.301442 A    
O7    Zn7   2.032486 S    
C132  H32   1.082689 S    
C57   C153  1.435969 S    
C57   C65   1.379892 A    
C82   C90   1.406576 A    
C43   C48   1.400784 A    
C107  C142  1.454999 S    
O23   Zn7   2.030475 S    
O6    Zn6   2.021986 S    
C33   C41   1.440903 A    
C80   C88   1.402463 A    
O47   C145  1.271430 A    
C102  C110  1.385036 A    
H14   C85   1.082777 S    
C96   N16   1.434384 S    
C28   C61   1.396265 A    
O37   C145  1.227134 A    
C98   C138  1.406245 A    
O27   C3    1.297570 A    
N28   O87   1.302981 A    
C31   C59   1.409051 A    
H12   C91   1.082782 S    
C114  N26   1.439359 S    
C81   C89   1.404233 A    
C19   C51   1.429104 A    
C47   N3    1.439461 S    
O38   C146  1.232260 A    
C17   C49   1.425568 A    
C84   C92   1.403396 A    
N22   O75   1.302385 A    
O30   Zn1   2.081093 S    
N13   O58   1.301148 A    
O38   Zn10  2.009267 S    
O17   Zn1   2.038996 S    
C74   C82   1.406458 A    
O33   C141  1.227095 A    
C111  C119  1.387075 A    
C125  H25   1.083531 S    
C112  C120  1.386453 A    
H15   C88   1.082779 S    
C12   C37   1.472938 S    
C26   C63   1.404464 A    
C71   C92   1.407470 A    
C17   C21   1.411562 A    
O24   Zn8   2.030475 S    
O9    C9    1.272600 A    
C58   C66   1.376787 A    
O12   C12   1.271484 A    
C36   C56   1.425113 A    
C100  N20   1.434867 S    
C100  C140  1.403198 A    
C56   C152  1.440407 S    
C69   C133  1.499777 S    
C95   C103  1.428142 A    
C97   N17   1.435496 S    
C128  H28   1.083513 S    
C132  C140  1.399241 A    
C73   C81   1.404928 A    
C70   C78   1.406610 A    
O7    C7    1.264884 A    
O9    Zn6   2.130010 S    
O8    C8    1.264286 A    
C61   H1    1.082125 S    
O11   Zn8   2.120025 S    
C104  C145  1.455177 S    
O13   C13   1.266563 A    
C29   C37   1.428732 A    
O16   Zn3   2.120025 S    
C110  C118  1.384866 A    
C31   C39   1.433061 A    
C94   N14   1.436389 S    
O22   Zn6   2.038996 S    
O41   Zn11  2.008982 S    
C65   H5    1.080112 S    
C115  N27   1.434470 S    
O18   C10   1.294740 A    
C149  N5    1.151574 T    
C96   C136  1.402070 A    
O46   C148  1.274403 A    
C16   C41   1.487411 S    
N1    O49   1.302613 A    
O2    Zn2   2.021986 S    
C20   C27   1.404757 A    
N25   O82   1.301613 A    
O6    C6    1.259494 A    
C83   C91   1.402532 A    
C112  N24   1.434354 S    
C97   C105  1.429942 A    
C79   H19   1.083239 S    
O42   C144  1.273198 A    
C10   C39   1.449742 S    
C107  C115  1.386296 A    
C29   C49   1.406063 A    
C105  C113  1.385990 A    
O20   C12   1.298075 A    
N26   O84   1.300533 A    
O21   C13   1.304226 A    
C20   C52   1.422340 A    
N24   O80   1.302072 A    
C60   C68   1.378534 A    
O23   C15   1.307696 A    
O24   C16   1.308161 A    
O39   C147  1.228541 A    
C93   C101  1.428820 A    
C64   H4    1.083901 S    
C6    C122  1.454668 S    
O47   Zn10  2.019464 S    
C109  N21   1.434385 S    
C114  C122  1.384887 A    
N21   O73   1.302991 A    
C130  C138  1.401330 A    
O3    C3    1.263975 A    
C93   N13   1.435351 S    
C127  C135  1.398348 A    
C54   C62   1.395088 A    
H16   C87   1.082916 S    
N27   O86   1.302457 A    
C75   C139  1.490304 S    
C100  C108  1.427924 A    
O37   Zn9   2.009266 S    
C69   C90   1.408791 A    
C103  C111  1.391534 A    
C104  C112  1.386824 A    
C122  C130  1.421892 A    
C3    C119  1.457672 S    
C156  N12   1.149938 T    
C8    C124  1.459111 S    
N17   O66   1.301170 A    
C118  C126  1.421798 A    
N18   O68   1.301240 A    
C32   C40   1.428441 A    
C54   C150  1.429201 S    
C19   C25   1.410476 A    
O2    C2    1.259388 A    
C31   C50   1.398205 A    
C82   H22   1.082920 S    
C42   C48   1.386289 A    
N2    O52   1.300445 A    
O12   Zn7   2.120025 S    
C75   C83   1.403294 A    
C36   C51   1.412806 A    
C20   C26   1.412827 A    
O13   Zn2   2.130010 S    
N14   O60   1.301218 A    
N16   O63   1.301144 A    
C152  N8    1.153831 T    
O25   C1    1.298978 A    
C29   C57   1.417411 A    
C18   C22   1.407848 A    
H11   C92   1.083024 S    
O10   C10   1.257020 A    
C34   C54   1.417449 A    
N15   O61   1.300883 A    
C36   C44   1.438498 A    
C9    C40   1.479122 S    
C154  N10   1.156428 T    
O14   C14   1.273545 A    
C11   C38   1.444346 S    
C110  N22   1.439383 S    
C81   H21   1.081964 S    
C71   C79   1.403604 A    
C72   C136  1.490286 S    
C72   C80   1.403262 A    
C53   C149  1.433043 S    
C115  C123  1.387008 A    
N28   O88   1.302035 A    
C130  H30   1.083353 S    
C18   C23   1.412224 A    
C113  C121  1.385097 A    
C63   H3    1.081707 S    
N20   O71   1.301652 A    
O10   Zn5   2.130010 S    
C116  C124  1.385349 A    
C117  C125  1.422035 A    
C125  C133  1.402439 A    
C25   C27   1.414588 A    
C120  C128  1.418079 A    
C99   C107  1.426459 A    
C108  C116  1.387090 A    
N22   O76   1.300537 A    
C109  C117  1.385747 A    
N13   O57   1.301219 A    
O16   C16   1.268654 A    
C75   C88   1.407003 A    
C34   C42   1.434998 A    
O19   C11   1.298715 A    
N3    O54   1.302599 A    
C99   N19   1.434610 S    
C94   C134  1.406319 A    
O25   Zn6   2.081093 S    
O3    Zn3   2.032486 S    
O27   Zn8   2.082414 S    
C22   C67   1.407737 A    
N4    O55   1.302306 A    
C97   C137  1.404873 A    
N23   O77   1.302580 A    
O32   Zn3   2.082414 S    
C40   C45   1.398269 A    
O44   C142  1.271723 A    
C78   H18   1.082927 S    
N19   O69   1.300980 A    
C98   C106  1.431263 A    
C108  C141  1.455571 S    
C45   N1    1.439112 S    
C93   C133  1.405352 A    
O15   Zn4   2.120025 S    
C23   C66   1.403815 A    
C18   C50   1.419117 A    
C41   C47   1.398615 A    
O22   C14   1.285064 A    
C66   H6    1.077149 S    
C1    C117  1.463885 S    
O40   Zn9   1.990810 S    
C62   H2    1.083891 S    
C53   C61   1.392685 A    
O34   C142  1.226482 A    
C126  H26   1.083373 S    
C98   N18   1.436413 S    
C76   C84   1.403891 A    
C59   C67   1.388090 A    
C77   H17   1.082474 S    
C105  C144  1.457314 S    
C68   H8    1.077396 S    
O48   Zn9   2.019465 S    
C80   H20   1.083070 S    
C35   C43   1.426946 A    
C153  N9    1.151594 T    
C70   C134  1.502506 S    
C79   C87   1.403502 A    
O42   Zn12  2.008983 S    
C96   C104  1.426744 A    
C14   C43   1.461139 S    
C70   C89   1.408901 A    
O28   C4    1.297766 A    
C101  C148  1.458011 S    
O20   Zn4   2.030475 S    
N25   O81   1.302713 A    
O29   C5    1.298894 A    
H9    C90   1.082859 S    
C76   C87   1.408090 A    
O35   Zn12  1.990807 S    
C39   C46   1.386780 A    
O43   C141  1.271494 A    
C103  C146  1.455528 S    
C26   C28   1.420514 A    
N27   O85   1.302790 A    
O46   Zn10  2.008983 S    
C30   C38   1.432795 A    
O34   Zn12  2.009267 S    
C76   C140  1.493036 S    
C44   C47   1.400544 A    
O15   C15   1.266494 A    
C84   H24   1.083251 S    
O1    C1    1.265039 A    
C24   C65   1.395941 A    
C83   H23   1.083071 S    
O4    Zn4   2.032486 S    
O35   C143  1.228628 A    
O39   Zn10  1.990807 S    
O5    Zn5   2.021986 S    
N15   O62   1.301417 A    
C127  H27   1.083514 S    
C151  N7    1.152400 T    
O43   Zn12  2.019464 S    
O14   Zn1   2.130010 S    
C101  C109  1.383812 A    
C78   C86   1.406911 A    
H13   C86   1.082869 S    
C15   C42   1.478293 S    
C21   C68   1.399527 A    
C72   C91   1.407016 A    
C58   C154  1.448009 S    
O26   C2    1.297590 A    
O1    Zn1   2.021986 S    
O11   C11   1.252817 A    
C4    C120  1.457904 S    
C155  N11   1.152480 T    
O48   C146  1.268605 A    
C7    C123  1.458166 S    
C38   C46   1.385271 A    
C128  C136  1.398640 A    
C30   C50   1.397547 A    
O28   Zn7   2.082414 S    
O29   Zn2   2.081093 S    
O45   C147  1.273706 A    
C77   C85   1.404380 A    
C33   C51   1.413912 A    
C99   C139  1.402055 A    
N17   O65   1.301117 A    
N1    O50   1.300420 A    
C131  C139  1.398846 A    
C19   C28   1.408011 A    
C129  C137  1.401648 A    
C106  C143  1.455618 S    
O41   C143  1.273543 A    
C74   C85   1.409334 A    
C95   C135  1.401781 A    
N23   O78   1.300615 A    
C67   H7    1.079878 S    
C35   C52   1.404251 A    
N16   O64   1.300258 A    
C74   C138  1.502731 S    
C13   C44   1.481160 S    
C150  N6    1.150491 T    
O26   Zn5   2.081093 S    
N26   O83   1.302389 A    
C17   C24   1.413519 A    
C48   N4    1.439576 S    
C32   C60   1.412247 A    
C69   C77   1.404871 A    
C102  C147  1.455774 S    
C55   C151  1.434158 S    
N24   O79   1.302837 A    
C59   C155  1.436013 S    
C123  C131  1.418298 A    
O36   Zn11  1.990810 S    
O40   C148  1.225615 A    
C121  C129  1.421109 A    
O33   Zn11  2.009266 S    
C119  C127  1.418088 A    
N3    O53   1.300441 A    
C60   C156  1.432828 S    
C95   N15   1.434382 S    
C56   C64   1.389046 A    
C73   C86   1.408883 A    
N21   O74   1.302727 A    
O21   Zn5   2.038996 S    
C32   C49   1.409161 A    
C116  N28   1.434143 S    
O36   C144  1.227624 A    
O31   C7    1.297604 A    
C2    C118  1.454236 S    
N20   O72   1.301207 A    
O32   C8    1.298713 A    
O44   Zn11  2.019465 S    
O17   C9    1.297737 A    
C37   C45   1.399633 A    
C94   C102  1.431450 A    
O19   Zn3   2.030475 S    
C124  C132  1.418327 A    
C46   N2    1.440460 S    
C25   C64   1.395091 A    
C73   C137  1.500299 S    
C30   C58   1.412971 A    
C27   C62   1.400511 A    
