data_mof_unit_7651.cif
_audit_creation_date              2012-12-10T16:47:15-0500
_audit_creation_method            fapswitch 2.2
_symmetry_space_group_name_H-M    P1
_symmetry_Int_Tables_number       1
_space_group_crystal_system       triclinic
_cell_length_a                    12.22016
_cell_length_b                    12.215205
_cell_length_c                    7.756659
_cell_angle_alpha                 90.006275
_cell_angle_beta                  94.644236
_cell_angle_gamma                 89.999067
_cell_volume                      1154.04851752

loop_
_atom_site_label
_atom_site_type_symbol
_atom_type_description
_atom_site_fract_x
_atom_site_fract_y
_atom_site_fract_z
_atom_type_partial_charge
C1    C     C_R   0.355103 0.850725 0.456089 0.972995
C2    C     C_2   0.712558 0.758263 0.559333 -0.127861
C3    C     C_2   0.735951 0.218781 0.567742 -0.133228
C4    C     C_2   0.263854 0.781408 0.432356 -0.135743
C5    C     C_2   0.787440 0.741735 0.440664 -0.127861
C6    C     C_2   0.236012 0.281290 0.567707 -0.132395
C7    C     C_2   0.236145 0.718593 0.567643 -0.135747
C8    C     C_2   0.764049 0.281220 0.432258 -0.133227
C9    C     C_R   0.644859 0.149301 0.543903 0.946756
C10   C     C_R   0.645385 0.851199 0.544090 0.958040
C11   C     C_R   0.355134 0.149295 0.456101 0.957856
C12   C     C_R   0.855141 0.350699 0.456097 0.946754
C13   C     C_R   0.144896 0.649275 0.543910 0.972996
C14   C     C_R   0.144866 0.350705 0.543898 0.957856
C15   C     C_R   0.854613 0.648800 0.455909 0.958031
C16   C     C_2   0.263987 0.218710 0.432294 -0.132392
H1    H     H_    0.616078 0.000062 0.003014 0.192392
H2    H     H_    0.385177 0.690747 0.703849 0.203873
H3    H     H_    0.705953 0.226617 0.191430 0.225573
H4    H     H_    0.615575 0.308418 0.294034 0.194150
H5    H     H_    0.205486 0.272887 0.191436 0.225609
H6    H     H_    0.115331 0.191257 0.294739 0.194333
H7    H     H_    0.673390 0.601433 0.629378 0.191056
H8    H     H_    0.744009 0.677471 0.790354 0.224500
H9    H     H_    0.794043 0.273387 0.808570 0.225573
H10   H     H_    0.884423 0.191584 0.705972 0.194152
H11   H     H_    0.204570 0.727953 0.191466 0.226898
H12   H     H_    0.383927 0.999973 0.997002 0.198564
H13   H     H_    0.114822 0.809254 0.296148 0.203870
H14   H     H_    0.116073 0.500027 0.002998 0.198564
H15   H     H_    0.883922 0.499938 0.996985 0.192392
H16   H     H_    0.826609 0.898557 0.370572 0.191063
H17   H     H_    0.755972 0.822511 0.209633 0.224501
H18   H     H_    0.294507 0.227106 0.808563 0.225610
H19   H     H_    0.384664 0.308740 0.705273 0.194336
H20   H     H_    0.295430 0.772046 0.808531 0.226899
N1    N     N_2   0.541470 0.000000 0.055820 -0.179775
N2    N     N_3   0.684231 0.678785 0.686084 -0.464983
N3    N     N_3   0.802375 0.205369 0.728918 -0.463895
N4    N     N_3   0.196711 0.795620 0.272029 -0.458763
N5    N     N_2   0.458530 0.000000 0.944180 -0.178855
N6    N     N_2   0.041470 0.500000 0.055820 -0.178855
N7    N     N_2   0.958530 0.500000 0.944180 -0.179774
N8    N     N_3   0.815755 0.821203 0.313895 -0.464985
N9    N     N_3   0.302672 0.294996 0.728605 -0.458916
N10   N     N_3   0.303288 0.704380 0.727969 -0.458765
N11   N     N_3   0.697622 0.294633 0.271084 -0.463895
N12   N     N_3   0.197323 0.204999 0.271400 -0.458916
O1    O     O_R   0.375700 0.885870 0.609240 -0.641332
O2    O     O_R   0.597720 0.114130 0.675960 -0.618171
O3    O     O_R   0.597720 0.885870 0.675960 -0.614707
O4    O     O_R   0.402280 0.114130 0.324040 -0.615431
O5    O     O_R   0.902280 0.385870 0.324040 -0.618172
O6    O     O_R   0.097720 0.614130 0.675960 -0.609935
O7    O     O_R   0.097720 0.385870 0.675960 -0.615430
O8    O     O_R   0.902280 0.614130 0.324040 -0.614703
O9    O     O_R   0.624300 0.114130 0.390760 -0.647367
O10   O     O_R   0.624300 0.885870 0.390760 -0.642792
O11   O     O_R   0.375700 0.114130 0.609240 -0.643456
O12   O     O_R   0.875700 0.385870 0.609240 -0.647368
O13   O     O_R   0.124300 0.614130 0.390760 -0.641331
O14   O     O_R   0.124300 0.385870 0.390760 -0.643455
O15   O     O_R   0.875700 0.614130 0.609240 -0.642791
O16   O     O_R   0.402280 0.885870 0.324040 -0.609936
Zn1   Zn    Zn3+2 0.482250 1.000000 0.690430 0.927780
Zn2   Zn    Zn3+2 0.517750 0.000000 0.309570 0.927229
Zn3   Zn    Zn3+2 0.982250 0.500000 0.690430 0.927230
Zn4   Zn    Zn3+2 0.017750 0.500000 0.309570 0.927781

loop_
_geom_bond_atom_site_label_1
_geom_bond_atom_site_label_2
_ccdc_geom_bond_type
O7    Zn3   S    
C2    C5    D    
C1    O16   A    
H20   N10   S    
C3    C9    S    
C6    N9    S    
C6    C14   S    
H7    N2    S    
C11   C16   S    
C2    N2    S    
H6    N12   S    
C12   O5    A    
O14   Zn4   S    
O9    Zn2   S    
C8    C12   S    
H5    N12   S    
N1    Zn2   S    
C16   N12   S    
C14   O7    A    
H16   N8    S    
C8    N11   S    
C3    N3    S    
O6    Zn3   S    
H18   N9    S    
H1    N1    S    
C15   O8    A    
N6    Zn4   S    
O13   Zn4   S    
O1    Zn1   S    
C4    C7    D    
C11   O11   A    
C10   O3    A    
H2    N10   S    
H13   N4    S    
C10   O10   A    
C5    N8    S    
C3    C8    D    
O11   Zn1   S    
C9    O9    A    
N1    N5    D    
O2    Zn1   S    
O15   Zn3   S    
H10   N3    S    
C5    C15   S    
C1    C4    S    
N6    N7    D    
C9    O2    A    
C6    C16   D    
H8    N2    S    
C2    C10   S    
C7    N10   S    
C13   O13   A    
H12   N5    S    
C7    C13   S    
O4    Zn2   S    
N7    Zn3   S    
C13   O6    A    
O3    Zn1   S    
H3    N11   S    
C12   O12   A    
O5    Zn4   S    
C14   O14   A    
C15   O15   A    
H14   N6    S    
N5    Zn1   S    
C11   O4    A    
H11   N4    S    
O8    Zn4   S    
H17   N8    S    
C1    O1    A    
O10   Zn2   S    
H15   N7    S    
H9    N3    S    
H4    N11   S    
C4    N4    S    
O12   Zn3   S    
O16   Zn2   S    
H19   N9    S    
