data_mof_unit_51909.cif
_audit_creation_date              2012-10-26T21:02:09-0400
_audit_creation_method            fapswitch 2.2
_symmetry_space_group_name_H-M    P1
_symmetry_Int_Tables_number       1
_space_group_crystal_system       triclinic
_cell_length_a                    9.783598
_cell_length_b                    10.939187
_cell_length_c                    13.951871
_cell_angle_alpha                 90.546699
_cell_angle_beta                  85.71485
_cell_angle_gamma                 89.94683
_cell_volume                      1488.94955367

loop_
_atom_site_label
_atom_site_type_symbol
_atom_type_description
_atom_site_fract_x
_atom_site_fract_y
_atom_site_fract_z
_atom_type_partial_charge
Br1   Br    Br    0.795721 0.879483 0.457382 -0.580660
Br2   Br    Br    0.822992 0.655366 0.664361 -0.460371
C1    C     C_R   0.500695 0.734490 0.502012 0.579875
C2    C     C_R   0.500157 0.265860 0.495351 0.541637
C3    C     C_R   0.521016 0.500343 0.317601 0.548514
C4    C     C_1   0.529565 0.494028 0.215243 -0.015823
C5    C     C_2   0.540900 0.466174 0.026679 -0.012147
C6    C     C_2   0.448788 0.520403 0.972613 -0.013988
C7    C     C_1   0.460451 0.509303 0.869839 -0.050110
C8    C     C_1   0.533907 0.484176 0.129304 -0.056027
C9    C     C_R   0.336332 0.601141 0.011569 0.045194
C10   C     C_R   0.200100 0.565663 0.001607 -0.109880
C11   C     C_R   0.093145 0.649658 0.018719 -0.129459
C12   C     C_1   0.468622 0.503403 0.783961 -0.010062
C13   C     C_R   0.121443 0.769870 0.045256 -0.118196
C14   C     C_R   0.256753 0.806192 0.054331 -0.131928
C15   C     C_R   0.364108 0.722028 0.038487 -0.091118
C16   C     C_R   0.906677 0.471150 0.407450 0.156261
C17   C     C_R   0.906764 0.349231 0.375009 -0.088882
C18   C     C_R   0.965487 0.318554 0.283446 -0.130786
C19   C     C_R   0.023698 0.409383 0.223639 -0.104057
C20   C     C_R   0.021327 0.531218 0.254722 -0.120637
C21   C     C_R   0.961057 0.562557 0.345436 -0.067611
C22   C     C_R   0.649619 0.381517 0.984925 0.053041
C23   C     C_2   0.602439 0.068653 0.512072 -0.144588
C24   C     C_R   0.785756 0.395375 0.009218 -0.081640
C25   C     C_R   0.887665 0.314609 0.972059 -0.112077
C26   C     C_R   0.854697 0.218827 0.911048 -0.096099
C27   C     C_R   0.719435 0.202843 0.887782 -0.105688
C28   C     C_R   0.617058 0.283026 0.925041 -0.087160
C29   C     C_R   0.403834 0.083797 0.410067 0.022706
C30   C     C_R   0.261331 0.097414 0.429018 -0.092634
C31   C     C_R   0.170975 0.044177 0.367812 -0.122495
C32   C     C_R   0.221858 0.977050 0.287247 -0.101666
C33   C     C_R   0.363310 0.964857 0.266963 -0.111431
C34   C     C_2   0.501503 0.134965 0.477335 -0.050873
C35   C     C_R   0.453839 0.019380 0.327057 -0.091648
C36   C     C_R   0.128684 0.679817 0.605178 0.127892
C37   C     C_R   0.124406 0.799053 0.569096 -0.039381
C38   C     C_R   0.153761 0.898985 0.627377 -0.107023
C39   C     C_R   0.190679 0.880701 0.720962 -0.110708
C40   C     C_R   0.193271 0.762644 0.757849 -0.110764
C41   C     C_R   0.158492 0.662993 0.701252 -0.035649
C42   C     C_2   0.614625 0.936536 0.499063 0.146230
C43   C     C_2   0.501831 0.866295 0.513626 -0.069932
C44   C     C_2   0.072275 0.577441 0.550517 0.068400
C45   C     C_2   0.917579 0.564653 0.559854 0.262820
C46   C     C_R   0.478797 0.499576 0.682099 0.557851
Cu1   Cu    Cu3+1 0.361370 0.499980 0.499980 0.941086
Cu2   Cu    Cu3+1 0.638630 0.500020 0.500020 1.031794
H1    H     H_    0.680830 0.112942 0.551370 0.156968
H2    H     H_    0.966959 0.224254 0.259186 0.116695
H3    H     H_    0.070798 0.385363 0.153367 0.109808
H4    H     H_    0.066968 0.601618 0.209144 0.135224
H5    H     H_    0.959438 0.657353 0.368372 0.145832
H6    H     H_    0.812914 0.468730 0.056835 0.106920
H7    H     H_    0.992171 0.325839 0.990819 0.089326
H8    H     H_    0.933775 0.156423 0.882412 0.110086
H9    H     H_    0.693672 0.127748 0.841392 0.117712
H10   H     H_    0.512280 0.267392 0.907992 0.099760
H11   H     H_    0.219681 0.146771 0.492125 0.119389
H12   H     H_    0.404826 0.908563 0.537030 0.083903
H13   H     H_    0.061457 0.053851 0.383508 0.139595
H14   H     H_    0.151645 0.934546 0.240727 0.117487
H15   H     H_    0.403764 0.912536 0.205194 0.107549
H16   H     H_    0.563102 0.009400 0.309864 0.137186
H17   H     H_    0.095151 0.814552 0.496875 0.144041
H18   H     H_    0.147493 0.990744 0.600295 0.108560
H19   H     H_    0.214785 0.958180 0.765453 0.107900
H20   H     H_    0.218703 0.748665 0.831059 0.134715
H21   H     H_    0.151423 0.573082 0.733076 0.125945
H22   H     H_    0.112586 0.418567 0.482765 0.207843
H23   H     H_    0.177604 0.474185 0.977147 0.095519
H24   H     H_    0.988650 0.622205 0.009833 0.118369
H25   H     H_    0.038817 0.835395 0.057170 0.115173
H26   H     H_    0.278427 0.900653 0.070734 0.101172
H27   H     H_    0.468903 0.752492 0.042252 0.110314
H28   H     H_    0.864405 0.277828 0.421398 0.128396
N1    N     N_2   0.152970 0.501340 0.501040 -0.373962
N2    N     N_2   0.846830 0.501370 0.501060 -0.253422
O1    O     O_R   0.382960 0.678040 0.499980 -0.508808
O2    O     O_R   0.617100 0.678080 0.500020 -0.410535
O3    O     O_R   0.366380 0.499950 0.637830 -0.518978
O4    O     O_R   0.600520 0.499990 0.637860 -0.441596
O5    O     O_R   0.382900 0.321920 0.499980 -0.509509
O6    O     O_R   0.617040 0.321960 0.500020 -0.517718
O7    O     O_R   0.399480 0.500010 0.362140 -0.483861
O8    O     O_R   0.633620 0.500050 0.362170 -0.493104

loop_
_geom_bond_atom_site_label_1
_geom_bond_atom_site_label_2
_ccdc_geom_bond_type
C5    C8    S    
C13   H25   S    
C2    C34   S    
C39   C40   A    
Cu1   O7    S    
C17   C18   A    
Cu2   O4    S    
C5    C6    D    
C20   H4    S    
C46   O4    A    
C10   C11   A    
C24   C25   A    
C3    C4    S    
C26   C27   A    
C33   C35   A    
C22   C24   A    
C30   H11   S    
C32   C33   A    
H22   N1    S    
C36   C37   A    
C2    O6    A    
C33   H15   S    
C5    C22   S    
C43   H12   S    
C40   H20   S    
C16   C17   A    
Cu1   O1    S    
C3    O8    A    
C27   H9    S    
C14   C15   A    
C28   H10   S    
C1    O1    A    
Cu2   O8    S    
C10   H23   S    
C45   N2    D    
C23   C42   S    
C15   H27   S    
C20   C21   A    
C16   C21   A    
Cu1   O5    S    
C25   H7    S    
C37   C38   A    
C6    C7    S    
C12   C46   S    
C2    O5    A    
C1    C43   S    
C29   C35   A    
Cu2   N2    S    
C17   H28   S    
C7    C12   T    
C23   H1    S    
C27   C28   A    
Br1   C42   S    
C29   C30   A    
C31   H13   S    
C35   H16   S    
C1    O2    A    
C32   H14   S    
C31   C32   A    
C18   C19   A    
C38   C39   A    
C11   C13   A    
C40   C41   A    
C42   C43   D    
Cu2   O2    S    
C39   H19   S    
C44   C45   S    
C9    C15   A    
C41   H21   S    
C14   H26   S    
C37   H17   S    
C24   H6    S    
C4    C8    T    
C9    C10   A    
C21   H5    S    
C26   H8    S    
Br2   C45   S    
C46   O3    A    
C30   C31   A    
Cu1   O3    S    
C36   C41   A    
C18   H2    S    
C19   H3    S    
C44   N1    D    
C6    C9    S    
C22   C28   A    
C36   C44   S    
Cu2   O6    S    
C23   C34   D    
C3    O7    A    
Cu1   N1    S    
C11   H24   S    
C16   N2    S    
Cu1   Cu2   S    
C38   H18   S    
C25   C26   A    
C29   C34   S    
C19   C20   A    
C13   C14   A    
