data_mof_unit_8360.cif
_audit_creation_date              2012-12-10T20:48:17-0500
_audit_creation_method            fapswitch 2.2
_symmetry_space_group_name_H-M    P1
_symmetry_Int_Tables_number       1
_space_group_crystal_system       triclinic
_cell_length_a                    10.740564
_cell_length_b                    8.914798
_cell_length_c                    8.123532
_cell_angle_alpha                 90.088434
_cell_angle_beta                  89.740875
_cell_angle_gamma                 90.006178
_cell_volume                      777.818966407

loop_
_atom_site_label
_atom_site_type_symbol
_atom_type_description
_atom_site_fract_x
_atom_site_fract_y
_atom_site_fract_z
_atom_type_partial_charge
C1    C     C_R   0.499987 0.218088 0.499924 0.957519
C2    C     C_R   0.257192 0.493032 0.500270 0.950122
C3    C     C_R   0.742084 0.488211 0.499627 1.089632
C4    C     C_R   0.500044 0.781880 0.500082 0.920419
C5    C     C_1   0.499972 0.065241 0.499895 -0.059224
C6    C     C_3   0.071128 0.410634 0.665480 0.460921
C7    C     C_3   0.073421 0.401089 0.340174 0.426745
C8    C     C_3   0.926411 0.431188 0.675767 0.408523
C9    C     C_3   0.928780 0.377521 0.355954 0.443391
C10   C     C_1   0.499988 0.934744 0.500121 -0.096921
C11   C     C_3   0.069739 0.657646 0.494048 0.618549
C12   C     C_3   0.923846 0.652348 0.468728 0.774305
C13   C     C_3   0.120503 0.488816 0.500252 -0.379070
C14   C     C_3   0.878156 0.484642 0.499420 -0.380844
N1    N     N_1   0.500000 0.500030 0.073640 0.012575
N2    N     N_1   0.500000 0.500030 0.926360 0.019132
O1    O     O_R   0.500000 0.285340 0.636850 -0.608051
O2    O     O_R   0.500000 0.285340 0.363150 -0.609076
O3    O     O_R   0.314790 0.499970 0.636880 -0.573170
O4    O     O_R   0.314790 0.499970 0.363120 -0.628509
O5    O     O_R   0.685210 0.499970 0.636880 -0.565303
O6    O     O_R   0.685210 0.499970 0.363120 -0.546024
O7    O     O_R   0.500000 0.714650 0.636900 -0.611490
O8    O     O_R   0.500000 0.714650 0.363100 -0.609399
Zn1   Zn    Zn3+2 0.500000 0.499990 0.682780 1.105034
Zn2   Zn    Zn3+2 0.500000 0.499990 0.317220 1.093762
O9    O     O_3   0.123730 0.481553 0.803871 -0.657439
H1    H     H_    0.106009 0.416601 0.899840 0.374196
O10   O     O_3   0.094593 0.493072 0.201142 -0.728441
H2    H     H_    0.176080 0.469699 0.150240 0.394813
O11   O     O_3   0.898998 0.547138 0.789524 -0.595191
H3    H     H_    0.905847 0.507746 0.902846 0.396232
O12   O     O_3   0.873405 0.416551 0.204981 -0.682969
H4    H     H_    0.900603 0.341222 0.122212 0.392689
Br1   Br    Br    0.127365 0.199207 0.681606 -0.351111
Br2   Br    Br    0.163385 0.210292 0.289991 -0.365785
Br3   Br    Br    0.839236 0.251743 0.767338 -0.378437
Br4   Br    Br    0.876839 0.166667 0.388216 -0.355051
O13   O     O_3   0.094241 0.732677 0.644340 -0.619174
H5    H     H_    0.185458 0.744800 0.656984 0.351075
O14   O     O_3   0.124471 0.740982 0.364202 -0.686574
H6    H     H_    0.211523 0.766580 0.393051 0.338210
O15   O     O_3   0.865680 0.749165 0.583452 -0.621736
H7    H     H_    0.888366 0.853617 0.553312 0.415898
O16   O     O_3   0.884455 0.703243 0.311821 -0.673228
H8    H     H_    0.944410 0.676777 0.224585 0.438475

loop_
_geom_bond_atom_site_label_1
_geom_bond_atom_site_label_2
_ccdc_geom_bond_type
C11   O13   S    
C9    C14   S    
O10   H2    S    
C7    O10   S    
C7    Br2   S    
O14   H6    S    
C1    O1    A    
O11   H3    S    
O2    Zn2   S    
C11   C12   S    
O1    Zn1   S    
O12   H4    S    
C5    C10   T    
O16   H8    S    
C6    C13   S    
C9    O12   S    
C11   C13   S    
C1    O2    A    
C3    C14   S    
O4    Zn2   S    
C1    C5    S    
C6    C8    S    
C9    Br4   S    
O8    Zn2   S    
C11   O14   S    
C12   O15   S    
O7    Zn1   S    
O15   H7    S    
N2    Zn1   S    
C4    O8    A    
C3    O5    A    
C8    Br3   S    
O3    Zn1   S    
C4    C10   S    
N1    N2    T    
C7    C13   S    
C6    Br1   S    
O6    Zn2   S    
O13   H5    S    
C7    C9    S    
C2    C13   S    
O5    Zn1   S    
N1    Zn2   S    
C3    O6    A    
C8    C14   S    
C2    O3    A    
C8    O11   S    
C2    O4    A    
C4    O7    A    
C6    O9    S    
C12   C14   S    
C12   O16   S    
O9    H1    S    
