data_mof_unit_28985.cif
_audit_creation_date              2012-10-26T21:20:14-0400
_audit_creation_method            fapswitch 2.2
_symmetry_space_group_name_H-M    P1
_symmetry_Int_Tables_number       1
_space_group_crystal_system       triclinic
_cell_length_a                    13.00974
_cell_length_b                    10.833615
_cell_length_c                    9.500557
_cell_angle_alpha                 89.988068
_cell_angle_beta                  97.238556
_cell_angle_gamma                 90.136446
_cell_volume                      1328.35671383

loop_
_atom_site_label
_atom_site_type_symbol
_atom_type_description
_atom_site_fract_x
_atom_site_fract_y
_atom_site_fract_z
_atom_type_partial_charge
C1    C     C_R   0.499878 0.262020 0.499951 0.550555
C2    C     C_R   0.699974 0.503935 0.528182 0.542748
C3    C     C_R   0.813790 0.510386 0.547312 -0.000822
C4    C     C_R   0.186214 0.489650 0.452689 -0.000792
C5    C     C_R   0.018434 0.439168 0.322562 -0.107307
C6    C     C_R   0.981571 0.560915 0.677420 -0.107302
C7    C     C_R   0.126854 0.442993 0.327217 0.007441
C8    C     C_R   0.873153 0.556994 0.672811 0.007415
C9    C     C_R   0.136490 0.528629 0.567403 -0.146312
C10   C     C_R   0.863514 0.471484 0.432568 -0.146320
C11   C     C_R   0.029577 0.522428 0.561456 0.021237
C12   C     C_R   0.500121 0.737980 0.500049 0.550563
C13   C     C_R   0.970426 0.477692 0.438512 0.021241
C14   C     C_R   0.498003 0.063860 0.371757 -0.142209
C15   C     C_R   0.501994 0.936140 0.628243 -0.142207
C16   C     C_R   0.498213 0.936161 0.371799 -0.140250
C17   C     C_R   0.501785 0.063839 0.628201 -0.140251
C18   C     C_3   0.820778 0.603946 0.797576 -0.264606
C19   C     C_3   0.890848 0.666100 0.918797 -0.467402
C20   C     C_3   0.179229 0.395845 0.202561 -0.264665
C21   C     C_3   0.109154 0.333506 0.081514 -0.467514
C22   C     C_R   0.500159 0.871801 0.500033 0.019379
C23   C     C_R   0.499839 0.128199 0.499966 0.019377
C24   C     C_R   0.440185 0.418076 0.064119 0.002647
C25   C     C_R   0.559814 0.581925 0.935882 0.002644
C26   C     C_R   0.440078 0.418219 0.915186 0.011590
C27   C     C_R   0.559922 0.581781 0.084814 0.011586
C28   C     C_R   0.300028 0.496070 0.471819 0.542744
Cu1   Cu    Cu3+1 0.500000 0.500020 0.640660 0.923817
Cu2   Cu    Cu3+1 0.500000 0.499980 0.359340 0.923826
H1    H     H_    0.818628 0.435585 0.337308 0.124289
H2    H     H_    0.607278 0.647899 0.887963 0.095963
H3    H     H_    0.392095 0.352722 0.850706 0.108140
H4    H     H_    0.607905 0.647277 0.149294 0.108130
H5    H     H_    0.947223 0.599015 0.972312 0.145659
H6    H     H_    0.932193 0.746023 0.878670 0.154971
H7    H     H_    0.842634 0.700611 0.998889 0.134396
H8    H     H_    0.761259 0.672974 0.756902 0.155184
H9    H     H_    0.782166 0.525050 0.844294 0.169282
H10   H     H_    0.067750 0.253759 0.121823 0.155014
H11   H     H_    0.052830 0.400511 0.027790 0.145646
H12   H     H_    0.181377 0.564550 0.662654 0.124282
H13   H     H_    0.157363 0.298749 0.001596 0.134437
H14   H     H_    0.217836 0.474648 0.155686 0.169250
H15   H     H_    0.238757 0.326883 0.243365 0.155203
H16   H     H_    0.969979 0.405736 0.229509 0.109170
H17   H     H_    0.030033 0.594351 0.770466 0.109184
H18   H     H_    0.496365 0.111912 0.271491 0.124396
H19   H     H_    0.503633 0.888088 0.728509 0.124396
H20   H     H_    0.496756 0.888127 0.271569 0.125489
H21   H     H_    0.503242 0.111873 0.728430 0.125487
H22   H     H_    0.392720 0.352103 0.112038 0.095964
N1    N     N_R   0.500030 0.500030 0.852080 -0.223520
N2    N     N_R   0.499970 0.499970 0.147920 -0.223515
O1    O     O_R   0.499990 0.319660 0.618740 -0.507600
O2    O     O_R   0.500010 0.680340 0.381260 -0.507597
O3    O     O_R   0.499990 0.319630 0.381170 -0.511016
O4    O     O_R   0.500010 0.680370 0.618830 -0.511012
O5    O     O_R   0.349000 0.499990 0.599490 -0.503786
O6    O     O_R   0.651000 0.500010 0.400510 -0.503786
O7    O     O_R   0.348990 0.499960 0.361920 -0.511468
O8    O     O_R   0.651010 0.500040 0.638080 -0.511485

loop_
_geom_bond_atom_site_label_1
_geom_bond_atom_site_label_2
_ccdc_geom_bond_type
C14   C23   A    
C24   H22   S    
C16   C22   A    
C18   H9    S    
Cu2   O3    S    
Cu1   Cu2   S    
C1    O3    A    
C25   C27   A    
Cu2   N2    S    
C5    H16   S    
C26   H3    S    
C5    C13   A    
C20   H15   S    
C12   O4    A    
C28   O7    A    
C17   H21   S    
C25   H2    S    
C2    C3    S    
C18   H8    S    
C27   N2    A    
C3    C10   A    
C19   H5    S    
Cu1   O4    S    
C9    C11   A    
C9    H12   S    
C17   C23   A    
C21   H10   S    
Cu1   N1    S    
C4    C7    A    
C21   H11   S    
C6    C8    A    
C20   H14   S    
C24   C26   A    
C1    C23   S    
C2    O6    A    
C19   H6    S    
C15   H19   S    
C27   H4    S    
C1    O1    A    
C16   H20   S    
C14   C16   A    
Cu2   O7    S    
C6    H17   S    
C24   N2    A    
C26   N1    A    
C12   C22   S    
C11   C13   A    
C18   C19   S    
C20   C21   S    
C15   C17   A    
C3    C8    A    
C28   O5    A    
C6    C11   A    
C5    C7    A    
Cu1   O5    S    
Cu1   O8    S    
C12   O2    A    
C14   H18   S    
C19   H7    S    
C4    C28   S    
C4    C9    A    
C21   H13   S    
Cu1   O1    S    
Cu2   O2    S    
C10   H1    S    
C7    C20   S    
C15   C22   A    
C8    C18   S    
C2    O8    A    
C25   N1    A    
C10   C13   A    
Cu2   O6    S    
