data_mof_unit_11748.cif
_audit_creation_date              2012-12-11T15:11:42-0500
_audit_creation_method            fapswitch 2.2
_symmetry_space_group_name_H-M    P1
_symmetry_Int_Tables_number       1
_space_group_crystal_system       triclinic
_cell_length_a                    20.169358
_cell_length_b                    7.098614
_cell_length_c                    13.484816
_cell_angle_alpha                 89.997735
_cell_angle_beta                  103.538904
_cell_angle_gamma                 90.000892
_cell_volume                      1877.03026061

loop_
_atom_site_label
_atom_site_type_symbol
_atom_type_description
_atom_site_fract_x
_atom_site_fract_y
_atom_site_fract_z
_atom_type_partial_charge
O1    O     O_R   0.449830 0.506740 0.599960 -0.529216
O2    O     O_R   0.550170 0.006740 0.400040 -0.529218
O3    O     O_R   0.588980 0.179860 0.596720 -0.527811
O4    O     O_R   0.411020 0.679860 0.403280 -0.527795
C1    C     C_R   0.616282 0.344592 0.619382 0.721097
C2    C     C_R   0.383717 0.844593 0.380621 0.721073
O5    O     O_R   0.452740 0.177340 0.612040 -0.549859
O6    O     O_R   0.547260 0.677340 0.387960 -0.549857
O7    O     O_R   0.412960 0.002070 0.415460 -0.531371
O8    O     O_R   0.587040 0.502070 0.584540 -0.531391
C3    C     C_R   0.436636 0.345781 0.638754 0.695084
C4    C     C_R   0.563363 0.845787 0.361247 0.695054
O9    O     O_3   0.487110 0.337570 0.435490 -0.368294
O10   O     O_3   0.512890 0.837570 0.564510 -0.368308
V1    V     V_3+5 0.502390 0.064650 0.511970 1.497117
V2    V     V_3+5 0.497610 0.564650 0.488030 1.497123
C5    C     C_R   0.608682 0.865448 0.106981 -0.162456
C6    C     C_R   0.391318 0.365368 0.893020 -0.162457
H1    H     H_    0.691576 0.873936 0.980776 0.131060
H2    H     H_    0.308424 0.373849 0.019225 0.131020
H3    H     H_    0.582343 0.870107 0.027125 0.116739
H4    H     H_    0.417657 0.369995 0.972877 0.116732
C7    C     C_R   0.603070 0.853932 0.283670 -0.030192
C8    C     C_R   0.396930 0.353908 0.716330 -0.030202
C9    C     C_R   0.931775 0.854422 0.318532 -0.169841
C10   C     C_R   0.068225 0.354488 0.681468 -0.169839
C11   C     C_R   0.896428 0.849416 0.395349 -0.121253
C12   C     C_R   0.103571 0.349497 0.604651 -0.121256
C13   C     C_R   0.825369 0.850477 0.371386 -0.159086
C14   C     C_R   0.174631 0.350534 0.628613 -0.159113
C15   C     C_R   0.787471 0.856321 0.268605 0.076124
C16   C     C_R   0.212529 0.356339 0.731395 0.076122
C17   C     C_R   0.824151 0.860926 0.190144 0.074452
C18   C     C_R   0.175849 0.360930 0.809856 0.074454
C19   C     C_R   0.714574 0.857945 0.241068 0.068286
C20   C     C_R   0.285426 0.357937 0.758932 0.068283
C21   C     C_R   0.680249 0.864251 0.136108 0.146684
C22   C     C_R   0.319751 0.364202 0.863892 0.146693
C23   C     C_R   0.717412 0.868873 0.060862 -0.223300
C24   C     C_R   0.282589 0.368814 0.939138 -0.223290
C25   C     C_R   0.788150 0.866895 0.087257 -0.207573
C26   C     C_R   0.211851 0.366862 0.912743 -0.207571
C27   C     C_R   0.674274 0.853197 0.313932 -0.209942
C28   C     C_R   0.325726 0.353203 0.686068 -0.209982
C29   C     C_R   0.570331 0.859959 0.180420 -0.175867
C30   C     C_R   0.429669 0.359891 0.819581 -0.175858
C31   C     C_R   0.896409 0.860107 0.216306 -0.073900
C32   C     C_R   0.103591 0.360133 0.783694 -0.073902
H5    H     H_    0.696299 0.847965 0.394791 0.120831
H6    H     H_    0.303701 0.348005 0.605209 0.120856
H7    H     H_    0.987048 0.854189 0.338831 0.099576
H8    H     H_    0.012952 0.354272 0.661168 0.099578
C33   C     C_3   0.237505 0.747375 0.138147 -0.344542
C34   C     C_3   0.762505 0.247270 0.861834 -0.344552
H9    H     H_    0.240083 0.813228 0.064252 0.145975
H10   H     H_    0.759923 0.313033 0.935745 0.145979
C35   C     C_3   0.310094 0.740275 0.209578 -0.358614
C36   C     C_3   0.689915 0.240171 0.790404 -0.358605
H11   H     H_    0.347856 0.797517 0.169289 0.132068
H12   H     H_    0.652150 0.297332 0.830708 0.132071
H13   H     H_    0.325162 0.591014 0.226431 0.180216
H14   H     H_    0.674860 0.090909 0.773522 0.180236
H15   H     H_    0.165751 0.620035 0.277025 0.159000
H16   H     H_    0.834268 0.120156 0.722925 0.158984
C37   C     C_3   0.185991 0.765944 0.290794 -0.383107
C38   C     C_3   0.814013 0.266057 0.709189 -0.383120
C39   C     C_3   0.216920 0.063311 0.210211 -0.378465
C40   C     C_3   0.783061 0.563309 0.789839 -0.378469
C41   C     C_3   0.187572 0.860235 0.187608 0.043645
C42   C     C_3   0.812426 0.360239 0.812396 0.043657
H17   H     H_    0.183092 0.147278 0.247831 0.126171
H18   H     H_    0.816880 0.647358 0.752238 0.126168
C43   C     C_3   0.312708 0.851640 0.310068 0.005585
C44   C     C_3   0.687290 0.351638 0.689936 0.005575
C45   C     C_3   0.258618 0.765254 0.363903 0.180326
C46   C     C_3   0.741386 0.265359 0.636083 0.180363
C47   C     C_3   0.289680 0.059278 0.281095 0.179100
C48   C     C_3   0.710301 0.559272 0.718952 0.179097
H19   H     H_    0.287486 0.135283 0.352487 0.103861
H20   H     H_    0.712489 0.635356 0.647578 0.103847
H21   H     H_    0.150171 0.843872 0.327419 0.109580
H22   H     H_    0.849824 0.344067 0.672578 0.109584
O11   O     O_R   0.912980 0.203550 0.915410 -0.540973
O12   O     O_R   0.087020 0.703550 0.084590 -0.540971
O13   O     O_R   0.047270 0.535570 0.887960 -0.538944
O14   O     O_R   0.952730 0.035570 0.112040 -0.538942
C49   C     C_R   0.063904 0.368204 0.861716 0.687685
C50   C     C_R   0.936097 0.868198 0.138283 0.687682
O15   O     O_R   0.911030 0.532970 0.903270 -0.546472
O16   O     O_R   0.088970 0.032970 0.096730 -0.546474
O17   O     O_R   0.949820 0.708150 0.099970 -0.536718
O18   O     O_R   0.050180 0.208150 0.900030 -0.536716
C51   C     C_R   0.883599 0.365299 0.882445 0.687781
C52   C     C_R   0.116400 0.865298 0.117557 0.687777
O19   O     O_3   0.012900 0.375230 0.064480 -0.373866
O20   O     O_3   0.987100 0.875230 0.935520 -0.373867
V3    V     V_3+5 0.997610 0.648190 0.988040 1.397430
V4    V     V_3+5 0.002390 0.148190 0.011960 1.397425
H23   H     H_    0.515149 0.860200 0.156825 0.103901
H24   H     H_    0.484851 0.360109 0.843177 0.103906
O21   O     O_3   0.276914 0.583776 0.403233 -0.647789
H25   H     H_    0.270958 0.494524 0.345301 0.302295
O22   O     O_3   0.723103 0.083899 0.596718 -0.647789
H26   H     H_    0.729076 0.994591 0.654632 0.302224
H27   H     H_    0.217324 0.136172 0.137250 0.155390
H28   H     H_    0.782650 0.636089 0.862816 0.155385
O23   O     O_3   0.336743 0.157612 0.237781 -0.646265
H29   H     H_    0.332760 0.110833 0.167370 0.287985
O24   O     O_3   0.663229 0.657517 0.762284 -0.646270
H30   H     H_    0.667216 0.610674 0.832687 0.287995
H31   H     H_    0.256694 0.856085 0.430467 0.094891
H32   H     H_    0.743299 0.356258 0.569536 0.094884
H33   H     H_    0.801907 0.846847 0.435316 0.122098
H34   H     H_    0.198092 0.346915 0.564683 0.122112
H35   H     H_    0.924344 0.845075 0.474371 0.119600
H36   H     H_    0.075656 0.345186 0.525628 0.119604
H37   H     H_    0.814469 0.870038 0.025944 0.111468
H38   H     H_    0.185531 0.369997 0.974057 0.111465
H39   H     H_    0.218449 0.601008 0.121443 0.152712
H40   H     H_    0.781572 0.100902 0.878503 0.152710

loop_
_geom_bond_atom_site_label_1
_geom_bond_atom_site_label_2
_ccdc_geom_bond_type
C36   H14   S    
C22   C24   A    
H15   C37   S    
O21   H25   S    
C7    C29   A    
C34   H40   S    
C11   C13   A    
C33   H9    S    
C39   C47   S    
O2    C4    A    
C2    O7    A    
O19   V4    S    
O18   V4    S    
C23   C25   A    
O5    C3    A    
C4    C7    S    
C44   C46   S    
O12   V3    S    
C16   C20   A    
C19   C21   A    
C5    C29   A    
C14   H34   S    
H2    C24   S    
O14   C50   A    
C35   H11   S    
C36   H12   S    
O11   C51   A    
C3    C8    S    
C7    C27   A    
C35   C43   S    
C1    C44   S    
C30   H24   S    
C12   H36   S    
O20   V4    S    
C18   C26   A    
O11   V4    S    
O1    C3    A    
O23   H29   S    
C15   C17   A    
C19   C27   A    
C9    C31   A    
C39   H17   S    
C10   C32   A    
C46   O22   S    
C24   C26   A    
C33   C41   S    
O6    V2    S    
C49   O18   A    
O15   C51   A    
C46   H32   S    
C43   C45   S    
C40   H28   S    
C6    C30   A    
O16   C52   A    
C47   H19   S    
C40   C48   S    
C34   H10   S    
O13   C49   A    
C47   O23   S    
C42   C51   S    
O4    C2    A    
C41   C52   S    
C29   H23   S    
C33   C35   S    
C27   H5    S    
O12   C52   A    
O5    V1    S    
C5    H3    S    
O15   V3    S    
C40   H18   S    
C39   C41   S    
C16   C18   A    
O4    V2    S    
C9    H7    S    
C10   H8    S    
C38   H22   S    
C37   H21   S    
C34   C42   S    
C50   O17   A    
O6    C4    A    
C38   C46   S    
O20   V3    S    
O19   V3    S    
C32   C49   S    
O1    V2    S    
C5    C21   A    
O17   V3    S    
O2    V1    S    
H1    C23   S    
C40   C42   S    
C8    C28   A    
C15   C19   A    
C20   C28   A    
C18   C32   A    
O3    V1    S    
C36   C44   S    
C2    C43   S    
C34   C36   S    
C28   H6    S    
C37   C41   S    
C13   H33   S    
C6    H4    S    
C10   C12   A    
C26   H38   S    
O3    C1    A    
C33   H39   S    
C35   H13   S    
C9    C11   A    
C45   H31   S    
C37   C45   S    
C8    C30   A    
C31   C50   S    
C20   C22   A    
O7    V1    S    
C17   C25   A    
C1    O8    A    
C21   C23   A    
O8    V2    S    
O24   H30   S    
C14   C16   A    
C38   C42   S    
C17   C31   A    
C12   C14   A    
C48   O24   S    
C48   H20   S    
C6    C22   A    
O14   V4    S    
O13   V3    S    
C39   H27   S    
C13   C15   A    
C44   C48   S    
O9    V2    S    
O22   H26   S    
C45   O21   S    
C43   C47   S    
O10   V1    S    
C25   H37   S    
O16   V4    S    
H16   C38   S    
C11   H35   S    
