data_mof_unit_49425.cif
_audit_creation_date              2012-10-26T21:05:45-0400
_audit_creation_method            fapswitch 2.2
_symmetry_space_group_name_H-M    P1
_symmetry_Int_Tables_number       1
_space_group_crystal_system       triclinic
_cell_length_a                    13.124703
_cell_length_b                    9.095054
_cell_length_c                    7.774345
_cell_angle_alpha                 89.988766
_cell_angle_beta                  94.513291
_cell_angle_gamma                 89.993588
_cell_volume                      925.144924692

loop_
_atom_site_label
_atom_site_type_symbol
_atom_type_description
_atom_site_fract_x
_atom_site_fract_y
_atom_site_fract_z
_atom_type_partial_charge
C1    C     C_R   0.499984 0.219991 0.500008 0.550842
C2    C     C_R   0.861099 0.440531 0.695396 -0.122420
C3    C     C_R   0.131979 0.490237 0.605268 0.240008
C4    C     C_R   0.868004 0.509307 0.394759 0.240072
C5    C     C_R   0.025093 0.477469 0.580669 0.004535
C6    C     C_R   0.974878 0.522096 0.419380 0.004534
C7    C     C_1   0.499997 0.065362 0.500013 -0.013411
C8    C     C_1   0.500004 0.934638 0.499987 -0.013433
C9    C     C_R   0.500016 0.780009 0.499993 0.550831
C10   C     C_R   0.300406 0.504417 0.471498 0.563267
C11   C     C_R   0.699585 0.495487 0.528511 0.563292
C12   C     C_R   0.811222 0.485693 0.539566 -0.019186
C13   C     C_R   0.188755 0.514037 0.460472 -0.019185
C14   C     C_R   0.033867 0.576245 0.287972 0.153283
C15   C     C_R   0.966070 0.423337 0.712060 0.153357
C16   C     C_R   0.138848 0.559200 0.304653 -0.122408
Cl1   Cl    Cl    0.809935 0.485140 0.182515 -0.532889
Cl2   Cl    Cl    0.190117 0.513823 0.817612 -0.532809
Cu1   Cu    Cu3+1 0.500010 0.500000 0.669080 1.126191
Cu2   Cu    Cu3+1 0.499990 0.500000 0.330920 1.126211
H1    H     H_    0.817277 0.405709 0.800536 0.204931
H2    H     H_    0.182649 0.594081 0.199513 0.204864
I1    I     I_    0.981034 0.718522 0.080710 -0.162844
I2    I     I_    0.018772 0.280848 0.919234 -0.162438
N1    N     N_1   0.499980 0.500000 0.076820 -0.042109
N2    N     N_1   0.500020 0.500000 0.923180 -0.042108
O1    O     O_R   0.500000 0.288400 0.642760 -0.500007
O2    O     O_R   0.500000 0.711600 0.357240 -0.500040
O3    O     O_R   0.500000 0.288400 0.357240 -0.496056
O4    O     O_R   0.500000 0.711600 0.642760 -0.496101
O5    O     O_R   0.349000 0.500000 0.619590 -0.444918
O6    O     O_R   0.651000 0.500000 0.380410 -0.444932
O7    O     O_R   0.348990 0.500000 0.334020 -0.509439
O8    O     O_R   0.651010 0.500000 0.665980 -0.509482

loop_
_geom_bond_atom_site_label_1
_geom_bond_atom_site_label_2
_ccdc_geom_bond_type
C14   I1    S    
C11   C12   S    
C6    C14   A    
Cu1   O1    S    
Cu1   Cu2   S    
C3    C13   A    
C2    C12   A    
C2    H1    S    
C1    O3    A    
Cu1   O5    S    
C7    C8    T    
C2    C15   A    
C9    O4    A    
Cu2   O7    S    
C15   I2    S    
C11   O6    A    
C10   O7    A    
Cu2   O3    S    
C5    C6    A    
C14   C16   A    
C5    C15   A    
C4    C12   A    
Cu2   N1    S    
C4    Cl1   S    
C3    Cl2   S    
C4    C6    A    
Cu2   O6    S    
C13   C16   A    
C1    O1    A    
Cu1   N2    S    
C16   H2    S    
Cu2   O2    S    
N1    N2    T    
C1    C7    S    
Cu1   O4    S    
C10   O5    A    
Cu1   O8    S    
C11   O8    A    
C9    O2    A    
C8    C9    S    
C3    C5    A    
C10   C13   S    
