data_mof_unit_60855.cif
_audit_creation_date              2013-03-05T16:34:24-0500
_audit_creation_method            fapswitch 2.2
_symmetry_space_group_name_H-M    P1
_symmetry_Int_Tables_number       1
_space_group_crystal_system       triclinic
_cell_length_a                    25.994055
_cell_length_b                    36.284409
_cell_length_c                    36.290395
_cell_angle_alpha                 90.018829
_cell_angle_beta                  89.98978
_cell_angle_gamma                 90.100189
_cell_volume                      34228.2809589

loop_
_atom_site_label
_atom_site_type_symbol
_atom_site_description
_atom_site_fract_x
_atom_site_fract_y
_atom_site_fract_z
_atom_type_partial_charge
Zn1   Zn    Zn3+2 0.206610 0.530520 0.219480 0.995937
Zn2   Zn    Zn3+2 0.206610 0.530520 0.780520 1.022539
Zn3   Zn    Zn3+2 0.793390 0.530520 0.219480 1.005824
Zn4   Zn    Zn3+2 0.793390 0.530520 0.780520 1.026239
Zn5   Zn    Zn3+2 0.706610 0.030520 0.219480 1.020737
Zn6   Zn    Zn3+2 0.706610 0.030520 0.780520 1.023604
Zn7   Zn    Zn3+2 0.293390 0.030520 0.219480 1.023857
Zn8   Zn    Zn3+2 0.293390 0.030520 0.780520 1.026759
Zn9   Zn    Zn3+2 0.706610 0.530520 0.719480 1.020246
Zn10  Zn    Zn3+2 0.706610 0.530520 0.280520 1.034688
Zn11  Zn    Zn3+2 0.293390 0.530520 0.719480 1.024685
Zn12  Zn    Zn3+2 0.293390 0.530520 0.280520 1.030806
Zn13  Zn    Zn3+2 0.206610 0.030520 0.719480 1.018592
Zn14  Zn    Zn3+2 0.206610 0.030520 0.280520 1.023076
Zn15  Zn    Zn3+2 0.793390 0.030520 0.719480 1.023214
Zn16  Zn    Zn3+2 0.793390 0.030520 0.280520 1.027672
Zn17  Zn    Zn3+2 0.293390 0.469490 0.219490 1.025224
Zn18  Zn    Zn3+2 0.293390 0.469490 0.780510 1.022496
Zn19  Zn    Zn3+2 0.706610 0.469490 0.219490 1.028478
Zn20  Zn    Zn3+2 0.706610 0.469490 0.780510 1.026092
Zn21  Zn    Zn3+2 0.793390 0.969490 0.219490 1.023761
Zn22  Zn    Zn3+2 0.793390 0.969490 0.780510 1.022804
Zn23  Zn    Zn3+2 0.206610 0.969490 0.219490 1.027993
Zn24  Zn    Zn3+2 0.206610 0.969490 0.780510 1.026836
Zn25  Zn    Zn3+2 0.793390 0.469490 0.719490 1.024927
Zn26  Zn    Zn3+2 0.793390 0.469490 0.280510 1.042833
Zn27  Zn    Zn3+2 0.206610 0.469490 0.719490 1.027899
Zn28  Zn    Zn3+2 0.206610 0.469490 0.280510 1.048669
Zn29  Zn    Zn3+2 0.293390 0.969490 0.719490 1.025911
Zn30  Zn    Zn3+2 0.293390 0.969490 0.280510 1.023520
Zn31  Zn    Zn3+2 0.706610 0.969490 0.719490 1.028558
Zn32  Zn    Zn3+2 0.706610 0.969490 0.280510 1.026419
O1    O     O_3   0.250000 0.500000 0.250000 -0.511880
O2    O     O_3   0.250000 0.500000 0.750000 -0.511092
O3    O     O_3   0.750000 0.500000 0.250000 -0.511916
O4    O     O_3   0.750000 0.500000 0.750000 -0.511049
O5    O     O_3   0.750000 0.000000 0.250000 -0.511193
O6    O     O_3   0.750000 0.000000 0.750000 -0.511096
O7    O     O_3   0.250000 0.000000 0.250000 -0.511091
O8    O     O_3   0.250000 0.000000 0.750000 -0.511013
O9    O     O_R   0.365800 0.521360 0.271360 -0.630107
O10   O     O_R   0.365800 0.521360 0.728640 -0.633849
O11   O     O_R   0.634200 0.521360 0.271360 -0.632430
O12   O     O_R   0.634200 0.521360 0.728640 -0.642021
O13   O     O_R   0.865800 0.021360 0.271360 -0.633209
O14   O     O_R   0.865800 0.021360 0.728640 -0.634367
O15   O     O_R   0.134200 0.021360 0.271360 -0.641378
O16   O     O_R   0.134200 0.021360 0.728640 -0.642648
O17   O     O_R   0.865800 0.521360 0.771360 -0.633207
O18   O     O_R   0.865800 0.521360 0.228640 -0.632616
O19   O     O_R   0.134200 0.521360 0.771360 -0.641159
O20   O     O_R   0.134200 0.521360 0.228640 -0.639618
O21   O     O_R   0.365800 0.021360 0.771360 -0.633200
O22   O     O_R   0.365800 0.021360 0.228640 -0.633553
O23   O     O_R   0.634200 0.021360 0.771360 -0.641046
O24   O     O_R   0.634200 0.021360 0.228640 -0.641396
O25   O     O_R   0.280370 0.478660 0.168540 -0.640425
O26   O     O_R   0.280370 0.478660 0.831460 -0.620191
O27   O     O_R   0.719630 0.478660 0.168540 -0.638853
O28   O     O_R   0.719630 0.478660 0.831460 -0.614408
O29   O     O_R   0.780370 0.978660 0.168540 -0.617653
O30   O     O_R   0.780370 0.978660 0.831460 -0.620461
O31   O     O_R   0.219630 0.978660 0.168540 -0.611030
O32   O     O_R   0.219630 0.978660 0.831460 -0.614252
O33   O     O_R   0.780370 0.478660 0.668540 -0.617350
O34   O     O_R   0.780370 0.478660 0.331460 -0.619650
O35   O     O_R   0.219630 0.478660 0.668540 -0.611964
O36   O     O_R   0.219630 0.478660 0.331460 -0.613851
O37   O     O_R   0.280370 0.978660 0.668540 -0.615892
O38   O     O_R   0.280370 0.978660 0.331460 -0.619321
O39   O     O_R   0.719630 0.978660 0.668540 -0.610694
O40   O     O_R   0.719630 0.978660 0.331460 -0.613945
O41   O     O_R   0.280390 0.418540 0.228640 -0.613066
O42   O     O_R   0.280390 0.418540 0.771360 -0.638635
O43   O     O_R   0.719610 0.418540 0.228640 -0.610572
O44   O     O_R   0.719610 0.418540 0.771360 -0.635536
O45   O     O_R   0.780390 0.918540 0.228640 -0.638131
O46   O     O_R   0.780390 0.918540 0.771360 -0.638829
O47   O     O_R   0.219610 0.918540 0.228640 -0.634782
O48   O     O_R   0.219610 0.918540 0.771360 -0.635621
O49   O     O_R   0.780390 0.418540 0.728640 -0.637746
O50   O     O_R   0.780390 0.418540 0.271360 -0.640543
O51   O     O_R   0.219610 0.418540 0.728640 -0.634684
O52   O     O_R   0.219610 0.418540 0.271360 -0.637014
O53   O     O_R   0.280390 0.918540 0.728640 -0.637453
O54   O     O_R   0.280390 0.918540 0.271360 -0.638464
O55   O     O_R   0.719610 0.918540 0.728640 -0.634436
O56   O     O_R   0.719610 0.918540 0.271360 -0.635432
O57   O     O_R   0.280340 0.581460 0.271360 -0.639689
O58   O     O_R   0.280340 0.581460 0.728640 -0.624531
O59   O     O_R   0.719660 0.581460 0.271360 -0.638561
O60   O     O_R   0.719660 0.581460 0.728640 -0.626653
O61   O     O_R   0.780340 0.081460 0.271360 -0.623536
O62   O     O_R   0.780340 0.081460 0.728640 -0.625142
O63   O     O_R   0.219660 0.081460 0.271360 -0.625732
O64   O     O_R   0.219660 0.081460 0.728640 -0.627230
O65   O     O_R   0.780340 0.581460 0.771360 -0.624091
O66   O     O_R   0.780340 0.581460 0.228640 -0.626163
O67   O     O_R   0.219660 0.581460 0.771360 -0.626027
O68   O     O_R   0.219660 0.581460 0.228640 -0.628365
O69   O     O_R   0.280340 0.081460 0.771360 -0.623640
O70   O     O_R   0.280340 0.081460 0.228640 -0.624514
O71   O     O_R   0.719660 0.081460 0.771360 -0.625342
O72   O     O_R   0.719660 0.081460 0.228640 -0.626361
O73   O     O_R   0.219630 0.521370 0.168530 -0.629938
O74   O     O_R   0.219630 0.521370 0.831470 -0.624581
O75   O     O_R   0.780370 0.521370 0.168530 -0.633517
O76   O     O_R   0.780370 0.521370 0.831470 -0.629884
O77   O     O_R   0.719630 0.021370 0.168530 -0.630119
O78   O     O_R   0.719630 0.021370 0.831470 -0.623795
O79   O     O_R   0.280370 0.021370 0.168530 -0.636527
O80   O     O_R   0.280370 0.021370 0.831470 -0.629875
O81   O     O_R   0.719630 0.521370 0.668530 -0.629854
O82   O     O_R   0.719630 0.521370 0.331470 -0.608721
O83   O     O_R   0.280370 0.521370 0.668530 -0.634398
O84   O     O_R   0.280370 0.521370 0.331470 -0.610391
O85   O     O_R   0.219630 0.021370 0.668530 -0.632163
O86   O     O_R   0.219630 0.021370 0.331470 -0.625110
O87   O     O_R   0.780370 0.021370 0.668530 -0.636484
O88   O     O_R   0.780370 0.021370 0.331470 -0.629399
O89   O     O_R   0.365810 0.478650 0.228650 -0.615809
O90   O     O_R   0.365810 0.478650 0.771350 -0.614276
O91   O     O_R   0.634190 0.478650 0.228650 -0.610424
O92   O     O_R   0.634190 0.478650 0.771350 -0.597109
O93   O     O_R   0.865810 0.978650 0.228650 -0.614939
O94   O     O_R   0.865810 0.978650 0.771350 -0.613999
O95   O     O_R   0.134190 0.978650 0.228650 -0.597941
O96   O     O_R   0.134190 0.978650 0.771350 -0.596824
O97   O     O_R   0.865810 0.478650 0.728650 -0.614798
O98   O     O_R   0.865810 0.478650 0.271350 -0.616716
O99   O     O_R   0.134190 0.478650 0.728650 -0.597865
O100  O     O_R   0.134190 0.478650 0.271350 -0.599588
O101  O     O_R   0.365810 0.978650 0.728650 -0.614919
O102  O     O_R   0.365810 0.978650 0.271350 -0.614723
O103  O     O_R   0.634190 0.978650 0.728650 -0.598055
O104  O     O_R   0.634190 0.978650 0.271350 -0.597668
C1    C     C_R   0.390157 0.500330 0.249729 0.893553
C2    C     C_R   0.390132 0.499759 0.749658 0.895433
C3    C     C_R   0.609841 0.500290 0.249690 0.882314
C4    C     C_R   0.609827 0.499919 0.750007 0.859912
C5    C     C_R   0.890136 0.999751 0.250345 0.894184
C6    C     C_R   0.890132 0.999759 0.749659 0.895778
C7    C     C_R   0.109823 0.999915 0.250003 0.858677
C8    C     C_R   0.109827 0.999921 0.750010 0.860311
C9    C     C_R   0.890136 0.499751 0.750345 0.894270
C10   C     C_R   0.890132 0.499759 0.249658 0.894730
C11   C     C_R   0.109823 0.499914 0.750004 0.858769
C12   C     C_R   0.109827 0.499920 0.250008 0.860001
C13   C     C_R   0.390136 0.999752 0.750345 0.894026
C14   C     C_R   0.390132 0.999760 0.249659 0.895159
C15   C     C_R   0.609823 0.999915 0.750003 0.858389
C16   C     C_R   0.609827 0.999920 0.250008 0.859827
C17   C     C_R   0.249985 0.499999 0.151019 0.803889
C18   C     C_R   0.249976 0.500024 0.848980 0.833011
C19   C     C_R   0.750015 0.500004 0.151001 0.803017
C20   C     C_R   0.750019 0.500021 0.848997 0.825010
C21   C     C_R   0.749997 0.000006 0.151019 0.836284
C22   C     C_R   0.749978 0.000024 0.848980 0.832912
C23   C     C_R   0.250002 0.000011 0.151002 0.828496
C24   C     C_R   0.250016 0.000023 0.848998 0.825299
C25   C     C_R   0.750014 0.500015 0.651023 0.836836
C26   C     C_R   0.750002 0.500040 0.348982 0.857257
C27   C     C_R   0.249989 0.500018 0.651005 0.828398
C28   C     C_R   0.249994 0.500037 0.349000 0.852198
C29   C     C_R   0.250000 0.000007 0.651019 0.837503
C30   C     C_R   0.249979 0.000025 0.348980 0.834168
C31   C     C_R   0.750003 0.000010 0.651002 0.828998
C32   C     C_R   0.750016 0.000022 0.348998 0.825800
C33   C     C_R   0.249997 0.401004 0.250020 0.841385
C34   C     C_R   0.249977 0.401006 0.749983 0.810422
C35   C     C_R   0.749965 0.401006 0.249990 0.838909
C36   C     C_R   0.749985 0.401004 0.750012 0.810716
C37   C     C_R   0.749981 0.901003 0.250011 0.809972
C38   C     C_R   0.749977 0.901006 0.749983 0.810482
C39   C     C_R   0.249980 0.901005 0.249981 0.810391
C40   C     C_R   0.249984 0.901004 0.750012 0.810948
C41   C     C_R   0.250042 0.599003 0.250006 0.820181
C42   C     C_R   0.250017 0.599005 0.749989 0.847287
C43   C     C_R   0.749998 0.599004 0.249977 0.826915
C44   C     C_R   0.750025 0.599003 0.750016 0.847066
C45   C     C_R   0.750023 0.099004 0.250017 0.847703
C46   C     C_R   0.750017 0.099005 0.749989 0.847712
C47   C     C_R   0.250019 0.099005 0.249990 0.847816
C48   C     C_R   0.250025 0.099003 0.750016 0.847441
C49   C     C_R   0.292754 0.769363 0.263414 -0.164177
C50   C     C_R   0.288394 0.769339 0.731038 -0.162321
C51   C     C_R   0.706097 0.769207 0.261459 -0.163615
C52   C     C_R   0.710739 0.769193 0.731929 -0.161768
C53   C     C_R   0.790684 0.269366 0.266263 -0.162847
C54   C     C_R   0.788580 0.269339 0.731232 -0.162126
C55   C     C_R   0.209426 0.269215 0.266470 -0.162065
C56   C     C_R   0.210075 0.269192 0.732691 -0.161482
C57   C     C_R   0.789235 0.769361 0.768038 -0.163227
C58   C     C_R   0.793684 0.769339 0.238425 -0.164724
C59   C     C_R   0.211589 0.769215 0.768986 -0.162250
C60   C     C_R   0.207417 0.769185 0.236416 -0.163802
C61   C     C_R   0.289899 0.269361 0.767275 -0.162679
C62   C     C_R   0.290697 0.269343 0.233640 -0.146566
C63   C     C_R   0.711405 0.269214 0.768793 -0.161831
C64   C     C_R   0.709157 0.269192 0.233782 -0.145482
H1    H     H_    0.325927 0.784125 0.273911 0.150919
H2    H     H_    0.318257 0.784079 0.716285 0.153515
H3    H     H_    0.672029 0.783848 0.270430 0.150805
H4    H     H_    0.680196 0.783819 0.717875 0.153747
H5    H     H_    0.822378 0.284126 0.278888 0.153398
H6    H     H_    0.818587 0.284080 0.716629 0.153310
H7    H     H_    0.177809 0.283858 0.279246 0.153775
H8    H     H_    0.179016 0.283818 0.719231 0.153509
H9    H     H_    0.819751 0.784119 0.782073 0.152946
H10   H     H_    0.827746 0.784081 0.229478 0.151899
H11   H     H_    0.181708 0.783858 0.783752 0.153518
H12   H     H_    0.174208 0.783806 0.225909 0.152520
H13   H     H_    0.320932 0.284119 0.780716 0.153017
H14   H     H_    0.322298 0.284085 0.220878 0.163507
H15   H     H_    0.681380 0.283858 0.783409 0.153616
H16   H     H_    0.677434 0.283817 0.221139 0.164210
C65   C     C_R   0.250060 0.788620 0.249908 0.153332
C66   C     C_R   0.249980 0.788622 0.750021 0.151220
C67   C     C_R   0.749888 0.788619 0.249961 0.153596
C68   C     C_R   0.749970 0.788623 0.749970 0.151340
C69   C     C_R   0.749902 0.288625 0.250009 0.146892
C70   C     C_R   0.749980 0.288622 0.750022 0.151209
C71   C     C_R   0.250051 0.288625 0.250065 0.147141
C72   C     C_R   0.249971 0.288623 0.749969 0.151379
C73   C     C_R   0.207461 0.730641 0.236438 -0.159570
C74   C     C_R   0.211613 0.730670 0.768968 -0.158981
C75   C     C_R   0.793695 0.730795 0.238398 -0.158517
C76   C     C_R   0.789268 0.730816 0.768065 -0.158556
C77   C     C_R   0.709198 0.230647 0.233804 -0.156740
C78   C     C_R   0.711429 0.230670 0.768775 -0.157974
C79   C     C_R   0.290712 0.230798 0.233617 -0.156179
C80   C     C_R   0.289933 0.230817 0.767302 -0.157619
C81   C     C_R   0.710773 0.730648 0.731956 -0.159017
C82   C     C_R   0.706108 0.730662 0.261430 -0.168429
C83   C     C_R   0.288418 0.730794 0.731020 -0.158372
C84   C     C_R   0.292799 0.730817 0.263435 -0.167915
C85   C     C_R   0.210109 0.230648 0.732718 -0.158902
C86   C     C_R   0.209442 0.230671 0.266447 -0.155698
C87   C     C_R   0.788603 0.230795 0.731214 -0.158291
C88   C     C_R   0.790725 0.230822 0.266287 -0.154835
C89   C     C_R   0.250148 0.711383 0.249952 0.153276
C90   C     C_R   0.250027 0.711387 0.749985 0.150920
C91   C     C_R   0.749911 0.711383 0.249904 0.153544
C92   C     C_R   0.750037 0.711386 0.750024 0.150985
C93   C     C_R   0.749984 0.211388 0.250056 0.148644
C94   C     C_R   0.750028 0.211387 0.749985 0.150932
C95   C     C_R   0.250082 0.211389 0.250018 0.148717
C96   C     C_R   0.250037 0.211386 0.750024 0.151018
C97   C     C_1   0.250000 0.828271 0.249912 -0.059150
C98   C     C_1   0.249957 0.828272 0.750035 -0.057170
C99   C     C_1   0.749893 0.828270 0.249997 -0.059455
C100  C     C_1   0.749937 0.828273 0.749950 -0.057511
C101  C     C_1   0.749878 0.328275 0.249980 -0.042863
C102  C     C_1   0.749957 0.328272 0.750035 -0.057079
C103  C     C_1   0.250019 0.328274 0.250068 -0.042905
C104  C     C_1   0.249938 0.328273 0.749950 -0.057233
C105  C     C_1   0.250165 0.671734 0.249991 -0.058055
C106  C     C_1   0.250049 0.671737 0.749970 -0.048157
C107  C     C_1   0.749946 0.671734 0.249909 -0.057108
C108  C     C_1   0.750069 0.671736 0.750045 -0.048344
C109  C     C_1   0.750033 0.171738 0.250065 -0.044767
C110  C     C_1   0.750049 0.171737 0.749970 -0.047609
C111  C     C_1   0.250086 0.171739 0.249990 -0.045021
C112  C     C_1   0.250069 0.171736 0.750045 -0.047891
C113  C     C_1   0.250131 0.638518 0.250011 -0.114128
C114  C     C_1   0.250048 0.638522 0.749969 -0.107662
C115  C     C_1   0.749980 0.638519 0.249931 -0.114314
C116  C     C_1   0.750069 0.638521 0.750046 -0.107795
C117  C     C_1   0.750051 0.138521 0.250056 -0.105891
C118  C     C_1   0.750049 0.138522 0.749969 -0.107278
C119  C     C_1   0.250067 0.138523 0.249980 -0.106277
C120  C     C_1   0.250069 0.138520 0.750046 -0.107599
C121  C     C_1   0.249968 0.861487 0.249932 -0.112411
C122  C     C_1   0.249956 0.861487 0.750034 -0.111427
C123  C     C_1   0.749923 0.861486 0.250014 -0.112933
C124  C     C_1   0.749935 0.861488 0.749951 -0.111757
C125  C     C_1   0.749896 0.361490 0.249972 -0.095819
C126  C     C_1   0.749956 0.361487 0.750034 -0.111648
C127  C     C_1   0.249997 0.361489 0.250056 -0.097619
C128  C     C_1   0.249936 0.361488 0.749951 -0.111754
C129  C     C_R   0.053738 0.479236 0.184053 -0.128986
C130  C     C_R   0.053698 0.479629 0.816080 -0.128273
C131  C     C_R   0.946516 0.479943 0.183687 -0.133813
C132  C     C_R   0.946481 0.480317 0.816431 -0.132767
C133  C     C_R   0.553737 0.979232 0.184054 -0.128948
C134  C     C_R   0.553697 0.979615 0.816075 -0.128031
C135  C     C_R   0.446516 0.979937 0.183689 -0.133938
C136  C     C_R   0.446479 0.980301 0.816425 -0.132690
C137  C     C_R   0.553738 0.479314 0.684026 -0.128506
C138  C     C_R   0.553737 0.567150 0.232021 -0.124455
C139  C     C_R   0.446517 0.480024 0.683660 -0.132887
C140  C     C_R   0.446526 0.567147 0.232182 -0.125757
C141  C     C_R   0.053739 0.979184 0.684072 -0.129299
C142  C     C_R   0.053700 0.979590 0.316066 -0.128486
C143  C     C_R   0.946518 0.979895 0.683703 -0.133617
C144  C     C_R   0.946483 0.980279 0.316420 -0.132792
C145  C     C_R   0.026934 0.469947 0.152113 -0.095189
C146  C     C_R   0.026877 0.470548 0.848072 -0.092953
C147  C     C_R   0.973481 0.470301 0.151930 -0.092441
C148  C     C_R   0.973426 0.470892 0.848247 -0.088860
C149  C     C_R   0.526933 0.969940 0.152115 -0.096156
C150  C     C_R   0.526876 0.970525 0.848064 -0.093866
C151  C     C_R   0.473479 0.970292 0.151933 -0.093757
C152  C     C_R   0.473424 0.970868 0.848239 -0.088797
C153  C     C_R   0.526935 0.470068 0.652074 -0.093057
C154  C     C_R   0.526914 0.599342 0.223871 -0.128285
C155  C     C_R   0.473482 0.470424 0.651891 -0.089672
C156  C     C_R   0.473469 0.599337 0.223941 -0.127348
C157  C     C_R   0.026937 0.969868 0.652140 -0.095294
C158  C     C_R   0.026881 0.970487 0.348053 -0.092103
C159  C     C_R   0.973483 0.970224 0.651955 -0.091682
C160  C     C_R   0.973428 0.970833 0.348229 -0.089239
H17   H     H_    0.047752 0.462102 0.127496 0.192205
H18   H     H_    0.047681 0.462868 0.872738 0.185262
H19   H     H_    0.952772 0.462737 0.127167 0.192556
H20   H     H_    0.952703 0.463485 0.873052 0.186818
H21   H     H_    0.547750 0.962094 0.127498 0.191158
H22   H     H_    0.547679 0.962839 0.872728 0.184057
H23   H     H_    0.452770 0.962726 0.127171 0.191801
H24   H     H_    0.452700 0.963454 0.873042 0.187012
H25   H     H_    0.547752 0.462254 0.627447 0.192292
H26   H     H_    0.547716 0.624300 0.217060 0.138297
H27   H     H_    0.452774 0.462893 0.627119 0.192394
H28   H     H_    0.452753 0.624295 0.217187 0.138623
H29   H     H_    0.047755 0.962002 0.627529 0.192500
H30   H     H_    0.047686 0.962790 0.372713 0.187513
H31   H     H_    0.952775 0.962642 0.627197 0.192677
H32   H     H_    0.952706 0.963410 0.373030 0.187223
C161  C     C_R   0.472840 0.990038 0.216354 0.050622
C162  C     C_R   0.472821 0.990216 0.783708 0.050430
C163  C     C_R   0.527260 0.989665 0.216526 0.060644
C164  C     C_R   0.527240 0.989852 0.783544 0.061216
C165  C     C_R   0.972840 0.490040 0.216353 0.050143
C166  C     C_R   0.972821 0.490223 0.783711 0.050502
C167  C     C_R   0.027260 0.489666 0.216526 0.060220
C168  C     C_R   0.027241 0.489859 0.783547 0.060991
C169  C     C_R   0.972841 0.990016 0.716362 0.050338
C170  C     C_R   0.972822 0.990205 0.283705 0.050474
C171  C     C_R   0.027261 0.989641 0.716535 0.060629
C172  C     C_R   0.027242 0.989839 0.283540 0.060623
C173  C     C_R   0.472840 0.490081 0.716340 0.049954
C174  C     C_R   0.472856 0.534194 0.241144 0.060458
C175  C     C_R   0.527261 0.489706 0.716511 0.060233
C176  C     C_R   0.527280 0.534205 0.241028 0.062801
C177  C     C_R   0.053798 0.498824 0.249319 -0.242483
C178  C     C_R   0.053796 0.498818 0.750704 -0.242010
C179  C     C_R   0.946134 0.499506 0.249019 -0.244458
C180  C     C_R   0.946136 0.499487 0.750989 -0.244290
C181  C     C_R   0.553798 0.998825 0.249319 -0.242258
C182  C     C_R   0.553796 0.998819 0.750704 -0.241914
C183  C     C_R   0.446134 0.999506 0.249020 -0.244621
C184  C     C_R   0.446136 0.999488 0.750988 -0.244197
C185  C     C_R   0.553798 0.498823 0.749316 -0.242238
C186  C     C_R   0.553817 0.501088 0.248774 -0.239460
C187  C     C_R   0.446135 0.499505 0.749018 -0.244610
C188  C     C_R   0.446187 0.501073 0.249131 -0.239491
C189  C     C_R   0.053798 0.998826 0.749321 -0.242305
C190  C     C_R   0.053796 0.998819 0.250703 -0.241986
C191  C     C_R   0.946135 0.999507 0.749020 -0.244731
C192  C     C_R   0.946136 0.999488 0.250989 -0.244313
C193  C     C_R   0.026776 0.507579 0.281778 0.210107
C194  C     C_R   0.026792 0.507363 0.718195 0.209927
C195  C     C_R   0.972945 0.508051 0.281665 0.214095
C196  C     C_R   0.972966 0.507838 0.718301 0.213995
C197  C     C_R   0.526776 0.007582 0.281777 0.209833
C198  C     C_R   0.526792 0.007373 0.718196 0.209959
C199  C     C_R   0.472945 0.008055 0.281665 0.213966
C200  C     C_R   0.472966 0.007847 0.718302 0.214082
C201  C     C_R   0.526776 0.507536 0.781786 0.210761
C202  C     C_R   0.526852 0.468089 0.255328 0.218246
C203  C     C_R   0.472946 0.508010 0.781674 0.214730
C204  C     C_R   0.473060 0.468035 0.255747 0.206923
C205  C     C_R   0.026776 0.007607 0.781773 0.209904
C206  C     C_R   0.026792 0.007384 0.218198 0.209993
C207  C     C_R   0.972944 0.008078 0.781660 0.213920
C208  C     C_R   0.972965 0.007857 0.218305 0.213997
C209  C     C_R   0.300889 0.498551 0.519504 0.228422
C210  C     C_R   0.300844 0.499300 0.480465 0.216809
C211  C     C_R   0.699135 0.497984 0.519521 0.228600
C212  C     C_R   0.699160 0.498734 0.480481 0.216759
C213  C     C_R   0.800707 0.994419 0.519486 0.230211
C214  C     C_R   0.800772 0.995119 0.480438 0.227578
C215  C     C_R   0.199493 0.993372 0.519502 0.230344
C216  C     C_R   0.199397 0.994070 0.480453 0.227878
C217  C     C_R   0.800785 0.494548 0.019480 0.231604
C218  C     C_R   0.800839 0.495249 0.980432 0.225603
C219  C     C_R   0.198979 0.496025 0.019498 0.231275
C220  C     C_R   0.198962 0.496740 0.980449 0.224740
C221  C     C_R   0.300561 0.993704 0.019486 0.230055
C222  C     C_R   0.300646 0.994400 0.980437 0.227704
C223  C     C_R   0.698931 0.997059 0.019504 0.229485
C224  C     C_R   0.698936 0.997777 0.980455 0.225816
C225  C     C_R   0.253558 0.498417 0.538670 -0.020057
C226  C     C_R   0.253478 0.500163 0.461365 -0.020504
C227  C     C_R   0.746465 0.498390 0.538675 -0.019665
C228  C     C_R   0.746503 0.500140 0.461362 -0.020075
C229  C     C_R   0.753656 0.998089 0.538658 -0.022368
C230  C     C_R   0.753835 0.999774 0.461349 -0.022455
C231  C     C_R   0.246392 0.998053 0.538662 -0.022020
C232  C     C_R   0.246138 0.999735 0.461346 -0.022059
C233  C     C_R   0.753714 0.498075 0.038656 -0.014172
C234  C     C_R   0.753871 0.499764 0.961347 -0.019363
C235  C     C_R   0.246229 0.498133 0.038661 -0.014313
C236  C     C_R   0.246167 0.499850 0.961345 -0.018893
C237  C     C_R   0.253626 0.998064 0.038658 -0.022142
C238  C     C_R   0.253853 0.999739 0.961349 -0.022322
C239  C     C_R   0.746244 0.998204 0.038663 -0.021963
C240  C     C_R   0.746239 0.999924 0.961348 -0.021691
C241  C     C_R   0.207147 0.499125 0.519232 -0.190983
C242  C     C_R   0.207108 0.500056 0.480878 -0.189868
C243  C     C_R   0.792855 0.499633 0.519218 -0.191396
C244  C     C_R   0.792871 0.500565 0.480862 -0.190108
C245  C     C_R   0.707658 0.002497 0.519218 -0.192171
C246  C     C_R   0.707759 0.003405 0.480868 -0.190210
C247  C     C_R   0.292202 0.003458 0.519205 -0.192459
C248  C     C_R   0.292061 0.004364 0.480853 -0.190478
C249  C     C_R   0.707688 0.502344 0.019219 -0.211411
C250  C     C_R   0.707778 0.503255 0.980869 -0.193583
C251  C     C_R   0.292479 0.501018 0.019207 -0.211504
C252  C     C_R   0.292440 0.501941 0.980855 -0.193899
C253  C     C_R   0.207766 0.003147 0.019218 -0.193457
C254  C     C_R   0.207893 0.004050 0.980868 -0.191704
C255  C     C_R   0.792586 0.000144 0.019206 -0.193954
C256  C     C_R   0.792578 0.001068 0.980854 -0.191826
C257  C     C_1   0.251823 0.499029 0.578357 0.068521
C258  C     C_1   0.251630 0.499934 0.421669 0.069688
C259  C     C_1   0.748196 0.499015 0.578367 0.068809
C260  C     C_1   0.748349 0.499930 0.421660 0.069460
C261  C     C_1   0.751974 0.998852 0.578349 0.069702
C262  C     C_1   0.751909 0.999700 0.421658 0.067017
C263  C     C_1   0.248055 0.998835 0.578358 0.070061
C264  C     C_1   0.248065 0.999690 0.421649 0.067365
C265  C     C_1   0.752028 0.498835 0.078347 0.055829
C266  C     C_1   0.751935 0.499691 0.921656 0.063315
C267  C     C_1   0.247958 0.498851 0.078357 0.055614
C268  C     C_1   0.248085 0.499739 0.921648 0.063099
C269  C     C_1   0.251962 0.998843 0.078349 0.069238
C270  C     C_1   0.251922 0.999684 0.921657 0.066055
C271  C     C_1   0.747996 0.998893 0.078359 0.068942
C272  C     C_1   0.748137 0.999781 0.921650 0.065303
C273  C     C_1   0.250521 0.499874 0.388479 -0.063124
C274  C     C_1   0.250714 0.499533 0.611538 -0.069350
C275  C     C_1   0.749462 0.499879 0.388467 -0.066039
C276  C     C_1   0.749298 0.499525 0.611551 -0.073171
C277  C     C_1   0.750684 0.999760 0.388472 -0.069802
C278  C     C_1   0.750822 0.999455 0.611531 -0.070098
C279  C     C_1   0.249296 0.999762 0.388460 -0.073651
C280  C     C_1   0.249194 0.999447 0.611544 -0.073885
C281  C     C_1   0.750698 0.499753 0.888471 -0.071984
C282  C     C_1   0.750858 0.499439 0.111530 -0.087150
C283  C     C_1   0.249307 0.499776 0.888459 -0.075868
C284  C     C_1   0.249147 0.499435 0.111542 -0.087697
C285  C     C_1   0.250691 0.999754 0.888471 -0.070749
C286  C     C_1   0.250818 0.999454 0.111531 -0.070579
C287  C     C_1   0.749335 0.999795 0.888460 -0.074693
C288  C     C_1   0.749181 0.999457 0.111544 -0.074423
H33   H     H_    0.326005 0.716194 0.273945 0.149765
H34   H     H_    0.318299 0.716151 0.716253 0.155502
H35   H     H_    0.672049 0.715917 0.270380 0.149035
H36   H     H_    0.680256 0.715890 0.717921 0.155301
H37   H     H_    0.822450 0.216198 0.278928 0.155828
H38   H     H_    0.818628 0.216152 0.716598 0.155148
H39   H     H_    0.177838 0.215930 0.279207 0.155590
H40   H     H_    0.179076 0.215890 0.719277 0.154929
H41   H     H_    0.819811 0.716190 0.782119 0.155293
H42   H     H_    0.827768 0.716155 0.229432 0.154573
H43   H     H_    0.181750 0.715930 0.783721 0.155276
H44   H     H_    0.174284 0.715879 0.225947 0.154277
H45   H     H_    0.320992 0.216191 0.780763 0.155577
H46   H     H_    0.322326 0.216155 0.220837 0.158214
H47   H     H_    0.681422 0.215929 0.783378 0.155656
H48   H     H_    0.677507 0.215887 0.221177 0.158168
N1    N     N_R   0.054056 0.518634 0.314344 0.227129
O105  O     O_R   0.049113 0.552037 0.326871 -0.334988
O106  O     O_R   0.078099 0.494197 0.334075 -0.330557
N2    N     N_R   0.054088 0.518215 0.685569 0.227378
O107  O     O_R   0.049310 0.551584 0.672943 -0.335258
O108  O     O_R   0.077915 0.493624 0.665873 -0.328925
N3    N     N_R   0.945579 0.517715 0.314765 0.241234
O109  O     O_R   0.957098 0.502045 0.345929 -0.304017
O110  O     O_R   0.910354 0.543151 0.314140 -0.384637
N4    N     N_R   0.945626 0.517332 0.685154 0.241707
O111  O     O_R   0.957137 0.501479 0.654068 -0.303725
O112  O     O_R   0.910452 0.542807 0.685651 -0.383944
N5    N     N_R   0.554057 0.018640 0.314343 0.227328
O113  O     O_R   0.549111 0.052044 0.326867 -0.332061
O114  O     O_R   0.578103 0.994206 0.334074 -0.329261
N6    N     N_R   0.554089 0.018234 0.685573 0.227314
O115  O     O_R   0.549303 0.051605 0.672953 -0.335364
O116  O     O_R   0.577925 0.993650 0.665875 -0.328582
N7    N     N_R   0.445579 0.017721 0.314764 0.241739
O117  O     O_R   0.457100 0.002054 0.345929 -0.303422
O118  O     O_R   0.410354 0.043156 0.314136 -0.381937
N8    N     N_R   0.445626 0.017349 0.685157 0.241700
O119  O     O_R   0.457139 0.001504 0.654068 -0.303258
O120  O     O_R   0.410449 0.042822 0.685661 -0.384204
N9    N     N_R   0.554056 0.518549 0.814367 0.226909
O121  O     O_R   0.549144 0.551945 0.826918 -0.339431
O122  O     O_R   0.578054 0.494081 0.834086 -0.331692
N10   N     N_R   0.554259 0.434985 0.264162 0.242209
O123  O     O_R   0.560650 0.409722 0.239151 -0.310895
O124  O     O_R   0.578818 0.432440 0.295283 -0.353892
N11   N     N_R   0.445581 0.517640 0.814785 0.241233
O125  O     O_R   0.457095 0.501933 0.845931 -0.308175
O126  O     O_R   0.410366 0.543084 0.814188 -0.386122
N12   N     N_R   0.445772 0.434779 0.264986 0.236339
O127  O     O_R   0.412873 0.434535 0.292018 -0.364382
O128  O     O_R   0.453502 0.404687 0.246320 -0.304180
N13   N     N_R   0.054056 0.018689 0.814331 0.227120
O129  O     O_R   0.049090 0.052096 0.826842 -0.335768
O130  O     O_R   0.078130 0.994273 0.834067 -0.329628
N14   N     N_R   0.054088 0.018255 0.185579 0.227255
O131  O     O_R   0.049293 0.051628 0.172964 -0.336321
O132  O     O_R   0.077937 0.993680 0.165878 -0.329268
N15   N     N_R   0.945577 0.017763 0.814753 0.241539
O133  O     O_R   0.957100 0.002116 0.845928 -0.304210
O134  O     O_R   0.910346 0.043193 0.814110 -0.384034
N16   N     N_R   0.945624 0.017368 0.185163 0.241655
O135  O     O_R   0.957137 0.001532 0.154069 -0.304321
O136  O     O_R   0.910447 0.042840 0.185675 -0.384417
H49   H     H_    0.095244 0.477661 0.183026 0.140194
H50   H     H_    0.095201 0.478050 0.817122 0.136918
H51   H     H_    0.904993 0.478957 0.182324 0.139271
H52   H     H_    0.904960 0.479310 0.817796 0.136530
H53   H     H_    0.595244 0.977659 0.183026 0.138554
H54   H     H_    0.595200 0.978037 0.817116 0.136446
H55   H     H_    0.404992 0.978950 0.182327 0.138030
H56   H     H_    0.404958 0.979294 0.817790 0.136495
H57   H     H_    0.595244 0.477735 0.682997 0.139146
H58   H     H_    0.595238 0.568377 0.230567 0.125001
H59   H     H_    0.404995 0.479036 0.682295 0.138294
H60   H     H_    0.405029 0.568408 0.230867 0.125276
H61   H     H_    0.095247 0.977610 0.683048 0.139268
H62   H     H_    0.095204 0.978011 0.317106 0.137521
H63   H     H_    0.904994 0.978913 0.682340 0.138360
H64   H     H_    0.904961 0.979276 0.317785 0.136545
N17   N     N_R   0.348552 0.497864 0.460445 0.239511
O137  O     O_R   0.357200 0.520450 0.433290 -0.330189
O138  O     O_R   0.383358 0.473612 0.469039 -0.273745
N18   N     N_R   0.348687 0.499342 0.539457 0.236275
O139  O     O_R   0.356600 0.476773 0.566724 -0.381542
O140  O     O_R   0.384265 0.523069 0.530761 -0.286754
N19   N     N_R   0.651479 0.496749 0.460477 0.239470
O141  O     O_R   0.642433 0.519231 0.433322 -0.329476
O142  O     O_R   0.617103 0.472099 0.469084 -0.274513
N20   N     N_R   0.651329 0.498229 0.539489 0.236253
O143  O     O_R   0.643815 0.475573 0.566761 -0.382009
O144  O     O_R   0.615341 0.521545 0.530804 -0.286179
N21   N     N_R   0.847933 0.989791 0.460405 0.231448
O145  O     O_R   0.859994 0.011397 0.433116 -0.362403
O146  O     O_R   0.878719 0.962915 0.469070 -0.310063
N22   N     N_R   0.848328 0.991420 0.539437 0.235614
O147  O     O_R   0.852653 0.968457 0.566792 -0.384470
O148  O     O_R   0.887391 0.012109 0.530666 -0.291382
N23   N     N_R   0.152451 0.987724 0.460435 0.231570
O149  O     O_R   0.139585 0.009061 0.433150 -0.362733
O150  O     O_R   0.122684 0.960190 0.469107 -0.310682
N24   N     N_R   0.152005 0.989345 0.539468 0.235387
O151  O     O_R   0.148541 0.966302 0.566827 -0.384691
O152  O     O_R   0.112184 0.009177 0.530705 -0.291103
N25   N     N_R   0.848028 0.490065 0.960395 0.231370
O153  O     O_R   0.859954 0.511707 0.933103 -0.363077
O154  O     O_R   0.878976 0.463284 0.969057 -0.311034
N26   N     N_R   0.848425 0.491693 0.039428 0.235637
O155  O     O_R   0.852887 0.468747 0.066785 -0.382493
O156  O     O_R   0.887366 0.512499 0.030653 -0.292613
N27   N     N_R   0.151485 0.492987 0.960428 0.231097
O157  O     O_R   0.140939 0.514976 0.933148 -0.360778
O158  O     O_R   0.118862 0.467164 0.969099 -0.310657
N28   N     N_R   0.151207 0.494596 0.039461 0.236292
O159  O     O_R   0.145290 0.471784 0.066801 -0.382490
O160  O     O_R   0.113628 0.516565 0.030716 -0.292293
N29   N     N_R   0.347642 0.988379 0.960405 0.231576
O161  O     O_R   0.360318 0.009803 0.933114 -0.362914
O162  O     O_R   0.377648 0.961053 0.969069 -0.313151
N30   N     N_R   0.348085 0.990009 0.039437 0.235178
O163  O     O_R   0.351750 0.966993 0.066797 -0.386755
O164  O     O_R   0.387732 0.010116 0.030660 -0.290597
N31   N     N_R   0.651327 0.994998 0.960440 0.231032
O165  O     O_R   0.641655 0.017200 0.933165 -0.358446
O166  O     O_R   0.617690 0.969852 0.969112 -0.311851
N32   N     N_R   0.651126 0.996602 0.039470 0.236709
O167  O     O_R   0.644302 0.973904 0.066798 -0.386788
O168  O     O_R   0.614444 0.019340 0.030739 -0.289579
H65   H     H_    0.170767 0.499219 0.533826 0.188250
H66   H     H_    0.170695 0.500528 0.466344 0.187906
H67   H     H_    0.829232 0.500142 0.533800 0.187817
H68   H     H_    0.829271 0.501456 0.466318 0.187496
H69   H     H_    0.671527 0.005514 0.533811 0.188749
H70   H     H_    0.671651 0.006792 0.466340 0.188832
H71   H     H_    0.328209 0.007253 0.533785 0.188449
H72   H     H_    0.328027 0.008531 0.466314 0.188564
H73   H     H_    0.671541 0.505251 0.033814 0.172612
H74   H     H_    0.671648 0.506534 0.966345 0.184058
H75   H     H_    0.328778 0.502833 0.033789 0.172730
H76   H     H_    0.328742 0.504136 0.966319 0.183865
H77   H     H_    0.171730 0.006693 0.033810 0.188323
H78   H     H_    0.171890 0.007966 0.966340 0.188302
H79   H     H_    0.828942 0.001217 0.033787 0.188001
H80   H     H_    0.828949 0.002521 0.966315 0.188016

loop_
_geom_bond_atom_site_label_1
_geom_bond_atom_site_label_2
_geom_bond_distance
_ccdc_geom_bond_type
C112  C120  1.205219 T    
C57   C68   1.401131 A    
Zn29  O101  1.939771 S    
N27   O157  1.301239 A    
Zn4   O4    1.928849 S    
Zn5   O5    1.931533 S    
O98   C10   1.266722 A    
C145  C147  1.389575 A    
C188  C204  1.409163 A    
C15   C182  1.457064 S    
C61   C72   1.401131 A    
N2    O108  1.300750 A    
C22   C287  1.432866 S    
C230  C262  1.441297 S    
C184  C200  1.408789 A    
O88   C32   1.274808 A    
C153  H25   1.082651 S    
C18   C283  1.432849 S    
C254  H78   1.083817 S    
C217  C218  1.417312 A    
C7    C190  1.457054 S    
C2    C187  1.455950 S    
C135  C161  1.416668 A    
Zn28  O52   1.908888 S    
C260  C275  1.204941 T    
N28   O160  1.301278 A    
Zn22  O6    1.931115 S    
O15   C7    1.267189 A    
C261  C278  1.204766 T    
C245  H69   1.083818 S    
C50   H2    1.083464 S    
C224  N31   1.438456 S    
C36   C126  1.433829 S    
O60   C44   1.275975 A    
C44   C116  1.433853 S    
C37   C123  1.433867 S    
O61   C45   1.276116 A    
C54   H6    1.083467 S    
C38   C124  1.433850 S    
N25   O154  1.301270 A    
Zn7   O70   1.908833 S    
C134  H54   1.081134 S    
C86   C95   1.401112 A    
C199  N7    1.439514 S    
N32   O167  1.301252 A    
C33   C127  1.433794 S    
C75   C91   1.401085 A    
C240  C272  1.441482 S    
Zn11  O83   1.908655 S    
C225  C257  1.441113 S    
C78   C94   1.401118 A    
C255  H79   1.083817 S    
Zn2   O2    1.930883 S    
C157  C159  1.389584 A    
O72   C45   1.275974 A    
C236  C268  1.441470 S    
C237  C269  1.441317 S    
N7    O118  1.301403 A    
C10   C179  1.455947 S    
O104  C16   1.264439 A    
O92   C4    1.264438 A    
C55   C71   1.401091 A    
Zn29  O37   1.909204 S    
N11   O126  1.301402 A    
C158  C160  1.389534 A    
Zn31  O55   1.909121 S    
C105  C113  1.205200 T    
C143  C169  1.416662 A    
O14   C6    1.264299 A    
Zn10  O82   1.909073 S    
N13   O130  1.300751 A    
N12   O127  1.301340 A    
C182  C198  1.407852 A    
C220  C236  1.413587 A    
C58   C75   1.398536 A    
C95   C111  1.438677 S    
C41   C113  1.433802 S    
C138  H58   1.080893 S    
Zn13  O85   1.908744 S    
C76   C92   1.401092 A    
C272  C287  1.204872 T    
N14   O131  1.300889 A    
O101  C13   1.266510 A    
C138  C176  1.416358 A    
O96   C8    1.264434 A    
C210  C226  1.413446 A    
C58   C67   1.401105 A    
O69   C48   1.276102 A    
C206  N14   1.435065 S    
Zn18  O90   1.939694 S    
Zn5   O77   1.908744 S    
C160  H32   1.082682 S    
Zn10  O59   1.907895 S    
C201  N9    1.435098 S    
C68   C100  1.438675 S    
C221  C222  1.417305 A    
C136  H56   1.080987 S    
C66   C98   1.438656 S    
C185  C201  1.407869 A    
C215  C216  1.417370 A    
C62   H14   1.083473 S    
O87   C31   1.275185 A    
Zn14  O63   1.907895 S    
C72   C104  1.438675 S    
C61   C80   1.398571 A    
Zn21  O29   1.909204 S    
O55   C38   1.276743 A    
N24   O151  1.301247 A    
O80   C24   1.274807 A    
C79   C95   1.401114 A    
C221  N30   1.438462 S    
Zn16  O13   1.940532 S    
C129  H49   1.081177 S    
O23   C15   1.267187 A    
N16   O135  1.301191 A    
C133  C163  1.416323 A    
C73   H44   1.083469 S    
C248  H72   1.083815 S    
Zn4   O17   1.940532 S    
C133  H53   1.081177 S    
N30   O163  1.301249 A    
C205  C207  1.399442 A    
C62   C71   1.401121 A    
N1    O105  1.300895 A    
O36   C28   1.275712 A    
C189  C205  1.407877 A    
N21   O146  1.301269 A    
Zn19  O3    1.928438 S    
Zn3   O66   1.908833 S    
O63   C47   1.275870 A    
C196  N4    1.439507 S    
C148  H20   1.082684 S    
C149  H21   1.082655 S    
N6    O115  1.300893 A    
Zn2   O74   1.909073 S    
C215  C231  1.413514 A    
C98   C122  1.205205 T    
C220  N27   1.438453 S    
O83   C27   1.275170 A    
C210  N17   1.438183 S    
Zn18  O2    1.931115 S    
C77   H48   1.083462 S    
O81   C25   1.276511 A    
N10   O124  1.300827 A    
C212  N19   1.438180 S    
C143  H63   1.081035 S    
Zn26  O3    1.931115 S    
C233  C265  1.441331 S    
C168  C178  1.414884 A    
Zn7   O7    1.929038 S    
C268  C283  1.204864 T    
Zn8   O8    1.928849 S    
Zn28  O100  1.940937 S    
Zn12  O1    1.928849 S    
C137  C153  1.393463 A    
O75   C19   1.275146 A    
C52   C81   1.398567 A    
Zn1   O73   1.908744 S    
C175  C185  1.414847 A    
C246  H70   1.083815 S    
C207  N15   1.439511 S    
C253  C254  1.392144 A    
C51   H3    1.083461 S    
C226  C258  1.441403 S    
C12   C177  1.457113 S    
C251  C252  1.392213 A    
C92   C108  1.438675 S    
O31   C23   1.275366 A    
O77   C21   1.276501 A    
Zn15  O62   1.908833 S    
C60   C65   1.401076 A    
O22   C14   1.264297 A    
C11   C178  1.457060 S    
C50   C66   1.401118 A    
O16   C8    1.267443 A    
Zn15  O6    1.929038 S    
C137  H57   1.081167 S    
C150  H22   1.082671 S    
C87   C94   1.401094 A    
C63   H15   1.083461 S    
C64   C69   1.401091 A    
Zn28  O36   1.908785 S    
C35   C125  1.433813 S    
N20   O143  1.301263 A    
C54   C70   1.401120 A    
C217  N26   1.438458 S    
C74   C90   1.401119 A    
C49   H1    1.083469 S    
Zn32  O56   1.908888 S    
O91   C3    1.265432 A    
N10   O123  1.300647 A    
O94   C6    1.266722 A    
O89   C1    1.265912 A    
O44   C36   1.276584 A    
C81   H36   1.083466 S    
Zn7   O79   1.908655 S    
C153  C155  1.389557 A    
Zn9   O4    1.931533 S    
N9    O122  1.300751 A    
Zn6   O6    1.930883 S    
O99   C11   1.264180 A    
Zn10  O3    1.930883 S    
C227  C243  1.397931 A    
C108  C116  1.205219 T    
C132  C166  1.416722 A    
Zn29  O53   1.907955 S    
C190  C206  1.407853 A    
C77   C93   1.401146 A    
C111  C119  1.205222 T    
C20   C281  1.432657 S    
C228  C260  1.441588 S    
O39   C31   1.275371 A    
Zn4   O65   1.909065 S    
O21   C13   1.263999 A    
O40   C32   1.275726 A    
C197  N5    1.435107 S    
C230  C246  1.397778 A    
C269  C286  1.204765 T    
Zn9   O60   1.907705 S    
Zn11  O2    1.929038 S    
C224  C240  1.413574 A    
Zn3   O18   1.940684 S    
N26   O156  1.301264 A    
C45   C117  1.433872 S    
C173  C175  1.414701 A    
C266  C281  1.204750 T    
C69   C101  1.438664 S    
C138  C154  1.393245 A    
C47   C119  1.433853 S    
Zn13  O64   1.907705 S    
Zn26  O34   1.908875 S    
C179  C195  1.408803 A    
C221  C237  1.413483 A    
O67   C42   1.275856 A    
C53   H5    1.083468 S    
Zn17  O41   1.907955 S    
C62   C79   1.398576 A    
O65   C44   1.276100 A    
Zn25  O4    1.930469 S    
Zn19  O27   1.908880 S    
C52   H4    1.083464 S    
O78   C22   1.276176 A    
C133  C149  1.393478 A    
C80   C96   1.401090 A    
C60   H12   1.083471 S    
C84   C89   1.401096 A    
Zn6   O78   1.909073 S    
C39   C121  1.433880 S    
N5    O113  1.300895 A    
C131  C147  1.393599 A    
C58   H10   1.083470 S    
C134  C164  1.416364 A    
N19   O141  1.301206 A    
C158  H30   1.082681 S    
Zn3   O3    1.929038 S    
O48   C40   1.276584 A    
C225  C241  1.397901 A    
Zn17  O1    1.930469 S    
C63   C70   1.401095 A    
C55   H7    1.083464 S    
Zn32  O5    1.928623 S    
C154  H26   1.082578 S    
C84   H33   1.083479 S    
C101  C125  1.205204 T    
C213  C214  1.417293 A    
Zn2   O67   1.907895 S    
C170  C172  1.414683 A    
Zn20  O28   1.908785 S    
C161  C183  1.416138 A    
O33   C25   1.276650 A    
N15   O133  1.301201 A    
C106  C114  1.205208 T    
C78   H47   1.083465 S    
C174  C188  1.416363 A    
C216  N23   1.438445 S    
C60   C73   1.398546 A    
C214  C230  1.413550 A    
O26   C18   1.277090 A    
C129  C167  1.416326 A    
O97   C9    1.266512 A    
C191  C207  1.408805 A    
C131  C165  1.416665 A    
Zn26  O98   1.939694 S    
Zn8   O21   1.940532 S    
N11   O125  1.301199 A    
C42   C114  1.433832 S    
C218  N25   1.438454 S    
N17   O138  1.301273 A    
O62   C46   1.275943 A    
C193  N1    1.435107 S    
Zn9   O81   1.908744 S    
C241  C242  1.392306 A    
C150  C152  1.389525 A    
C183  C199  1.408802 A    
C5    C192  1.455894 S    
C226  C242  1.397837 A    
C233  C249  1.397827 A    
C55   C86   1.398547 A    
C239  C255  1.397861 A    
C258  C273  1.204829 T    
Zn23  O31   1.908880 S    
C64   H16   1.083470 S    
Zn15  O87   1.908655 S    
C88   H37   1.083466 S    
C1    C188  1.456802 S    
O37   C29   1.276745 A    
Zn20  O92   1.940937 S    
Zn27  O35   1.908880 S    
C32   C277  1.432670 S    
O35   C27   1.275270 A    
Zn24  O32   1.908785 S    
N25   O153  1.301243 A    
Zn24  O96   1.940937 S    
C170  C192  1.416216 A    
C141  C171  1.416323 A    
N32   O168  1.301275 A    
C65   C97   1.438709 S    
Zn15  O14   1.940684 S    
C96   C112  1.438675 S    
C82   H35   1.083478 S    
O50   C35   1.276647 A    
C140  H60   1.080786 S    
C159  H31   1.082673 S    
Zn12  O84   1.908750 S    
C149  C151  1.389574 A    
C202  N10   1.433998 S    
O58   C42   1.275943 A    
C247  H71   1.083818 S    
C245  C246  1.392150 A    
O10   C2    1.264294 A    
C197  C199  1.399430 A    
C90   C106  1.438656 S    
Zn5   O24   1.939439 S    
O73   C17   1.276483 A    
N3    O109  1.301198 A    
Zn6   O23   1.939517 S    
C157  H29   1.082667 S    
C146  H18   1.082675 S    
C211  C212  1.417069 A    
Zn32  O40   1.908785 S    
C16   C181  1.457113 S    
C193  C195  1.399430 A    
C142  H62   1.081140 S    
C6    C191  1.455949 S    
C162  C164  1.414680 A    
C252  H76   1.083815 S    
O70   C47   1.275940 A    
N18   O139  1.301260 A    
C242  H66   1.083805 S    
C166  C180  1.416213 A    
C241  H65   1.083814 S    
Zn8   O80   1.908750 S    
C136  C162  1.416722 A    
N13   O129  1.300895 A    
C181  C197  1.407874 A    
C174  C176  1.414711 A    
O82   C26   1.276263 A    
N12   O128  1.300647 A    
C238  C254  1.397774 A    
C211  C227  1.413258 A    
C8    C189  1.457107 S    
O53   C40   1.276497 A    
Zn27  O99   1.940784 S    
C234  C266  1.441284 S    
Zn11  O10   1.940684 S    
O54   C39   1.276610 A    
C209  C225  1.413221 A    
N29   O162  1.301263 A    
C31   C278  1.432690 S    
O79   C23   1.275190 A    
Zn13  O8    1.931533 S    
C250  H74   1.083817 S    
C164  C182  1.414885 A    
Zn14  O7    1.930883 S    
C249  H73   1.083811 S    
C104  C128  1.205216 T    
O85   C29   1.276532 A    
O74   C18   1.276161 A    
N14   O132  1.300747 A    
C85   H40   1.083460 S    
C154  C156  1.389262 A    
O30   C22   1.277082 A    
C227  C259  1.441296 S    
C209  N18   1.438442 S    
C231  C263  1.441497 S    
O24   C16   1.267440 A    
Zn8   O69   1.909065 S    
O90   C2    1.266730 A    
C195  N3    1.439513 S    
C94   C110  1.438660 S    
Zn16  O5    1.928849 S    
C214  N21   1.438453 S    
C141  C157  1.393486 A    
O18   C10   1.264299 A    
C223  N32   1.438423 S    
C165  C167  1.414703 A    
C93   C109  1.438698 S    
Zn26  O50   1.907764 S    
C67   C99   1.438691 S    
O13   C5    1.264003 A    
C87   H38   1.083463 S    
C146  C148  1.389525 A    
Zn1   O68   1.907705 S    
N2    O107  1.300888 A    
C169  C171  1.414701 A    
O84   C28   1.274898 A    
C52   C68   1.401090 A    
N24   O152  1.301267 A    
C34   C128  1.433850 S    
N31   O165  1.301232 A    
C48   C120  1.433849 S    
C144  C170  1.416716 A    
C56   C72   1.401091 A    
Zn31  O103  1.940784 S    
C129  C145  1.393480 A    
C263  C280  1.204880 T    
Zn32  O104  1.940937 S    
C264  C279  1.204869 T    
N16   O136  1.301405 A    
C140  C174  1.416703 A    
N28   O159  1.301249 A    
O25   C17   1.276819 A    
C132  C148  1.393578 A    
C130  C168  1.416370 A    
N30   O164  1.301263 A    
N23   O149  1.301252 A    
O28   C20   1.275729 A    
Zn12  O9    1.940532 S    
C162  C184  1.416209 A    
C110  C118  1.205205 T    
C17   C284  1.432922 S    
C81   C92   1.401127 A    
O76   C20   1.274794 A    
Zn19  O91   1.940784 S    
C232  C264  1.441482 S    
N6    O116  1.300747 A    
O17   C9    1.264001 A    
C100  C124  1.205216 T    
C91   C107  1.438635 S    
Zn6   O71   1.907895 S    
C216  C232  1.413570 A    
Zn22  O46   1.907764 S    
C49   C65   1.401160 A    
C228  C244  1.397869 A    
C243  H67   1.083806 S    
C229  C245  1.397827 A    
C46   C118  1.433832 S    
N27   O158  1.301284 A    
C135  H55   1.081029 S    
O34   C26   1.277071 A    
N1    O106  1.300753 A    
C64   C77   1.398589 A    
Zn21  O93   1.939771 S    
C29   C280  1.432886 S    
C61   H13   1.083459 S    
C163  C181  1.414848 A    
Zn23  O95   1.940784 S    
C30   C279  1.432865 S    
C169  C191  1.416137 A    
C251  H75   1.083808 S    
C165  C179  1.416142 A    
O45   C37   1.276520 A    
C171  C189  1.414838 A    
C142  C172  1.416369 A    
C134  C150  1.393461 A    
C271  C288  1.204870 T    
N15   O134  1.301402 A    
C75   H42   1.083468 S    
C40   C122  1.433829 S    
C202  C204  1.398353 A    
C239  C271  1.441489 S    
C132  H52   1.080986 S    
Zn31  O6    1.928438 S    
Zn30  O102  1.939694 S    
Zn16  O88   1.908750 S    
C187  C203  1.408803 A    
C102  C126  1.205205 T    
C56   C85   1.398571 A    
C194  C196  1.399302 A    
O103  C15   1.264184 A    
Zn19  O43   1.909121 S    
Zn18  O26   1.908875 S    
C80   H45   1.083461 S    
C53   C69   1.401124 A    
Zn1   O20   1.939439 S    
C206  C208  1.399309 A    
Zn29  O8    1.930469 S    
C167  C177  1.414845 A    
C51   C82   1.398601 A    
C186  C202  1.406685 A    
Zn2   O19   1.939517 S    
C262  C277  1.204762 T    
Zn27  O51   1.909121 S    
C244  H68   1.083803 S    
C235  C267  1.441507 S    
C76   H41   1.083464 S    
C198  N6    1.435058 S    
C49   C84   1.398600 A    
Zn21  O5    1.930469 S    
C144  H64   1.080990 S    
N4    O111  1.301191 A    
C177  C193  1.407872 A    
C243  C244  1.392377 A    
Zn25  O33   1.909204 S    
Zn4   O76   1.908750 S    
Zn7   O22   1.940684 S    
O66   C43   1.275982 A    
C53   C88   1.398556 A    
C176  C186  1.414902 A    
C200  N8    1.439506 S    
Zn17  O25   1.909204 S    
C43   C115  1.433774 S    
C194  N2    1.435059 S    
O51   C34   1.276745 A    
C86   H39   1.083467 S    
C13   C184  1.455886 S    
O71   C46   1.275856 A    
C172  C190  1.414878 A    
Zn25  O97   1.939771 S    
C256  H80   1.083811 S    
C215  N24   1.438462 S    
C249  C250  1.392126 A    
Zn1   O1    1.931533 S    
C223  C224  1.417330 A    
C238  C270  1.441297 S    
N8    O120  1.301403 A    
C51   C67   1.401132 A    
C234  C250  1.397753 A    
Zn16  O61   1.909065 S    
N21   O145  1.301244 A    
C89   C105  1.438661 S    
C259  C276  1.204749 T    
C63   C78   1.398558 A    
C99   C123  1.205225 T    
C257  C274  1.204639 T    
O29   C21   1.276772 A    
O38   C30   1.277090 A    
C151  H23   1.082677 S    
C166  C168  1.414682 A    
Zn22  O94   1.939694 S    
O102  C14   1.266721 A    
C219  N28   1.438436 S    
Zn20  O44   1.908888 S    
C83   H34   1.083460 S    
N9    O121  1.300893 A    
C73   C89   1.401118 A    
C211  N20   1.438442 S    
C205  N13   1.435113 S    
Zn24  O48   1.908888 S    
C143  C159  1.393606 A    
C213  C229  1.413474 A    
C144  C160  1.393587 A    
O59   C43   1.275785 A    
Zn30  O7    1.931115 S    
N7    O117  1.301200 A    
N19   O142  1.301260 A    
O11   C3    1.265679 A    
C24   C285  1.432670 S    
O57   C41   1.276035 A    
Zn30  O54   1.907764 S    
C14   C183  1.455947 S    
Zn30  O38   1.908875 S    
C140  C156  1.393367 A    
C147  H19   1.082670 S    
C82   C91   1.401124 A    
C21   C288  1.432877 S    
Zn5   O72   1.907705 S    
Zn18  O42   1.907764 S    
C19   C282  1.432740 S    
C139  H59   1.081020 S    
C136  C152  1.393575 A    
C79   H46   1.083464 S    
O32   C24   1.275728 A    
C270  C285  1.204760 T    
O64   C48   1.275977 A    
C3    C186  1.457011 S    
O68   C41   1.276015 A    
C222  N29   1.438448 S    
C253  H77   1.083820 S    
C240  C256  1.397822 A    
C180  C196  1.408791 A    
C203  N11   1.439513 S    
C267  C284  1.204891 T    
Zn27  O2    1.928438 S    
C131  H51   1.081029 S    
C265  C282  1.204785 T    
C236  C252  1.397794 A    
O47   C39   1.276765 A    
Zn12  O57   1.909065 S    
C237  C253  1.397826 A    
C178  C194  1.407850 A    
O52   C33   1.276613 A    
O93   C5    1.266513 A    
C255  C256  1.392246 A    
C229  C261  1.441316 S    
O27   C19   1.275432 A    
Zn20  O4    1.928623 S    
O95   C7    1.264176 A    
Zn3   O75   1.908655 S    
N17   O137  1.301203 A    
O86   C30   1.276168 A    
O56   C37   1.276579 A    
C85   C96   1.401127 A    
N31   O166  1.301286 A    
C152  H24   1.082685 S    
C83   C90   1.401093 A    
C59   H11   1.083460 S    
C173  C187  1.416155 A    
Zn22  O30   1.908875 S    
C74   H43   1.083464 S    
C57   H9    1.083464 S    
C247  C248  1.392214 A    
C142  C158  1.393458 A    
O19   C11   1.267188 A    
C161  C163  1.414702 A    
C70   C102  1.438656 S    
C155  H27   1.082656 S    
C219  C235  1.413492 A    
N23   O150  1.301258 A    
C209  C210  1.416997 A    
C9    C180  1.455892 S    
C27   C274  1.432478 S    
N22   O147  1.301247 A    
C222  C238  1.413545 A    
C56   H8    1.083460 S    
C25   C276  1.432672 S    
C208  N16   1.439509 S    
O43   C35   1.276692 A    
C26   C275  1.433006 S    
C97   C121  1.205236 T    
C232  C248  1.397807 A    
C213  N22   1.438459 S    
N26   O155  1.301249 A    
C130  C146  1.393457 A    
Zn14  O86   1.909073 S    
C50   C83   1.398562 A    
Zn17  O89   1.939771 S    
O9    C1    1.265101 A    
N8    O119  1.301193 A    
Zn9   O12   1.939439 S    
C59   C74   1.398562 A    
C103  C127  1.205192 T    
Zn10  O11   1.939517 S    
O100  C12   1.264436 A    
C109  C117  1.205231 T    
C212  C228  1.413474 A    
C23   C286  1.432693 S    
O49   C36   1.276497 A    
C54   C87   1.398558 A    
C57   C76   1.398567 A    
Zn25  O49   1.907955 S    
C156  H28   1.082580 S    
Zn28  O1    1.928623 S    
Zn13  O16   1.939439 S    
N3    O110  1.301402 A    
C231  C247  1.397854 A    
Zn14  O15   1.939517 S    
N4    O112  1.301404 A    
C217  C233  1.413479 A    
Zn23  O47   1.909121 S    
N18   O140  1.301263 A    
C137  C175  1.416330 A    
C145  H17   1.082659 S    
N5    O114  1.300753 A    
C235  C251  1.397859 A    
C139  C155  1.393587 A    
C139  C173  1.416672 A    
Zn11  O58   1.908833 S    
C4    C185  1.457112 S    
C88   C93   1.401087 A    
C204  N12   1.438342 S    
C107  C115  1.205189 T    
C223  C239  1.413471 A    
N22   O148  1.301266 A    
Zn24  O8    1.928623 S    
O12   C4    1.267439 A    
N20   O144  1.301254 A    
N29   O161  1.301245 A    
C198  C200  1.399307 A    
O42   C34   1.276613 A    
C71   C103  1.438646 S    
C130  H50   1.081133 S    
O20   C12   1.267441 A    
C28   C273  1.432812 S    
Zn21  O45   1.907955 S    
O46   C38   1.276615 A    
C135  C151  1.393595 A    
C218  C234  1.413557 A    
C201  C203  1.399413 A    
O41   C33   1.276447 A    
Zn23  O7    1.928438 S    
C59   C66   1.401095 A    
C219  C220  1.417361 A    
C141  H61   1.081181 S    
Zn31  O39   1.908880 S    
C192  C208  1.408786 A    
