data_mof_unit_25882.cif
_audit_creation_date              2012-12-10T17:15:48-0500
_audit_creation_method            fapswitch 2.2
_symmetry_space_group_name_H-M    P1
_symmetry_Int_Tables_number       1
_space_group_crystal_system       triclinic
_cell_length_a                    10.142303
_cell_length_b                    10.63042
_cell_length_c                    10.813027
_cell_angle_alpha                 90.066925
_cell_angle_beta                  95.333484
_cell_angle_gamma                 81.636309
_cell_volume                      1148.34456668

loop_
_atom_site_label
_atom_site_type_symbol
_atom_type_description
_atom_site_fract_x
_atom_site_fract_y
_atom_site_fract_z
_atom_type_partial_charge
C1    C     C_R   0.443899 0.504632 0.267379 0.943870
C2    C     C_2   0.487485 0.459484 0.933727 -0.131157
C3    C     C_2   0.072623 0.489568 0.489822 -0.112494
C4    C     C_R   0.500283 0.260539 0.503379 0.860402
C5    C     C_2   0.927369 0.510327 0.510376 -0.107505
C6    C     C_R   0.556041 0.488011 0.732606 0.906456
C7    C     C_R   0.501399 0.739266 0.502949 0.867247
C8    C     C_R   0.670104 0.108088 0.694902 -0.231984
C9    C     C_R   0.753166 0.031246 0.783568 0.459520
C10   C     C_R   0.755198 0.899953 0.782131 -0.186731
C11   C     C_R   0.674019 0.845289 0.692447 -0.265820
C12   C     C_R   0.588310 0.053950 0.602451 0.033136
C13   C     C_R   0.590086 0.921863 0.601320 0.103580
C14   C     C_R   0.501248 0.128198 0.512406 -0.065933
C15   C     C_R   0.413862 0.076096 0.427195 -0.193003
C16   C     C_R   0.415335 0.947367 0.426258 -0.191925
C17   C     C_R   0.504197 0.871209 0.510507 -0.076711
C18   C     C_2   0.412043 0.495300 0.135323 -0.375125
C19   C     C_2   0.511738 0.455874 0.066051 -0.128289
C20   C     C_2   0.587709 0.469033 0.864531 -0.345593
Cl1   Cl    Cl    0.853211 0.100241 0.897990 -0.633053
H1    H     H_    0.346743 0.135137 0.359524 0.153331
H2    H     H_    0.348787 0.906546 0.358246 0.158936
H3    H     H_    0.384449 0.463876 0.893547 0.192443
H4    H     H_    0.614490 0.429440 0.106206 0.199747
H5    H     H_    0.690478 0.464800 0.905141 0.170930
H6    H     H_    0.309605 0.521885 0.094662 0.159244
H7    H     H_    0.891541 0.578971 0.578490 0.162454
H8    H     H_    0.108408 0.420906 0.421730 0.165409
H9    H     H_    0.879889 0.384083 0.384967 0.174646
H10   H     H_    0.120151 0.615899 0.615086 0.171727
H11   H     H_    0.668854 0.209772 0.700633 0.174730
H12   H     H_    0.818672 0.840070 0.851367 0.171718
H13   H     H_    0.676404 0.743371 0.696615 0.162659
N1    N     N_2   0.157290 0.551390 0.551110 -0.192487
N2    N     N_2   0.842740 0.448550 0.448960 -0.190122
O1    O     O_R   0.568950 0.489660 0.307530 -0.605872
O2    O     O_R   0.348880 0.522640 0.340350 -0.611630
O3    O     O_R   0.610060 0.300270 0.483590 -0.607415
O4    O     O_R   0.389990 0.333260 0.516410 -0.611974
O5    O     O_R   0.651120 0.477360 0.659650 -0.618453
O6    O     O_R   0.431050 0.510340 0.692470 -0.607082
O7    O     O_R   0.610010 0.666740 0.483590 -0.614364
O8    O     O_R   0.389940 0.699730 0.516410 -0.603140
Zn1   Zn    Zn3+2 0.646940 0.477980 0.478090 0.958507
Zn2   Zn    Zn3+2 0.353060 0.522020 0.521910 0.957174

loop_
_geom_bond_atom_site_label_1
_geom_bond_atom_site_label_2
_ccdc_geom_bond_type
C8    C9    A    
H9    N2    S    
C8    C12   A    
C16   H2    S    
C5    H7    S    
O7    Zn1   S    
C9    C10   A    
C4    O3    A    
C13   C17   A    
O3    Zn1   S    
N2    Zn1   S    
C4    C14   S    
C7    O8    A    
O4    Zn2   S    
C11   C13   A    
C9    Cl1   S    
C1    C18   S    
C20   H5    S    
C1    O2    A    
C12   C14   A    
C10   H12   S    
C7    O7    A    
C11   H13   S    
C2    H3    S    
C19   H4    S    
H10   N1    S    
O2    Zn2   S    
C10   C11   A    
C3    N1    D    
C15   C16   A    
C8    H11   S    
C5    N2    D    
C6    C20   S    
C12   C13   A    
C18   C19   D    
O6    Zn2   S    
C3    H8    S    
C2    C20   D    
O5    Zn1   S    
C14   C15   A    
C16   C17   A    
C7    C17   S    
C2    C19   S    
N1    Zn2   S    
O1    Zn1   S    
C15   H1    S    
C18   H6    S    
C4    O4    A    
O8    Zn2   S    
C1    O1    A    
C3    C5    S    
C6    O5    A    
C6    O6    A    
