data_mof_unit_45669.cif
_audit_creation_date              2012-12-10T17:24:11-0500
_audit_creation_method            fapswitch 2.2
_symmetry_space_group_name_H-M    P1
_symmetry_Int_Tables_number       1
_space_group_crystal_system       triclinic
_cell_length_a                    10.194122
_cell_length_b                    10.320824
_cell_length_c                    16.493999
_cell_angle_alpha                 91.494673
_cell_angle_beta                  76.174248
_cell_angle_gamma                 93.556262
_cell_volume                      1681.72523135

loop_
_atom_site_label
_atom_site_type_symbol
_atom_type_description
_atom_site_fract_x
_atom_site_fract_y
_atom_site_fract_z
_atom_type_partial_charge
C1    C     C_R   0.554459 0.735620 0.490380 0.975788
C2    C     C_R   0.520115 0.502967 0.344293 0.926291
C3    C     C_R   0.475222 0.547159 0.741939 -0.107414
C4    C     C_R   0.539404 0.538665 0.257176 -0.050893
C5    C     C_R   0.584501 0.625270 0.757178 -0.245267
C6    C     C_R   0.431870 0.513308 0.218952 -0.271655
C7    C     C_R   0.575886 0.685120 0.834191 -0.161495
C8    C     C_R   0.437640 0.563824 0.141114 -0.155489
C9    C     C_R   0.458646 0.665477 0.898003 0.152333
C10   C     C_R   0.550640 0.642418 0.100673 0.168019
C11   C     C_R   0.347508 0.590651 0.882796 -0.200374
C12   C     C_R   0.446159 0.264115 0.502779 0.996594
C13   C     C_R   0.659182 0.666678 0.137922 -0.249878
C14   C     C_R   0.354292 0.529366 0.804898 0.223885
C15   C     C_R   0.654740 0.615733 0.216209 0.226052
C16   C     C_2   0.456692 0.702071 0.984665 -0.230870
C17   C     C_2   0.565050 0.683838 0.014664 -0.215021
C18   C     C_3   0.876794 0.569187 0.229419 -0.796942
C19   C     C_3   0.115320 0.438297 0.849575 -0.846799
C20   C     C_3   0.614445 0.070219 0.281496 0.107350
C21   C     C_3   0.674939 0.162493 0.209997 -0.874168
C22   C     C_3   0.296834 0.884804 0.384180 0.131717
C23   C     C_2   0.578654 0.872360 0.468350 -0.476852
C24   C     C_3   0.218985 0.785288 0.341298 -0.793081
C25   C     C_3   0.097079 0.655075 0.655688 0.209633
C26   C     C_3   0.178784 0.767154 0.685376 -0.816228
C27   C     C_3   0.881388 0.288588 0.373811 0.209794
C28   C     C_3   0.921177 0.148768 0.358606 -0.879250
C29   C     C_2   0.423794 0.125393 0.490765 -0.485520
C30   C     C_2   0.499350 0.923796 0.424021 0.362410
C31   C     C_2   0.496227 0.067006 0.422086 0.381616
C32   C     C_2   0.930527 0.523850 0.497089 0.031262
C33   C     C_2   0.074672 0.489635 0.491996 0.017139
C34   C     C_R   0.481740 0.506518 0.655769 0.822290
H1    H     H_    0.675633 0.643613 0.708408 0.159390
H2    H     H_    0.648073 0.933080 0.495732 0.121292
H3    H     H_    0.114120 0.407303 0.453619 0.137009
H4    H     H_    0.896387 0.616112 0.524537 0.137098
H5    H     H_    0.791442 0.746884 0.252071 0.213788
H6    H     H_    0.928573 0.588051 0.163086 0.223936
H7    H     H_    0.843346 0.464738 0.236541 0.237280
H8    H     H_    0.949711 0.592197 0.268863 0.231577
H9    H     H_    0.270846 0.363374 0.755950 0.219973
H10   H     H_    0.125715 0.388108 0.906285 0.243940
H11   H     H_    0.040073 0.381152 0.822333 0.242882
H12   H     H_    0.342468 0.455330 0.249893 0.152623
H13   H     H_    0.077128 0.536405 0.865979 0.242242
H14   H     H_    0.529236 0.012522 0.264153 0.172300
H15   H     H_    0.693494 0.004780 0.288808 0.147403
H16   H     H_    0.763207 0.220475 0.222796 0.239758
H17   H     H_    0.708783 0.106109 0.151222 0.215586
H18   H     H_    0.597945 0.229508 0.201891 0.262035
H19   H     H_    0.301978 0.978994 0.351956 0.120000
H20   H     H_    0.240333 0.894655 0.450585 0.171824
H21   H     H_    0.211636 0.689557 0.371635 0.275712
H22   H     H_    0.115276 0.816842 0.345750 0.196699
H23   H     H_    0.664294 0.675591 0.972953 0.149190
H24   H     H_    0.271603 0.775254 0.274399 0.245968
H25   H     H_    0.127945 0.561492 0.675480 0.171692
H26   H     H_    0.988910 0.662798 0.687986 0.106664
H27   H     H_    0.144044 0.861208 0.669743 0.236391
H28   H     H_    0.165166 0.762236 0.754092 0.202273
H29   H     H_    0.287882 0.761827 0.655222 0.267765
H30   H     H_    0.957085 0.351691 0.329878 0.092425
H31   H     H_    0.779936 0.296315 0.361582 0.221980
H32   H     H_    0.927396 0.120848 0.292414 0.205309
H33   H     H_    0.021540 0.138139 0.372233 0.248486
H34   H     H_    0.358526 0.710742 0.027716 0.144195
H35   H     H_    0.844657 0.082790 0.399496 0.267262
H36   H     H_    0.259087 0.575036 0.933693 0.134601
H37   H     H_    0.747535 0.725339 0.106160 0.128562
H38   H     H_    0.354803 0.538419 0.112033 0.133661
H39   H     H_    0.661759 0.745073 0.844125 0.132708
H40   H     H_    0.358125 0.069400 0.541058 0.103284
N1    N     N_2   0.846390 0.448330 0.467170 0.044408
N2    N     N_2   0.153610 0.551670 0.532830 0.056264
N3    N     N_2   0.762317 0.649243 0.255469 -0.283669
N4    N     N_2   0.244010 0.447888 0.788849 -0.302746
O1    O     O_R   0.430310 0.692580 0.506610 -0.540324
O2    O     O_3   0.427512 0.841904 0.379058 -0.609629
O3    O     O_3   0.108878 0.664458 0.568962 -0.563922
O4    O     O_3   0.880478 0.323848 0.456668 -0.542059
O5    O     O_R   0.569690 0.307420 0.493390 -0.548318
O6    O     O_R   0.652740 0.659410 0.485540 -0.630270
O7    O     O_R   0.347260 0.340590 0.514460 -0.632527
O8    O     O_R   0.375640 0.518570 0.627580 -0.615103
O9    O     O_R   0.624360 0.481430 0.372420 -0.602270
O10   O     O_R   0.598070 0.485390 0.606510 -0.605863
O11   O     O_R   0.401930 0.514610 0.393490 -0.614026
O12   O     O_3   0.568905 0.143197 0.355449 -0.622519
Zn1   Zn    Zn3+2 0.351480 0.522150 0.514070 0.982170
Zn2   Zn    Zn3+2 0.648520 0.477850 0.485930 0.988663

loop_
_geom_bond_atom_site_label_1
_geom_bond_atom_site_label_2
_ccdc_geom_bond_type
C12   C29   S    
C2    O11   A    
C28   H32   S    
C28   H35   S    
C32   N1    D    
O7    Zn1   S    
C11   H36   S    
C7    H39   S    
C24   H21   S    
O5    Zn2   S    
C12   O7    A    
H5    N3    S    
C9    C16   S    
O8    Zn1   S    
C18   H8    S    
C30   C31   S    
C11   C14   A    
C19   H13   S    
C10   C17   S    
C34   O8    A    
C18   H6    S    
O10   Zn2   S    
C16   C17   D    
C16   H34   S    
C25   H26   S    
C32   H4    S    
O11   Zn1   S    
O1    Zn1   S    
C30   O2    S    
O9    Zn2   S    
C25   O3    S    
C22   H20   S    
C21   H16   S    
C22   H19   S    
C8    H38   S    
H9    N4    S    
C23   C30   D    
C28   H33   S    
C4    C6    A    
C18   H7    S    
C5    C7    A    
C6    C8    A    
C29   H40   S    
C13   H37   S    
C3    C34   S    
C25   C26   S    
C20   O12   S    
C33   H3    S    
C12   O5    A    
C1    O6    A    
C19   N4    S    
C2    C4    S    
C26   H29   S    
C20   H15   S    
C27   H31   S    
C33   N2    D    
C31   O12   S    
C2    O9    A    
C34   O10   A    
C9    C11   A    
C20   H14   S    
C3    C14   A    
N1    Zn2   S    
C24   H24   S    
C1    C23   S    
C13   C15   A    
C1    O1    A    
C22   C24   S    
C21   H17   S    
C19   H10   S    
C7    C9    A    
C6    H12   S    
C26   H27   S    
C27   O4    S    
C3    C5    A    
C10   C13   A    
N2    O3    S    
C19   H11   S    
N1    O4    S    
C24   H22   S    
O6    Zn2   S    
C32   C33   S    
C4    C15   A    
C26   H28   S    
C22   O2    S    
C29   C31   D    
C15   N3    S    
C18   N3    S    
C5    H1    S    
C14   N4    S    
C27   H30   S    
N2    Zn1   S    
C20   C21   S    
C8    C10   A    
C23   H2    S    
C27   C28   S    
C25   H25   S    
C21   H18   S    
C17   H23   S    
