data_mof_unit_48032.cif
_audit_creation_date              2012-12-10T19:09:30-0500
_audit_creation_method            fapswitch 2.2
_symmetry_space_group_name_H-M    P1
_symmetry_Int_Tables_number       1
_space_group_crystal_system       triclinic
_cell_length_a                    15.043789
_cell_length_b                    15.021676
_cell_length_c                    9.692017
_cell_angle_alpha                 89.998745
_cell_angle_beta                  89.833523
_cell_angle_gamma                 89.997972
_cell_volume                      2190.22109554

loop_
_atom_site_label
_atom_site_type_symbol
_atom_type_description
_atom_site_fract_x
_atom_site_fract_y
_atom_site_fract_z
_atom_type_partial_charge
C1    C     C_R   0.121910 0.379531 0.500051 0.883503
C2    C     C_R   0.880140 0.622554 0.500283 0.878247
C3    C     C_R   0.380095 0.877489 0.500287 0.878463
C4    C     C_R   0.380153 0.122567 0.500282 0.878288
C5    C     C_3   0.800476 0.270603 0.648315 -0.410262
C6    C     C_3   0.837877 0.233860 0.399779 -0.406731
C7    C     C_3   0.837641 0.765903 0.399020 -0.406902
C8    C     C_3   0.801020 0.729927 0.648095 -0.410055
C9    C     C_3   0.300532 0.770551 0.648289 -0.410219
C10   C     C_3   0.337849 0.733887 0.399697 -0.406802
C11   C     C_3   0.337575 0.265835 0.398801 -0.406845
C12   C     C_R   0.121844 0.620538 0.500049 0.883178
C13   C     C_3   0.301175 0.230084 0.648030 -0.410058
C14   C     C_3   0.230538 0.697646 0.647431 -0.458633
C15   C     C_3   0.267026 0.660627 0.403021 -0.477603
C16   C     C_3   0.266766 0.339107 0.402097 -0.477454
C17   C     C_3   0.231184 0.303013 0.647145 -0.458943
C18   C     C_3   0.730497 0.197684 0.647453 -0.458637
C19   C     C_3   0.767047 0.160606 0.403087 -0.477627
C20   C     C_3   0.766833 0.839178 0.402339 -0.477469
C21   C     C_3   0.731016 0.802839 0.647223 -0.458887
C22   C     C_3   0.723192 0.352469 0.454553 -0.486768
C23   C     C_R   0.621892 0.879512 0.500051 0.883469
C24   C     C_3   0.723127 0.647473 0.455502 -0.486779
C25   C     C_3   0.223184 0.852480 0.454644 -0.486741
C26   C     C_3   0.223105 0.147460 0.455783 -0.486819
C27   C     C_3   0.811805 0.309662 0.500845 0.161614
C28   C     C_3   0.811879 0.690409 0.500836 0.161792
C29   C     C_3   0.311811 0.809658 0.500841 0.161639
C30   C     C_3   0.311899 0.190431 0.500834 0.161786
C31   C     C_3   0.189658 0.689250 0.500199 0.190158
C32   C     C_3   0.189749 0.310848 0.500213 0.190157
C33   C     C_3   0.689654 0.189252 0.500200 0.190173
C34   C     C_R   0.621843 0.120540 0.500049 0.883196
C35   C     C_3   0.689725 0.810821 0.500212 0.190131
C36   C     C_3   0.148334 0.781010 0.452675 0.267063
C37   C     C_3   0.148249 0.218925 0.453885 0.266922
C38   C     C_3   0.648342 0.281000 0.452594 0.267098
C39   C     C_3   0.648272 0.718941 0.453573 0.266941
C40   C     C_3   0.046060 0.421353 0.081055 -0.230353
C41   C     C_3   0.046121 0.421392 0.918577 -0.237599
C42   C     C_3   0.042982 0.580423 0.918586 -0.237877
C43   C     C_3   0.042914 0.580464 0.081071 -0.229454
C44   C     C_3   0.544817 0.920615 0.081063 -0.230015
C45   C     C_3   0.907009 0.498200 0.081781 -0.240111
C46   C     C_3   0.544882 0.920655 0.918583 -0.237696
C47   C     C_3   0.544238 0.079715 0.918580 -0.237828
C48   C     C_3   0.544172 0.079755 0.081062 -0.229756
C49   C     C_3   0.907022 0.498202 0.919073 -0.234320
C50   C     C_3   0.406993 0.999634 0.081782 -0.240140
C51   C     C_3   0.407005 0.999633 0.919073 -0.234301
C52   C     C_R   0.880091 0.377493 0.500288 0.878521
H1    H     H_    0.779476 0.323571 0.721962 0.167391
H2    H     H_    0.903443 0.205354 0.428695 0.178719
H3    H     H_    0.903303 0.794482 0.427214 0.178738
H4    H     H_    0.865363 0.757937 0.684624 0.177415
H5    H     H_    0.364765 0.742632 0.685454 0.177602
H6    H     H_    0.403427 0.705376 0.428530 0.178730
H7    H     H_    0.403260 0.294441 0.426801 0.178737
H8    H     H_    0.365556 0.258109 0.684369 0.177440
H9    H     H_    0.261918 0.633465 0.678172 0.167854
H10   H     H_    0.297417 0.597607 0.440924 0.156178
H11   H     H_    0.297293 0.402267 0.439157 0.156240
H12   H     H_    0.843875 0.259930 0.292609 0.173439
H13   H     H_    0.262684 0.367307 0.676994 0.167540
H14   H     H_    0.761884 0.133515 0.678238 0.167833
H15   H     H_    0.797423 0.097590 0.441037 0.156174
H16   H     H_    0.797329 0.902296 0.439628 0.156246
H17   H     H_    0.762474 0.867107 0.677314 0.167640
H18   H     H_    0.179494 0.712253 0.727422 0.174011
H19   H     H_    0.243750 0.646549 0.296521 0.174198
H20   H     H_    0.243111 0.352783 0.295675 0.174233
H21   H     H_    0.180452 0.288728 0.727756 0.174263
H22   H     H_    0.679430 0.212291 0.727413 0.174072
H23   H     H_    0.843288 0.739516 0.291994 0.173471
H24   H     H_    0.743800 0.146509 0.296579 0.174171
H25   H     H_    0.743276 0.852968 0.295899 0.174224
H26   H     H_    0.680204 0.788457 0.727669 0.174176
H27   H     H_    0.705918 0.408250 0.525451 0.137762
H28   H     H_    0.731608 0.383287 0.350803 0.153299
H29   H     H_    0.731232 0.616344 0.351919 0.153181
H30   H     H_    0.706066 0.591908 0.526930 0.137799
H31   H     H_    0.205930 0.908235 0.525601 0.137774
H32   H     H_    0.231570 0.883335 0.350914 0.153282
H33   H     H_    0.231117 0.116249 0.352242 0.153138
H34   H     H_    0.780272 0.677194 0.722325 0.167748
H35   H     H_    0.206110 0.091951 0.527354 0.137845
H36   H     H_    0.014535 0.359177 0.119912 0.153303
H37   H     H_    0.014794 0.359167 0.879796 0.141546
H38   H     H_    0.009259 0.641366 0.879758 0.141431
H39   H     H_    0.008982 0.641350 0.119973 0.152514
H40   H     H_    0.512329 0.858942 0.119940 0.152983
H41   H     H_    0.512599 0.858930 0.879782 0.141512
H42   H     H_    0.511460 0.141179 0.879769 0.141434
H43   H     H_    0.511191 0.141165 0.119944 0.152907
H44   H     H_    0.115879 0.420569 0.118476 0.141614
H45   H     H_    0.279574 0.823498 0.722005 0.167496
H46   H     H_    0.116003 0.420822 0.880829 0.141062
H47   H     H_    0.112800 0.583729 0.880932 0.141315
H48   H     H_    0.112657 0.584007 0.118432 0.142780
H49   H     H_    0.614619 0.918732 0.118459 0.142045
H50   H     H_    0.614753 0.918999 0.880876 0.141158
H51   H     H_    0.614094 0.081932 0.880890 0.141251
H52   H     H_    0.613959 0.082199 0.118446 0.142382
H53   H     H_    0.871297 0.438230 0.120092 0.140355
H54   H     H_    0.871339 0.438231 0.881110 0.138691
H55   H     H_    0.868990 0.556685 0.880993 0.138189
H56   H     H_    0.343803 0.759989 0.292540 0.173459
H57   H     H_    0.868956 0.556687 0.120211 0.139822
H58   H     H_    0.370342 0.940244 0.120142 0.140156
H59   H     H_    0.370383 0.940243 0.881066 0.138501
H60   H     H_    0.369899 0.058718 0.881037 0.138371
H61   H     H_    0.369864 0.058723 0.120161 0.140029
H62   H     H_    0.100524 0.824034 0.643831 0.164964
H63   H     H_    0.045210 0.864853 0.509832 0.158353
H64   H     H_    0.078947 0.832273 0.285878 0.157507
H65   H     H_    0.162173 0.765287 0.239612 0.163584
H66   H     H_    0.161257 0.233902 0.240572 0.163695
H67   H     H_    0.343133 0.239351 0.291822 0.173447
H68   H     H_    0.078228 0.167067 0.288186 0.157534
H69   H     H_    0.045340 0.135300 0.512740 0.158292
H70   H     H_    0.101181 0.176602 0.645858 0.165004
H71   H     H_    0.600493 0.324078 0.643698 0.164955
H72   H     H_    0.545198 0.364851 0.509643 0.158372
H73   H     H_    0.578997 0.332225 0.285728 0.157490
H74   H     H_    0.662225 0.265217 0.239548 0.163598
H75   H     H_    0.661507 0.734112 0.240325 0.163684
H76   H     H_    0.578425 0.667237 0.287579 0.157528
H77   H     H_    0.545312 0.635254 0.511981 0.158298
H78   H     H_    0.280472 0.177425 0.722412 0.167683
H79   H     H_    0.601002 0.676441 0.645333 0.164992
H80   H     H_    0.864698 0.242709 0.685568 0.177674
N1    N     N_3   0.998760 0.500000 0.138610 -0.030503
N2    N     N_3   0.611362 0.273020 0.312190 -0.458348
N3    N     N_3   0.610864 0.726518 0.313389 -0.458482
N4    N     N_3   0.575764 0.693231 0.548479 -0.482580
N5    N     N_3   0.998760 0.500000 0.861390 -0.025663
N6    N     N_3   0.498760 0.000000 0.138610 -0.030520
N7    N     N_3   0.498760 0.000000 0.861390 -0.025659
N8    N     N_3   0.075561 0.806976 0.546920 -0.482882
N9    N     N_3   0.111324 0.773065 0.312284 -0.458308
N10   N     N_3   0.110692 0.226373 0.313782 -0.458568
N11   N     N_3   0.075840 0.193305 0.549034 -0.482466
N12   N     N_3   0.575549 0.306989 0.546787 -0.482899
O1    O     O_R   0.092530 0.407440 0.616040 -0.640955
O2    O     O_R   0.907330 0.407420 0.383960 -0.631911
O3    O     O_R   0.907330 0.592580 0.383960 -0.631869
O4    O     O_R   0.907330 0.592580 0.616040 -0.634766
O5    O     O_R   0.407330 0.907420 0.616040 -0.634720
O6    O     O_R   0.407330 0.907420 0.383960 -0.631878
O7    O     O_R   0.407330 0.092580 0.383960 -0.631906
O8    O     O_R   0.407330 0.092580 0.616040 -0.634793
O9    O     O_R   0.092530 0.407440 0.383960 -0.622544
O10   O     O_R   0.092530 0.592560 0.383960 -0.622354
O11   O     O_R   0.092530 0.592560 0.616040 -0.641182
O12   O     O_R   0.592530 0.907440 0.616040 -0.640991
O13   O     O_R   0.592530 0.907440 0.383960 -0.622490
O14   O     O_R   0.592530 0.092560 0.383960 -0.622332
O15   O     O_R   0.592530 0.092560 0.616040 -0.641212
O16   O     O_R   0.907330 0.407420 0.616040 -0.634738
Zn1   Zn    Zn3+2 0.999890 0.500000 0.654960 0.896755
Zn2   Zn    Zn3+2 0.999890 0.500000 0.345040 0.907923
Zn3   Zn    Zn3+2 0.499890 1.000000 0.654960 0.896727
Zn4   Zn    Zn3+2 0.499890 0.000000 0.345040 0.907936

loop_
_geom_bond_atom_site_label_1
_geom_bond_atom_site_label_2
_ccdc_geom_bond_type
H73   N2    S    
C52   O16   A    
C41   H37   S    
C48   N6    S    
C51   H60   S    
C48   H43   S    
C49   N5    S    
H69   N11   S    
C1    O1    A    
C16   H20   S    
C7    H3    S    
C14   C31   S    
C9    C14   S    
C11   H67   S    
N1    Zn2   S    
C8    H4    S    
C49   H55   S    
C13   H8    S    
C39   N3    S    
O11   Zn1   S    
C6    C19   S    
C46   H50   S    
C20   H25   S    
O4    Zn1   S    
C5    H1    S    
C19   H24   S    
C10   H6    S    
C6    H2    S    
C22   H27   S    
C10   C15   S    
C45   H57   S    
C2    O4    A    
C48   H52   S    
C50   H58   S    
C24   C39   S    
C43   N1    S    
C6    H12   S    
C3    C29   S    
C24   H30   S    
C5    C27   S    
C20   C35   S    
C10   H56   S    
C15   H10   S    
C5    H80   S    
C47   C48   S    
O12   Zn3   S    
C45   H53   S    
C26   H35   S    
C21   H26   S    
C25   H32   S    
C52   O2    A    
C13   H78   S    
C19   H15   S    
O5    Zn3   S    
C16   H11   S    
H62   N8    S    
C41   N5    S    
C44   H40   S    
O14   Zn4   S    
C34   O15   A    
C18   H22   S    
C23   O12   A    
C42   N5    S    
C17   H21   S    
C14   H18   S    
H70   N11   S    
C40   H44   S    
C11   H7    S    
C44   C46   S    
C8    C21   S    
C39   N4    S    
C25   C29   S    
H65   N9    S    
C4    O8    A    
C3    O5    A    
C47   H51   S    
C37   N10   S    
C13   C30   S    
H68   N10   S    
C43   H48   S    
C11   C30   S    
C9    H5    S    
H79   N4    S    
C19   C33   S    
H76   N3    S    
C12   O10   A    
C7    H23   S    
C5    C18   S    
C2    O3    A    
C14   H9    S    
C1    C32   S    
C43   H39   S    
C7    C28   S    
C21   H17   S    
C42   H38   S    
H71   N12   S    
C35   C39   S    
C24   H29   S    
C17   H13   S    
H77   N4    S    
O2    Zn2   S    
C11   C16   S    
C6    C27   S    
C45   C49   S    
C50   C51   S    
O7    Zn4   S    
C32   C37   S    
C1    O9    A    
C36   N8    S    
O13   Zn4   S    
C51   H59   S    
C34   O14   A    
C40   C41   S    
C26   C30   S    
C23   C35   S    
C22   C27   S    
C12   C31   S    
C8    C28   S    
O15   Zn3   S    
C16   C32   S    
C42   C43   S    
C12   O11   A    
O10   Zn2   S    
O6    Zn4   S    
C27   C52   S    
C36   N9    S    
C3    O6    A    
C9    H45   S    
C37   N11   S    
C31   C36   S    
C38   N12   S    
C20   H16   S    
C24   C28   S    
H75   N3    S    
H66   N10   S    
O3    Zn2   S    
N6    Zn4   S    
C44   H49   S    
C50   N6    S    
C26   C37   S    
C15   C31   S    
C49   H54   S    
C21   C35   S    
C9    C29   S    
C18   H14   S    
C15   H19   S    
C40   N1    S    
C45   N1    S    
C33   C38   S    
C13   C17   S    
O9    Zn2   S    
C50   H61   S    
O16   Zn1   S    
C40   H36   S    
N7    Zn3   S    
C22   H28   S    
C42   H47   S    
N5    Zn1   S    
C10   C29   S    
C46   H41   S    
O1    Zn1   S    
C4    O7    A    
C26   H33   S    
C44   N6    S    
C23   O13   A    
C47   H42   S    
C33   C34   S    
C8    H34   S    
C38   N2    S    
C18   C33   S    
O8    Zn3   S    
C25   C36   S    
H64   N9    S    
H63   N8    S    
H74   N2    S    
C7    C20   S    
C47   N7    S    
C25   H31   S    
C17   C32   S    
C41   H46   S    
H72   N12   S    
C2    C28   S    
C4    C30   S    
C46   N7    S    
C22   C38   S    
C51   N7    S    
