data_mof_unit_34962.cif
_audit_creation_date              2013-03-05T15:40:26-0500
_audit_creation_method            fapswitch 2.2
_symmetry_space_group_name_H-M    P1
_symmetry_Int_Tables_number       1
_space_group_crystal_system       triclinic
_cell_length_a                    19.047942
_cell_length_b                    10.970806
_cell_length_c                    18.728368
_cell_angle_alpha                 90.252287
_cell_angle_beta                  90.04272
_cell_angle_gamma                 89.907826
_cell_volume                      3913.64689358

loop_
_atom_site_label
_atom_site_type_symbol
_atom_site_description
_atom_site_fract_x
_atom_site_fract_y
_atom_site_fract_z
_atom_type_partial_charge
O1    O     O_R   0.215090 0.709860 0.828130 -0.480420
O2    O     O_R   0.784910 0.709860 0.171870 -0.478533
O3    O     O_R   0.715090 0.209860 0.828130 -0.481074
O4    O     O_R   0.284910 0.209860 0.171870 -0.477866
O5    O     O_R   0.236990 0.958390 0.823710 -0.499822
O6    O     O_R   0.763010 0.958390 0.176290 -0.497405
O7    O     O_R   0.736990 0.458390 0.823710 -0.499750
O8    O     O_R   0.263010 0.458390 0.176290 -0.497472
C1    C     C_R   0.272443 0.042643 0.853435 0.546418
C2    C     C_R   0.727556 0.042345 0.146548 0.548529
C3    C     C_R   0.772444 0.542640 0.853437 0.546453
C4    C     C_R   0.227555 0.542344 0.146547 0.548506
O9    O     O_R   0.332380 0.074750 0.830850 -0.501073
O10   O     O_R   0.667620 0.074750 0.169150 -0.500753
O11   O     O_R   0.832380 0.574750 0.830850 -0.501210
O12   O     O_R   0.167620 0.574750 0.169150 -0.500614
O13   O     O_R   0.445800 0.917770 0.825070 -0.491908
O14   O     O_R   0.554200 0.917770 0.174930 -0.490851
O15   O     O_R   0.945800 0.417770 0.825070 -0.491997
O16   O     O_R   0.054200 0.417770 0.174930 -0.490734
C5    C     C_R   0.472024 0.822246 0.853043 0.521162
C6    C     C_R   0.528350 0.821877 0.146697 0.522390
C7    C     C_R   0.971962 0.322218 0.853094 0.520969
C8    C     C_R   0.028275 0.321905 0.146753 0.522596
O17   O     O_R   0.456410 0.716580 0.829970 -0.523634
O18   O     O_R   0.543590 0.716580 0.170030 -0.518994
O19   O     O_R   0.956410 0.216580 0.829970 -0.523720
O20   O     O_R   0.043590 0.216580 0.170030 -0.518942
O21   O     O_R   0.321080 0.625290 0.822650 -0.510495
O22   O     O_R   0.678920 0.625290 0.177350 -0.506238
O23   O     O_R   0.821080 0.125290 0.822650 -0.510433
O24   O     O_R   0.178920 0.125290 0.177350 -0.506293
C9    C     C_R   0.260955 0.636123 0.851362 0.541912
C10   C     C_R   0.739062 0.635880 0.148636 0.544111
C11   C     C_R   0.760954 0.136121 0.851362 0.541668
C12   C     C_R   0.239059 0.135887 0.148633 0.544407
O25   O     O_R   0.214930 0.711450 0.668160 -0.420130
O26   O     O_R   0.785070 0.711450 0.331840 -0.409642
O27   O     O_R   0.714930 0.211450 0.668160 -0.420268
O28   O     O_R   0.285070 0.211450 0.331840 -0.409537
O29   O     O_R   0.236850 0.959870 0.675420 -0.469365
O30   O     O_R   0.763150 0.959870 0.324580 -0.461743
O31   O     O_R   0.736850 0.459870 0.675420 -0.469611
O32   O     O_R   0.263150 0.459870 0.324580 -0.461789
C13   C     C_R   0.273415 0.043494 0.646862 0.581121
C14   C     C_R   0.726483 0.043747 0.353179 0.581774
C15   C     C_R   0.773408 0.543517 0.646871 0.581206
C16   C     C_R   0.226482 0.543744 0.353180 0.581743
O33   O     O_R   0.332230 0.076350 0.670880 -0.533817
O34   O     O_R   0.667770 0.076350 0.329120 -0.534724
O35   O     O_R   0.832230 0.576350 0.670880 -0.533671
O36   O     O_R   0.167770 0.576350 0.329120 -0.534635
O37   O     O_R   0.445660 0.919250 0.676780 -0.492906
O38   O     O_R   0.554340 0.919250 0.323220 -0.499953
O39   O     O_R   0.945660 0.419250 0.676780 -0.492901
O40   O     O_R   0.054340 0.419250 0.323220 -0.499921
C17   C     C_R   0.467713 0.823022 0.645960 0.589826
C18   C     C_R   0.527504 0.824904 0.350450 0.571305
C19   C     C_R   0.967714 0.323022 0.645960 0.589854
C20   C     C_R   0.027505 0.324904 0.350450 0.571222
O41   O     O_R   0.456260 0.718170 0.670000 -0.432438
O42   O     O_R   0.543740 0.718170 0.330000 -0.424203
O43   O     O_R   0.956260 0.218170 0.670000 -0.432402
O44   O     O_R   0.043740 0.218170 0.330000 -0.424201
O45   O     O_R   0.320940 0.626760 0.674370 -0.467172
O46   O     O_R   0.679060 0.626760 0.325630 -0.507943
O47   O     O_R   0.820940 0.126760 0.674370 -0.467145
O48   O     O_R   0.179060 0.126760 0.325630 -0.507900
C21   C     C_R   0.259724 0.633060 0.647847 0.594821
C22   C     C_R   0.740247 0.633534 0.352168 0.566173
C23   C     C_R   0.759725 0.133061 0.647847 0.594750
C24   C     C_R   0.240255 0.133521 0.352160 0.566148
Cr1   Cr    Cr6+3 0.230530 0.836340 0.748870 1.131884
Cr2   Cr    Cr6+3 0.769470 0.836340 0.251130 1.143340
Cr3   Cr    Cr6+3 0.730530 0.336340 0.748870 1.131635
Cr4   Cr    Cr6+3 0.269470 0.336340 0.251130 1.143463
Cr5   Cr    Cr6+3 0.387420 0.989430 0.750820 1.092688
Cr6   Cr    Cr6+3 0.612580 0.989430 0.249180 1.090734
Cr7   Cr    Cr6+3 0.887420 0.489430 0.750820 1.092476
Cr8   Cr    Cr6+3 0.112580 0.489430 0.249180 1.091038
Cr9   Cr    Cr6+3 0.385640 0.677860 0.749230 1.089417
Cr10  Cr    Cr6+3 0.614360 0.677860 0.250770 1.083709
Cr11  Cr    Cr6+3 0.885640 0.177860 0.749230 1.089338
Cr12  Cr    Cr6+3 0.114360 0.177860 0.250770 1.083833
O49   O     O_3   0.334530 0.834540 0.749640 -0.289986
O50   O     O_3   0.665470 0.834540 0.250360 -0.294718
O51   O     O_3   0.834530 0.334540 0.749640 -0.289893
O52   O     O_3   0.165470 0.334540 0.250360 -0.294822
H1    H     H_    0.504534 0.633079 0.935400 0.142864
H2    H     H_    0.504516 0.631894 0.061287 0.142610
H3    H     H_    0.003452 0.132881 0.935729 0.142786
H4    H     H_    0.003379 0.131951 0.061608 0.142689
C25   C     C_R   0.498908 0.828997 0.074271 -0.015113
C26   C     C_R   0.502960 0.830442 0.924845 -0.016948
C27   C     C_R   0.998593 0.329128 0.074430 -0.015300
C28   C     C_R   0.002672 0.330290 0.925001 -0.016744
C29   C     C_R   0.492557 0.941835 0.037510 -0.017972
C30   C     C_R   0.506444 0.942955 0.962859 -0.017880
C31   C     C_R   0.992550 0.441958 0.037595 -0.017945
C32   C     C_R   0.006446 0.442850 0.962942 -0.017926
C33   C     C_R   0.504636 0.720637 0.962435 -0.145485
C34   C     C_R   0.501450 0.719865 0.035363 -0.144478
C35   C     C_R   0.003863 0.220516 0.962683 -0.145308
C36   C     C_R   0.000649 0.219899 0.035609 -0.144658
C37   C     C_R   0.474106 0.053237 0.072099 0.027754
C38   C     C_R   0.522259 0.056028 0.929516 0.029689
C39   C     C_R   0.974437 0.553569 0.072137 0.027935
C40   C     C_R   0.022603 0.555751 0.929549 0.029515
C41   C     C_R   0.984237 0.663765 0.035925 -0.123989
C42   C     C_R   0.010658 0.664907 0.966814 -0.123173
C43   C     C_R   0.483519 0.163551 0.035903 -0.124082
C44   C     C_R   0.509937 0.165021 0.966797 -0.123120
H5    H     H_    0.971786 0.750009 0.061358 0.151761
H6    H     H_    0.021504 0.752093 0.942263 0.151071
H7    H     H_    0.470781 0.249646 0.061352 0.151888
H8    H     H_    0.520493 0.252327 0.942265 0.151006
C45   C     C_2   0.249111 0.579763 0.920462 -0.112630
C46   C     C_2   0.750750 0.579311 0.079337 -0.113200
C47   C     C_2   0.749109 0.079765 0.920462 -0.112639
C48   C     C_2   0.250738 0.079333 0.079329 -0.113169
C49   C     C_2   0.250190 0.586863 0.077264 -0.107212
C50   C     C_2   0.749772 0.587655 0.922803 -0.108579
C51   C     C_2   0.750192 0.086868 0.077268 -0.107220
C52   C     C_2   0.249768 0.087674 0.922796 -0.108576
C53   C     C_2   0.294965 0.521095 0.037276 -0.165622
C54   C     C_2   0.704573 0.522582 0.962207 -0.166039
C55   C     C_2   0.794970 0.021109 0.037278 -0.165666
C56   C     C_2   0.204557 0.022624 0.962198 -0.165999
C57   C     C_2   0.303780 0.545802 0.961149 -0.164194
C58   C     C_2   0.695901 0.546732 0.038466 -0.164257
C59   C     C_2   0.803780 0.045811 0.961150 -0.164063
C60   C     C_2   0.195883 0.046785 0.038455 -0.164383
H9    H     H_    0.324531 0.445732 0.059826 0.159608
H10   H     H_    0.674660 0.447938 0.939114 0.161213
H11   H     H_    0.824538 0.945751 0.059828 0.159637
H12   H     H_    0.174640 0.947985 0.939106 0.161189
H13   H     H_    0.356461 0.539246 0.939259 0.157671
H14   H     H_    0.643192 0.541072 0.060300 0.156331
H15   H     H_    0.856461 0.039254 0.939260 0.157478
H16   H     H_    0.143169 0.041156 0.060286 0.156547
H17   H     H_    0.222399 0.664287 0.054690 0.114864
H18   H     H_    0.777839 0.664504 0.945914 0.114329
H19   H     H_    0.722398 0.164285 0.054695 0.114881
H20   H     H_    0.277842 0.164519 0.945904 0.114311
H21   H     H_    0.196336 0.582745 0.942439 0.111344
H22   H     H_    0.803527 0.581471 0.057361 0.110515
H23   H     H_    0.696333 0.082748 0.942438 0.111079
H24   H     H_    0.303516 0.081475 0.057355 0.110781
C61   C     C_2   0.484151 0.827965 0.570712 -0.112973
C62   C     C_2   0.487011 0.841313 0.414970 -0.124429
C63   C     C_2   0.984155 0.327963 0.570713 -0.112956
C64   C     C_2   0.987011 0.341313 0.414970 -0.124447
C65   C     C_2   0.462661 0.745744 0.450709 0.435746
C66   C     C_2   0.446824 0.755616 0.526127 0.392305
C67   C     C_2   0.962664 0.245743 0.450709 0.435771
C68   C     C_2   0.946828 0.255615 0.526128 0.392298
H25   H     H_    0.485655 0.932036 0.438570 0.088872
H26   H     H_    0.523829 0.891149 0.551995 0.070753
H27   H     H_    0.985653 0.432036 0.438569 0.088991
H28   H     H_    0.023833 0.391146 0.551996 0.070721
C69   C     C_2   0.245887 0.561442 0.584448 -0.002289
C70   C     C_2   0.754016 0.562751 0.415523 -0.023940
C71   C     C_2   0.745889 0.061445 0.584446 -0.002174
C72   C     C_2   0.254053 0.062728 0.415504 -0.024004
C73   C     C_2   0.237730 0.570725 0.427439 0.365134
C74   C     C_2   0.761644 0.570534 0.572718 0.348990
C75   C     C_2   0.737731 0.070729 0.427438 0.365129
C76   C     C_2   0.261638 0.070508 0.572710 0.348759
C77   C     C_2   0.184503 0.545167 0.472399 -0.084201
C78   C     C_2   0.815276 0.547113 0.527646 -0.068162
C79   C     C_2   0.684507 0.045163 0.472398 -0.084110
C80   C     C_2   0.315328 0.047357 0.527654 -0.068406
C81   C     C_2   0.186510 0.575327 0.547721 0.355217
C82   C     C_2   0.813198 0.577211 0.452491 0.360572
C83   C     C_2   0.686513 0.075325 0.547719 0.355220
C84   C     C_2   0.313222 0.077334 0.452484 0.360392
H29   H     H_    0.134880 0.510329 0.452062 0.114149
H30   H     H_    0.865362 0.514214 0.547839 0.114747
H31   H     H_    0.634886 0.010315 0.452061 0.114156
H32   H     H_    0.365488 0.014800 0.547871 0.115125
H33   H     H_    0.289316 0.509649 0.561882 0.172375
H34   H     H_    0.710648 0.510910 0.437703 0.145017
H35   H     H_    0.789319 0.009655 0.561880 0.172443
H36   H     H_    0.210717 0.010788 0.437667 0.145318
F1    F     F_    0.128130 0.626142 0.577437 -0.580564
F2    F     F_    0.871474 0.628186 0.423108 -0.578109
F3    F     F_    0.628131 0.126134 0.577436 -0.580652
F4    F     F_    0.371472 0.128388 0.423092 -0.578084
F5    F     F_    0.299796 0.619277 0.449097 -0.574253
F6    F     F_    0.698635 0.616043 0.551191 -0.646389
F7    F     F_    0.799790 0.119299 0.449095 -0.574304
F8    F     F_    0.198488 0.115443 0.551148 -0.646202
C85   C     C_2   0.437981 0.055713 0.142371 0.256907
H37   H     H_    0.414016 0.973656 0.163307 0.096676
O53   O     O_2   0.434643 0.149355 0.177711 -0.475360
C86   C     C_2   0.558882 0.061902 0.859585 0.257956
H38   H     H_    0.584079 0.981299 0.837578 0.096429
O54   O     O_2   0.561398 0.156801 0.825794 -0.481971
C87   C     C_2   0.938268 0.556431 0.142385 0.257274
H39   H     H_    0.913841 0.474664 0.163213 0.096397
O55   O     O_2   0.935463 0.650043 0.177835 -0.475297
C88   C     C_2   0.059200 0.561235 0.859587 0.257600
H40   H     H_    0.083986 0.480354 0.837487 0.096648
O56   O     O_2   0.062219 0.656142 0.825896 -0.481980
F9    F     F_    0.456333 0.634031 0.419389 -0.503359
F10   F     F_    0.396977 0.678500 0.551380 -0.543439
F11   F     F_    0.956341 0.134027 0.419391 -0.503306
F12   F     F_    0.896979 0.178503 0.551381 -0.543457

loop_
_geom_bond_atom_site_label_1
_geom_bond_atom_site_label_2
_geom_bond_distance
_ccdc_geom_bond_type
C10   C46   1.453281 S    
Cr11  O51   1.974079 S    
O4    C12   1.268614 A    
C18   O42   1.268282 A    
C33   C34   1.367279 A    
C62   H25   1.087521 S    
O39   C19   1.271892 A    
O20   Cr12  2.070006 S    
O29   C13   1.272699 A    
O37   Cr5   1.932975 S    
C43   C44   1.389139 A    
C42   H6    1.083358 S    
C71   C83   1.332171 D    
O29   Cr1   1.939223 S    
O26   C22   1.268965 A    
C29   C30   1.423197 A    
C68   F12   1.359313 S    
O1    C9    1.267764 A    
C18   C62   1.444469 S    
C38   C44   1.401575 A    
C27   C36   1.399418 A    
O7    C3    1.271711 A    
C85   H37   1.085002 S    
C75   F7    1.358387 S    
C81   F1    1.361363 S    
O39   Cr7   1.932975 S    
C88   O56   1.221315 D    
C78   H30   1.087681 S    
C72   H36   1.087428 S    
O24   C12   1.271566 A    
C55   H11   1.086411 S    
C70   H34   1.087442 S    
C67   F11   1.361874 S    
C56   H12   1.086409 S    
C20   C64   1.444463 S    
C27   C31   1.424193 A    
C5    C26   1.470211 S    
C26   C30   1.423849 A    
C47   H23   1.086946 S    
O21   C9    1.270756 A    
O8    Cr4   1.946364 S    
C1    C52   1.453449 S    
O23   Cr11  1.935817 S    
C7    C28   1.470224 S    
C45   H21   1.086925 S    
O30   C14   1.271061 A    
C77   H29   1.088092 S    
O32   Cr4   1.930467 S    
C1    O9    1.268757 A    
H2    C34   1.083737 S    
O25   Cr1   2.057384 S    
C49   C53   1.342785 D    
C3    O11   1.268766 A    
O44   Cr12  2.049909 S    
C16   C73   1.436608 S    
C4    O12   1.267686 A    
C26   C33   1.398259 A    
C40   C42   1.401754 A    
C85   O53   1.221214 D    
C62   C65   1.330650 D    
C17   C61   1.445136 S    
C47   C59   1.343114 D    
C84   F4    1.361406 S    
C7    O19   1.270801 A    
C45   C57   1.343102 D    
C61   H26   1.085724 S    
Cr4   O52   1.981155 S    
O2    Cr2   2.048552 S    
C41   H5    1.083438 S    
C52   C56   1.342778 D    
C29   C37   1.424368 A    
C80   H32   1.087827 S    
O42   Cr10  2.049909 S    
C64   H27   1.087524 S    
Cr5   O49   1.976888 S    
C87   H39   1.085379 S    
O18   Cr10  2.070006 S    
O28   C24   1.268918 A    
O31   Cr3   1.939223 S    
C39   C41   1.401595 A    
C79   H31   1.088074 S    
O24   Cr12  1.931027 S    
C22   C70   1.444530 S    
Cr7   O51   1.976888 S    
O6    Cr2   1.946364 S    
C67   C68   1.448087 S    
O35   Cr7   2.064682 S    
C73   C77   1.349006 D    
C9    C45   1.454603 S    
C37   C43   1.401596 A    
O9    Cr5   2.051492 S    
C32   C40   1.424196 A    
O30   Cr2   1.930467 S    
C14   C75   1.436611 S    
O22   C10   1.271586 A    
C71   H35   1.087501 S    
O48   Cr12  1.949574 S    
C49   H17   1.087124 S    
C46   H22   1.086892 S    
C86   O54   1.221773 D    
C2    C51   1.454341 S    
C88   H40   1.085021 S    
C8    C27   1.469773 S    
C15   C74   1.438636 S    
O16   Cr8   1.944028 S    
C15   O35   1.259536 A    
O26   Cr2   2.065596 S    
O27   C23   1.267906 A    
Cr10  O50   1.976864 S    
C79   C83   1.448000 S    
O13   C5    1.274756 A    
O40   C20   1.264687 A    
O43   Cr11  2.053658 S    
O48   C24   1.268918 A    
O12   Cr8   2.059038 S    
C50   C54   1.342786 D    
O15   C7    1.274938 A    
C61   C66   1.351980 D    
O5    C1    1.271714 A    
C46   C58   1.342682 D    
O34   Cr6   2.060146 S    
C19   C63   1.445136 S    
O46   Cr10  1.949574 S    
C69   C81   1.332185 D    
O25   C21   1.267903 A    
O45   Cr9   1.947162 S    
C31   C32   1.423240 A    
C64   C67   1.330641 D    
C13   O33   1.259542 A    
O40   Cr8   1.939249 S    
O8    C4    1.271476 A    
O13   Cr5   1.947528 S    
C24   C72   1.444537 S    
O7    Cr3   1.938129 S    
C63   C68   1.351973 D    
Cr2   O50   1.981155 S    
O15   Cr7   1.947528 S    
Cr1   O49   1.981097 S    
C66   F10   1.359317 S    
C23   C71   1.445217 S    
C65   F9    1.361870 S    
Cr3   O51   1.981097 S    
O14   Cr6   1.944028 S    
O21   Cr9   1.935817 S    
C48   H24   1.086889 S    
O27   Cr3   2.057384 S    
C73   F5    1.358419 S    
C53   C57   1.462293 S    
C2    O10   1.267687 A    
C6    C25   1.469741 S    
O23   C11   1.270764 A    
C3    C50   1.453458 S    
C50   H18   1.087142 S    
O3    C11   1.267761 A    
C58   H14   1.086338 S    
C25   C29   1.424077 A    
C51   C55   1.342784 D    
C44   H8    1.083308 S    
O47   Cr11  1.947162 S    
O3    Cr3   2.058024 S    
C8    O20   1.270230 A    
O38   C18   1.264685 A    
C76   C80   1.349443 D    
C53   H9    1.086426 S    
C5    O17   1.271043 A    
C56   C60   1.460869 S    
O37   C17   1.271886 A    
O22   Cr10  1.931027 S    
C37   C85   1.485706 S    
H1    C33   1.083888 S    
C38   C86   1.486026 S    
C48   C60   1.342707 D    
O36   Cr8   2.060146 S    
C40   C88   1.486127 S    
Cr12  O52   1.976864 S    
H3    C35   1.083955 S    
C86   H38   1.085325 S    
O17   Cr9   2.068158 S    
C76   F8    1.360927 S    
C25   C34   1.399621 A    
O6    C2    1.271470 A    
C75   C79   1.348992 D    
C17   O41   1.256594 A    
C70   C82   1.331829 D    
C78   C82   1.447651 S    
O11   Cr7   2.051492 S    
C60   H16   1.086370 S    
C31   C39   1.424373 A    
C14   O34   1.257415 A    
C19   O43   1.256593 A    
C30   C38   1.424030 A    
C20   O44   1.268280 A    
O1    Cr1   2.058024 S    
C63   H28   1.085728 S    
O14   C6    1.274821 A    
Cr8   O52   1.974268 S    
O32   C16   1.271060 A    
O41   Cr9   2.053658 S    
C21   C69   1.445219 S    
C82   F2    1.361388 S    
C39   C87   1.485731 S    
C77   C81   1.448006 S    
O2    C10   1.268605 A    
C11   C47   1.454612 S    
O46   C22   1.268863 A    
O45   C21   1.268985 A    
C28   C32   1.423899 A    
O19   Cr11  2.068158 S    
C74   C78   1.349343 D    
O33   Cr5   2.064682 S    
C72   C84   1.331904 D    
O47   C23   1.268983 A    
O10   Cr6   2.059038 S    
O5    Cr1   1.938129 S    
C12   C48   1.453268 S    
C13   C76   1.438650 S    
C55   C59   1.462285 S    
O4    Cr4   2.048552 S    
C59   H15   1.086421 S    
H4    C36   1.083837 S    
C83   F3    1.361358 S    
O28   Cr4   2.065596 S    
C16   O36   1.257417 A    
C57   H13   1.086420 S    
C54   H10   1.086423 S    
Cr6   O50   1.974268 S    
C6    O18   1.269984 A    
C28   C35   1.398679 A    
C51   H19   1.087088 S    
C35   C36   1.367251 A    
C87   O55   1.221577 D    
C54   C58   1.460870 S    
C52   H20   1.087144 S    
C43   H7    1.083346 S    
C74   F6    1.360663 S    
C65   C66   1.448076 S    
C41   C42   1.389195 A    
O31   C15   1.272729 A    
O16   C8    1.274692 A    
C69   H33   1.087506 S    
Cr9   O49   1.974079 S    
C4    C49   1.454363 S    
C80   C84   1.447634 S    
O38   Cr6   1.939249 S    
