data_mof_unit_25115.cif
_audit_creation_date              2012-12-10T20:41:51-0500
_audit_creation_method            fapswitch 2.2
_symmetry_space_group_name_H-M    P1
_symmetry_Int_Tables_number       1
_space_group_crystal_system       triclinic
_cell_length_a                    14.813377
_cell_length_b                    15.321067
_cell_length_c                    9.939675
_cell_angle_alpha                 90.364251
_cell_angle_beta                  90.29268
_cell_angle_gamma                 89.681318
_cell_volume                      2255.76674191

loop_
_atom_site_label
_atom_site_type_symbol
_atom_type_description
_atom_site_fract_x
_atom_site_fract_y
_atom_site_fract_z
_atom_type_partial_charge
C1    C     C_R   0.385361 0.875771 0.500074 0.920310
C2    C     C_R   0.928710 0.464572 0.068099 0.064600
C3    C     C_R   0.572438 0.028635 0.072627 -0.068149
C4    C     C_R   0.072982 0.527391 0.072648 -0.125512
C5    C     C_R   0.572342 0.028687 0.929313 -0.081813
C6    C     C_R   0.072799 0.527662 0.929301 -0.078035
C7    C     C_R   0.431894 0.961504 0.926396 0.076813
C8    C     C_R   0.931503 0.462245 0.926294 0.085667
C9    C     C_3   0.335745 0.980264 0.904912 -0.524885
C10   C     C_3   0.835623 0.481344 0.903810 -0.527006
C11   C     C_3   0.327846 0.985457 0.057291 0.704673
C12   C     C_R   0.385039 0.124570 0.500562 0.934882
C13   C     C_3   0.827376 0.487852 0.056008 0.679583
C14   C     C_R   0.622247 0.117582 0.500352 0.857006
C15   C     C_R   0.623594 0.883638 0.500061 0.855164
C16   C     C_R   0.122406 0.617432 0.500371 0.861393
C17   C     C_R   0.123681 0.383646 0.500071 0.854909
C18   C     C_R   0.299446 0.235299 0.624620 0.080121
C19   C     C_R   0.286287 0.780049 0.622158 0.119834
C20   C     C_R   0.797482 0.733658 0.624624 0.087540
C21   C     C_R   0.785219 0.280981 0.622208 0.119461
C22   C     C_R   0.335428 0.205044 0.503959 -0.114015
C23   C     C_R   0.885302 0.375837 0.500129 0.931346
C24   C     C_R   0.328434 0.801483 0.502241 -0.122963
C25   C     C_R   0.834545 0.704402 0.504100 -0.112607
C26   C     C_R   0.827998 0.301886 0.502424 -0.135273
C27   C     C_R   0.323445 0.255586 0.388004 -0.105346
C28   C     C_R   0.311068 0.754445 0.384607 -0.101690
C29   C     C_R   0.823465 0.755725 0.388742 -0.108850
C30   C     C_R   0.810366 0.255141 0.384570 -0.125592
C31   C     C_R   0.755758 0.818922 0.386657 -0.171618
C32   C     C_R   0.741218 0.195334 0.382413 -0.195977
C33   C     C_R   0.255450 0.318531 0.385902 -0.197560
C34   C     C_R   0.884683 0.624304 0.500558 0.932812
C35   C     C_R   0.242008 0.694490 0.382587 -0.185131
C36   C     C_R   0.703508 0.831869 0.502500 -0.108830
C37   C     C_R   0.693685 0.178875 0.501045 -0.123461
C38   C     C_R   0.203959 0.332191 0.502380 -0.108268
C39   C     C_R   0.194333 0.678244 0.501171 -0.111379
C40   C     C_R   0.732658 0.797076 0.623930 0.104547
C41   C     C_R   0.717455 0.219942 0.621421 0.147122
C42   C     C_R   0.234481 0.298637 0.624023 0.106230
C43   C     C_R   0.218471 0.719007 0.621659 0.154346
C44   C     C_3   0.680465 0.755741 0.734395 -0.398023
C45   C     C_3   0.256327 0.188247 0.737752 -0.385848
C46   C     C_3   0.753060 0.176288 0.744928 -0.452237
C47   C     C_3   0.183873 0.258310 0.737050 -0.401999
C48   C     C_3   0.255015 0.674880 0.744215 -0.468800
C49   C     C_3   0.331301 0.739246 0.741512 -0.446988
C50   C     C_3   0.752794 0.685646 0.735492 -0.391764
C51   C     C_3   0.829246 0.240775 0.743058 -0.439370
C52   C     C_R   0.429368 0.963177 0.068351 0.097096
H1    H     H_    0.360743 0.242067 0.297516 0.234536
H2    H     H_    0.775289 0.107761 0.726718 0.198815
H3    H     H_    0.184443 0.299917 0.829104 0.222479
H4    H     H_    0.276977 0.606379 0.725069 0.202587
H5    H     H_    0.613334 0.731529 0.700705 0.199602
H6    H     H_    0.707409 0.185897 0.832229 0.226765
H7    H     H_    0.116350 0.233704 0.705950 0.198914
H8    H     H_    0.210057 0.684195 0.832373 0.210923
H9    H     H_    0.300056 0.190951 0.828620 0.258467
H10   H     H_    0.397563 0.708811 0.716517 0.203606
H11   H     H_    0.795151 0.687809 0.827639 0.269943
H12   H     H_    0.349747 0.765582 0.294695 0.222626
H13   H     H_    0.895783 0.210341 0.719742 0.200276
H14   H     H_    0.230620 0.122820 0.707927 0.208013
H15   H     H_    0.332973 0.782853 0.830343 0.251943
H16   H     H_    0.727519 0.620407 0.703836 0.207684
H17   H     H_    0.829832 0.284282 0.832215 0.244726
H18   H     H_    0.630717 0.052974 0.126645 0.137160
H19   H     H_    0.131661 0.550799 0.126699 0.142093
H20   H     H_    0.630621 0.052594 0.876639 0.134817
H21   H     H_    0.131394 0.550879 0.876605 0.134012
H22   H     H_    0.326711 0.042442 0.851030 0.214784
H23   H     H_    0.861059 0.742551 0.298377 0.209291
H24   H     H_    0.300124 0.925173 0.855734 0.215061
H25   H     H_    0.827215 0.543020 0.848557 0.215564
H26   H     H_    0.799744 0.426181 0.855396 0.213139
H27   H     H_    0.185505 0.086913 0.258197 0.390805
H28   H     H_    0.238631 0.764645 0.076858 0.371029
H29   H     H_    0.922256 0.652842 0.130081 0.352310
H30   H     H_    0.675200 0.387047 0.297495 0.377975
H31   H     H_    0.849129 0.266113 0.294681 0.224758
H32   H     H_    0.740614 0.852494 0.293579 0.181356
H33   H     H_    0.726129 0.161341 0.289157 0.185567
H34   H     H_    0.239539 0.351351 0.292461 0.183454
H35   H     H_    0.226915 0.660371 0.289451 0.161510
H36   H     H_    0.679864 0.796435 0.827413 0.225053
N1    N     N_R   0.499140 1.000000 0.142800 -0.106250
N2    N     N_R   0.999140 0.500000 0.142800 -0.131065
N3    N     N_R   0.499160 1.000000 0.857150 -0.091622
N4    N     N_R   0.999160 0.500000 0.857150 -0.088083
O1    O     O_R   0.408400 0.908380 0.614690 -0.626033
O2    O     O_R   0.591610 0.908390 0.614650 -0.624148
O3    O     O_R   0.091610 0.591610 0.614650 -0.623089
O4    O     O_R   0.091610 0.408390 0.614650 -0.623557
O5    O     O_R   0.591590 0.091600 0.385310 -0.635948
O6    O     O_R   0.591590 0.908400 0.385310 -0.625943
O7    O     O_R   0.091590 0.591600 0.385310 -0.641532
O8    O     O_R   0.091590 0.408400 0.385310 -0.621304
O9    O     O_2   0.367636 0.155485 0.094609 -0.351082
O10   O     O_2   0.214770 0.121211 0.017657 -0.332960
O11   O     O_3   0.251979 0.091555 0.266234 -0.524904
O12   O     O_R   0.408400 0.091620 0.614690 -0.632207
O13   O     O_2   0.237699 0.910511 0.263216 -0.283098
O14   O     O_2   0.161839 0.916407 0.044959 -0.286404
O15   O     O_3   0.291613 0.803732 0.073870 -0.650971
O16   O     O_2   0.708219 0.617982 0.019000 -0.270700
O17   O     O_2   0.761556 0.598138 0.246793 -0.249884
O18   O     O_3   0.870657 0.669584 0.072137 -0.610250
O19   O     O_2   0.661739 0.417981 0.040921 -0.270104
O20   O     O_2   0.786563 0.316979 0.084218 -0.395506
O21   O     O_3   0.731910 0.418869 0.279879 -0.520348
O22   O     O_R   0.908400 0.408380 0.614690 -0.626441
O23   O     O_R   0.908400 0.591620 0.614690 -0.625276
O24   O     O_R   0.408370 0.908370 0.385350 -0.574646
O25   O     O_R   0.408370 0.091630 0.385350 -0.529614
O26   O     O_R   0.908370 0.408370 0.385350 -0.565843
O27   O     O_R   0.908370 0.591630 0.385350 -0.577662
O28   O     O_R   0.591610 0.091610 0.614650 -0.624501
S1    S     S_3+6 0.290981 0.092420 0.107758 0.031617
S2    S     S_3+6 0.251364 0.903207 0.114125 0.010280
S3    S     S_3+6 0.789916 0.595535 0.102323 0.042455
S4    S     S_3+6 0.750085 0.406612 0.114132 0.038304
Zn1   Zn    Zn3+2 0.500010 1.000000 0.653130 0.954156
Zn2   Zn    Zn3+2 0.000010 0.500000 0.653130 0.954895
Zn3   Zn    Zn3+2 0.499980 0.000000 0.346870 1.027506
Zn4   Zn    Zn3+2 0.999980 0.500000 0.346870 0.993657

loop_
_geom_bond_atom_site_label_1
_geom_bond_atom_site_label_2
_ccdc_geom_bond_type
C21   C26   A    
O5    Zn3   S    
H27   O11   S    
C23   O26   A    
C10   H26   S    
C27   C33   A    
H28   O15   S    
O23   Zn2   S    
C6    H21   S    
C7    C52   A    
C12   O12   A    
C5    H20   S    
C18   C42   A    
C13   S3    S    
C20   C25   A    
C12   C22   S    
C48   H4    S    
C51   H13   S    
C23   C26   S    
C30   H31   S    
C2    N2    A    
C2    C13   S    
C20   C50   S    
C11   C52   S    
C35   H35   S    
O12   Zn1   S    
C28   C35   A    
O24   Zn3   S    
C41   C46   S    
C8    N4    A    
C9    H24   S    
O10   S1    D    
C49   H15   S    
C43   C48   S    
C25   C34   S    
C17   C38   S    
O27   Zn4   S    
O8    Zn4   S    
C46   H6    S    
C50   H11   S    
O14   S2    D    
C52   N1    A    
C11   S1    S    
O26   Zn4   S    
C15   O2    A    
C10   H25   S    
C19   C43   A    
C48   H8    S    
C4    N2    A    
C45   C47   S    
C25   C29   A    
C36   C40   A    
C3    H18   S    
C4    C6    A    
C13   S4    S    
O28   Zn1   S    
O17   S3    D    
C39   C43   A    
C34   O23   A    
C46   C51   S    
O9    S1    D    
C31   H32   S    
C35   C39   A    
C33   H34   S    
O18   S3    S    
O25   Zn3   S    
C19   C49   S    
C20   C40   A    
C44   H5    S    
C7    N3    A    
C46   H2    S    
O4    Zn2   S    
C17   O4    A    
C32   C37   A    
C9    C11   S    
C5    N3    A    
C21   C41   A    
C28   H12   S    
C8    C10   S    
C48   C49   S    
C1    O24   A    
C26   C30   A    
C14   O28   A    
C22   C27   A    
C11   S2    S    
C9    H22   S    
O16   S3    D    
O11   S1    S    
C18   C45   S    
C15   C36   S    
C21   C51   S    
C14   O5    A    
C47   H3    S    
N1    Zn3   S    
O2    Zn1   S    
C44   C50   S    
C34   O27   A    
C7    C9    S    
O6    Zn3   S    
C16   O3    A    
C49   H10   S    
N3    Zn1   S    
O19   S4    D    
C18   C22   A    
C2    C8    A    
C24   C28   A    
H30   O21   S    
C3    C5    A    
C10   C13   S    
N4    Zn2   S    
C27   H1    S    
C16   O7    A    
O20   S4    D    
O7    Zn4   S    
C29   H23   S    
C51   H17   S    
C33   C38   A    
C3    N1    A    
C19   C24   A    
C29   C31   A    
C23   O22   A    
C30   C32   A    
O3    Zn2   S    
O21   S4    S    
C6    N4    A    
C32   H33   S    
C45   H9    S    
O13   S2    D    
C42   C47   S    
C37   C41   A    
C17   O8    A    
O1    Zn1   S    
C16   C39   S    
C47   H7    S    
C12   O25   A    
C38   C42   A    
C40   C44   S    
H29   O18   S    
C1    C24   S    
C1    O1    A    
C45   H14   S    
O22   Zn2   S    
N2    Zn4   S    
C31   C36   A    
C15   O6    A    
O15   S2    S    
C44   H36   S    
C50   H16   S    
C4    H19   S    
C14   C37   S    
