data_mof_unit_8180.cif
_audit_creation_date              2012-12-10T19:07:07-0500
_audit_creation_method            fapswitch 2.2
_symmetry_space_group_name_H-M    P1
_symmetry_Int_Tables_number       1
_space_group_crystal_system       triclinic
_cell_length_a                    27.793202
_cell_length_b                    10.829558
_cell_length_c                    9.540393
_cell_angle_alpha                 90.437153
_cell_angle_beta                  89.953354
_cell_angle_gamma                 90.268374
_cell_volume                      2871.42874587

loop_
_atom_site_label
_atom_site_type_symbol
_atom_type_description
_atom_site_fract_x
_atom_site_fract_y
_atom_site_fract_z
_atom_type_partial_charge
C1    C     C_R   0.498838 0.262388 0.499448 0.805735
C2    C     C_R   0.974705 0.387806 0.472000 0.058914
C3    C     C_R   0.974749 0.604529 0.552144 0.041404
C4    C     C_R   0.407438 0.499935 0.500075 0.800945
C5    C     C_R   0.949458 0.496256 0.511066 0.069714
C6    C     C_R   0.948583 0.291231 0.406913 -0.127146
C7    C     C_R   0.898600 0.293141 0.400263 -0.147051
C8    C     C_R   0.873040 0.394067 0.453489 -0.025222
C9    C     C_R   0.898431 0.497019 0.506553 -0.048030
C10   C     C_R   0.872791 0.601117 0.553804 -0.023234
C11   C     C_R   0.822298 0.598997 0.550721 0.538254
C12   C     C_R   0.278974 0.512160 0.628428 -0.100855
C13   C     C_R   0.822543 0.395970 0.451760 0.543042
C14   C     C_R   0.721482 0.497050 0.373300 -0.098454
C15   C     C_R   0.671300 0.497449 0.372966 -0.217587
C16   C     C_R   0.499154 0.737833 0.500242 0.807392
C17   C     C_R   0.671104 0.496043 0.627175 -0.220703
C18   C     C_R   0.721262 0.495681 0.627253 -0.099110
C19   C     C_R   0.746645 0.496521 0.500414 0.353342
C20   C     C_R   0.025380 0.382849 0.490937 -0.042372
C21   C     C_R   0.050796 0.495426 0.514101 0.028922
C22   C     C_R   0.025652 0.607069 0.541243 0.053676
C23   C     C_R   0.253505 0.498830 0.502734 0.355732
C24   C     C_R   0.052027 0.270666 0.490488 0.345958
C25   C     C_R   0.102310 0.718215 0.547769 -0.123093
C26   C     C_R   0.948058 0.706968 0.601265 -0.189270
C27   C     C_R   0.898019 0.704746 0.602862 -0.130065
C28   C     C_R   0.592577 0.499318 0.499976 0.801206
C29   C     C_R   0.052377 0.717891 0.555085 -0.183315
C30   C     C_R   0.489905 0.065147 0.623675 0.130397
C31   C     C_R   0.493571 0.129485 0.498111 -0.099408
C32   C     C_R   0.490390 0.063450 0.371039 -0.206633
C33   C     C_R   0.490704 0.934687 0.371725 -0.205960
C34   C     C_R   0.101832 0.496317 0.511507 -0.047294
C35   C     C_R   0.494226 0.871071 0.499471 -0.099531
C36   C     C_R   0.490255 0.938041 0.624550 0.137498
C37   C     C_3   0.520351 0.935288 0.754112 -0.486909
C38   C     C_3   0.519680 0.075229 0.753262 -0.448080
C39   C     C_R   0.540908 0.528153 0.073963 0.258670
C40   C     C_R   0.177855 0.388425 0.490012 0.563593
C41   C     C_R   0.461154 0.459321 0.074043 -0.081906
C42   C     C_R   0.461129 0.459487 0.925316 -0.081593
C43   C     C_R   0.541049 0.527232 0.926554 0.255896
C44   C     C_3   0.569102 0.644592 0.921725 -0.506160
C45   C     C_R   0.127341 0.385414 0.493728 -0.092327
C46   C     C_3   0.568552 0.646209 0.080726 -0.490044
C47   C     C_R   0.177948 0.606943 0.523012 0.539705
C48   C     C_R   0.278406 0.485955 0.375922 -0.099747
C49   C     C_R   0.328607 0.486756 0.374678 -0.211525
C50   C     C_R   0.329126 0.512315 0.627624 -0.213390
C51   C     C_R   0.102156 0.273588 0.486957 -0.156373
C52   C     C_R   0.127469 0.608083 0.527540 -0.014582
C53   C     C_R   0.354436 0.499743 0.500663 -0.037624
C54   C     C_R   0.645609 0.497727 0.499995 -0.038999
Cl1   Cl    Cl    0.026498 0.123944 0.523822 -0.659213
Cu1   Cu    Cu3+1 0.500000 0.499980 0.640670 0.945349
Cu2   Cu    Cu3+1 0.500000 0.500020 0.359330 0.945809
H1    H     H_    0.348015 0.522661 0.726287 0.152844
H2    H     H_    0.490657 0.885821 0.272252 0.163113
H3    H     H_    0.500398 0.895912 0.844495 0.199051
H4    H     H_    0.259823 0.521979 0.726747 0.139241
H5    H     H_    0.556780 0.896671 0.734698 0.202090
H6    H     H_    0.499255 0.115906 0.842450 0.199693
H7    H     H_    0.555634 0.117346 0.733946 0.204803
H8    H     H_    0.429458 0.427634 0.128938 0.140419
H9    H     H_    0.429400 0.428039 0.869990 0.142577
H10   H     H_    0.605641 0.631603 0.877002 0.195127
H11   H     H_    0.548183 0.720294 0.875132 0.213943
H12   H     H_    0.258808 0.475666 0.278448 0.139294
H13   H     H_    0.604826 0.634284 0.127236 0.194008
H14   H     H_    0.547259 0.723562 0.125876 0.212233
H15   H     H_    0.121474 0.186897 0.484410 0.219501
H16   H     H_    0.652717 0.497415 0.273355 0.150315
H17   H     H_    0.740868 0.497651 0.274803 0.143464
H18   H     H_    0.880118 0.215596 0.351769 0.194397
H19   H     H_    0.966368 0.215799 0.354116 0.200509
H20   H     H_    0.347121 0.476688 0.275363 0.149244
H21   H     H_    0.121149 0.805589 0.558514 0.202668
H22   H     H_    0.964946 0.789307 0.642682 0.165566
H23   H     H_    0.652386 0.494663 0.726633 0.150135
H24   H     H_    0.879166 0.785397 0.641699 0.195085
H25   H     H_    0.740481 0.494459 0.725923 0.142873
H26   H     H_    0.035550 0.806812 0.567473 0.184113
H27   H     H_    0.490250 0.110536 0.271285 0.166768
N1    N     N_R   0.201961 0.498161 0.504210 -0.469913
N2    N     N_R   0.798277 0.497141 0.500912 -0.469160
N3    N     N_R   0.500300 0.500930 0.147930 -0.185707
N4    N     N_R   0.500310 0.500890 0.852020 -0.184669
O1    O     O_R   0.500000 0.319640 0.618810 -0.578392
O2    O     O_R   0.569730 0.499960 0.618810 -0.584429
O3    O     O_R   0.569740 0.500000 0.381220 -0.582153
O4    O     O_2   0.202731 0.282564 0.473494 -0.525272
O5    O     O_2   0.797870 0.297065 0.402834 -0.531746
O6    O     O_2   0.202878 0.713565 0.537073 -0.525265
O7    O     O_2   0.797379 0.698298 0.595942 -0.533007
O8    O     O_R   0.500010 0.319680 0.381230 -0.583075
O9    O     O_R   0.430260 0.500000 0.618780 -0.590685
O10   O     O_R   0.430270 0.500040 0.381190 -0.589583
O11   O     O_R   0.499990 0.680320 0.618770 -0.575197
O12   O     O_R   0.500000 0.680360 0.381190 -0.583167

loop_
_geom_bond_atom_site_label_1
_geom_bond_atom_site_label_2
_ccdc_geom_bond_type
C10   C27   A    
C7    H18   S    
C8    C13   A    
C22   C29   A    
C4    O10   A    
C4    C53   S    
C41   C42   A    
C35   C36   A    
C39   N3    A    
C48   H12   S    
C19   N2    S    
C37   H5    S    
C7    C8    A    
C24   Cl1   S    
C12   C23   A    
C26   C27   A    
C43   N4    A    
C47   N1    A    
C36   C37   S    
C29   H26   S    
C16   C35   S    
C30   C31   A    
Cu1   N4    S    
C45   C51   A    
C11   N2    A    
C1    C31   S    
Cu1   Cu2   S    
C30   C38   S    
C18   C19   A    
C33   C35   A    
C20   C24   A    
C8    C9    A    
Cu2   O8    S    
C13   N2    A    
C9    C10   A    
C3    C22   A    
C24   C51   A    
Cu1   O2    S    
C33   H2    S    
C21   C22   A    
C2    C6    A    
Cu1   O9    S    
C41   N3    A    
C44   C46   S    
C38   H7    S    
C25   C29   A    
C40   C45   A    
C32   H27   S    
C50   C53   A    
C2    C20   A    
C25   H21   S    
C50   H1    S    
C15   C54   A    
C27   H24   S    
C28   C54   S    
C16   O12   A    
C39   C43   A    
C21   C34   A    
Cu2   O12   S    
C17   H23   S    
Cu2   N3    S    
C13   O5    S    
C40   N1    A    
C43   C44   S    
C5    C9    A    
C37   C38   S    
C31   C32   A    
C17   C18   A    
C34   C45   A    
C40   O4    S    
C46   H14   S    
C47   C52   A    
C39   C46   S    
C48   C49   A    
C15   H16   S    
C44   H11   S    
C2    C5    A    
C42   N4    A    
C51   H15   S    
C14   H17   S    
C38   H6    S    
C11   O7    S    
Cu1   O1    S    
C1    O1    A    
C23   C48   A    
Cu2   O3    S    
C14   C19   A    
C3    C26   A    
C3    C5    A    
C12   C50   A    
C16   O11   A    
C6    H19   S    
C6    C7    A    
C34   C52   A    
C26   H22   S    
C30   C36   A    
C32   C33   A    
C25   C52   A    
C12   H4    S    
C1    O8    A    
C49   C53   A    
Cu2   O10   S    
C18   H25   S    
C47   O6    S    
C49   H20   S    
C28   O3    A    
C41   H8    S    
C46   H13   S    
C37   H3    S    
C10   C11   A    
C20   C21   A    
C23   N1    S    
C42   H9    S    
C14   C15   A    
C44   H10   S    
C28   O2    A    
Cu1   O11   S    
C4    O9    A    
C17   C54   A    
