data_mof_unit_42611.cif
_audit_creation_date              2012-10-26T18:50:45-0400
_audit_creation_method            fapswitch 2.2
_symmetry_space_group_name_H-M    P1
_symmetry_Int_Tables_number       1
_space_group_crystal_system       triclinic
_cell_length_a                    12.315949
_cell_length_b                    13.191582
_cell_length_c                    17.280764
_cell_angle_alpha                 105.091116
_cell_angle_beta                  74.513407
_cell_angle_gamma                 116.792181
_cell_volume                      2382.9646808

loop_
_atom_site_label
_atom_site_type_symbol
_atom_type_description
_atom_site_fract_x
_atom_site_fract_y
_atom_site_fract_z
_atom_type_partial_charge
C1    C     C_R   0.144750 0.713358 0.504933 0.533709
C2    C     C_R   0.013676 0.485838 0.262224 0.020064
C3    C     C_R   0.738424 0.971495 0.398574 -0.130579
C4    C     C_R   0.987055 0.503273 0.652049 0.544295
C5    C     C_R   0.774219 0.164283 0.470405 -0.002692
C6    C     C_R   0.177733 0.918316 0.538948 -0.117328
C7    C     C_R   0.253481 0.035748 0.544607 0.013574
C8    C     C_R   0.381034 0.071164 0.519570 -0.114510
C9    C     C_R   0.433544 0.990065 0.484483 0.015027
C10   C     C_R   0.353592 0.872658 0.466710 0.017467
C11   C     C_R   0.563134 0.022095 0.465041 0.027540
C12   C     C_R   0.931219 0.574585 0.797234 -0.129867
C13   C     C_R   0.610535 0.940587 0.418139 0.051543
C14   C     C_R   0.529754 0.829811 0.390264 -0.140038
C15   C     C_R   0.403168 0.796510 0.413435 -0.120234
C16   C     C_R   0.855729 0.286122 0.487826 0.547519
C17   C     C_R   0.646988 0.132089 0.493067 -0.137143
C18   C     C_R   0.820089 0.083216 0.424112 -0.139898
C19   C     C_R   0.226476 0.835882 0.501823 -0.020707
C20   C     C_R   0.650904 0.685591 0.624349 0.212306
C21   C     C_R   0.247806 0.349075 0.391715 0.062018
C22   C     C_R   0.345105 0.313262 0.369107 -0.016135
C23   C     C_R   0.902307 0.424195 0.151247 -0.059877
C24   C     C_R   0.445941 0.372335 0.410290 -0.132340
C25   C     C_R   0.450549 0.465158 0.474171 -0.014332
C26   C     C_R   0.347747 0.495768 0.495319 0.170756
C27   C     C_R   0.552450 0.527860 0.518282 -0.043594
C28   C     C_R   0.011801 0.495141 0.347942 0.543704
C29   C     C_R   0.550142 0.621118 0.581614 0.030201
C30   C     C_R   0.445879 0.645636 0.602890 -0.170338
C31   C     C_R   0.348089 0.584911 0.560854 -0.097799
C32   C     C_R   0.657011 0.501813 0.502674 0.017800
C33   C     C_R   0.747787 0.651852 0.607028 0.102938
C34   C     C_R   0.902028 0.432868 0.233005 -0.135580
C35   C     C_R   0.976199 0.501477 0.737460 0.020047
C36   C     C_R   0.005250 0.423189 0.759695 -0.124501
C37   C     C_R   0.987568 0.416808 0.841393 -0.134068
C38   C     C_R   0.944091 0.491123 0.901737 0.026902
C39   C     C_R   0.916619 0.570379 0.879022 -0.119335
C40   C     C_3   0.198449 0.123210 0.580425 -0.277866
C41   C     C_3   0.117845 0.119982 0.525476 -0.428068
C42   C     C_3   0.346256 0.212401 0.302573 -0.295675
C43   C     C_3   0.231060 0.147482 0.262733 -0.451758
C44   C     C_R   0.126001 0.527726 0.209070 -0.131773
C45   C     C_R   0.126057 0.522057 0.127520 -0.126955
C46   C     C_R   0.014062 0.473423 0.098779 0.067511
C47   C     C_2   0.930542 0.488612 0.988853 0.225753
C48   C     C_2   0.016889 0.474450 0.013593 -0.067956
Cu1   Cu    Cu3+1 0.900140 0.524980 0.518800 0.928022
Cu2   Cu    Cu3+1 0.099860 0.475020 0.481200 0.899900
H1    H     H_    0.038307 0.364999 0.713909 0.124159
H2    H     H_    0.824601 0.699483 0.639625 0.142490
H3    H     H_    0.814896 0.396754 0.273234 0.109141
H4    H     H_    0.436592 0.710893 0.653845 0.125797
H5    H     H_    0.667123 0.433478 0.455438 0.126089
H6    H     H_    0.168695 0.305978 0.361416 0.137214
H7    H     H_    0.519292 0.343106 0.391244 0.091171
H8    H     H_    0.273637 0.610766 0.582943 0.188580
H9    H     H_    0.212945 0.567507 0.231108 0.117314
H10   H     H_    0.097875 0.470975 0.970253 0.068250
H11   H     H_    0.885351 0.630025 0.924390 0.127253
H12   H     H_    0.213177 0.557935 0.087277 0.107988
H13   H     H_    0.815198 0.378967 0.129460 0.160127
H14   H     H_    0.908864 0.635822 0.780624 0.123752
H15   H     H_    0.007200 0.353377 0.857342 0.102765
H16   H     H_    0.171508 0.132139 0.463323 0.163233
H17   H     H_    0.035768 0.036475 0.521849 0.150314
H18   H     H_    0.085580 0.190181 0.550494 0.158484
H19   H     H_    0.142103 0.105625 0.641332 0.144868
H20   H     H_    0.272244 0.211747 0.588993 0.146239
H21   H     H_    0.623529 0.824778 0.666063 0.323129
H22   H     H_    0.147640 0.111695 0.308823 0.138033
H23   H     H_    0.918567 0.106905 0.405805 0.118394
H24   H     H_    0.219553 0.205177 0.231832 0.150358
H25   H     H_    0.241161 0.074780 0.216280 0.152550
H26   H     H_    0.427879 0.244250 0.254358 0.152707
H27   H     H_    0.357560 0.149945 0.328870 0.151757
H28   H     H_    0.773530 0.502008 0.016084 0.320970
H29   H     H_    0.564464 0.768135 0.351081 0.113627
H30   H     H_    0.775189 0.909811 0.362335 0.112888
H31   H     H_    0.615328 0.194543 0.533356 0.122781
H32   H     H_    0.080227 0.891590 0.564069 0.134693
H33   H     H_    0.436766 0.162595 0.525235 0.097993
H34   H     H_    0.345567 0.711497 0.386535 0.153912
N1    N     N_R   0.749710 0.562810 0.547300 -0.271583
N2    N     N_R   0.249640 0.437820 0.453210 -0.253584
O1    O     O_R   0.025490 0.682370 0.523640 -0.506906
O2    O     O_3   0.836841 0.510182 0.045343 -0.716051
O3    O     O_R   0.194150 0.640180 0.491890 -0.527699
O4    O     O_R   0.905900 0.523560 0.631310 -0.499366
O5    O     O_R   0.074570 0.481370 0.599560 -0.523386
O6    O     O_R   0.805850 0.359820 0.508110 -0.507630
O7    O     O_R   0.974510 0.317630 0.476360 -0.512417
O8    O     O_R   0.925430 0.518630 0.400440 -0.499260
O9    O     O_R   0.094100 0.476440 0.368690 -0.515726
O10   O     O_3   0.658861 0.781358 0.682788 -0.723061

loop_
_geom_bond_atom_site_label_1
_geom_bond_atom_site_label_2
_ccdc_geom_bond_type
C1    O1    A    
C43   H22   S    
C6    H32   S    
C27   C29   A    
C8    H33   S    
Cu1   O1    S    
C35   C36   A    
Cu1   O4    S    
C7    C8    A    
C41   H17   S    
C22   C42   S    
C45   C46   A    
C33   H2    S    
C6    C19   A    
C30   H4    S    
C16   O7    A    
C29   C30   A    
C40   H20   S    
C28   O9    A    
C31   H8    S    
C36   C37   A    
C10   C15   A    
C30   C31   A    
C12   H14   S    
Cu2   O9    S    
C5    C17   A    
C44   H9    S    
C45   H12   S    
C3    C18   A    
C28   O8    A    
C33   N1    A    
C5    C16   S    
C2    C44   A    
C24   H7    S    
C37   H15   S    
C7    C40   S    
Cu1   O8    S    
C9    C10   A    
C32   H5    S    
C3    C13   A    
C4    O5    A    
C2    C34   A    
C43   H24   S    
C23   H13   S    
C20   O10   S    
C4    C35   S    
C26   C31   A    
C23   C46   A    
C13   C14   A    
C3    H30   S    
C48   H10   S    
C41   H18   S    
C4    O4    A    
C20   C29   A    
C43   H25   S    
C39   H11   S    
C46   C48   S    
C1    C19   S    
C40   H19   S    
Cu1   N1    S    
C24   C25   A    
C8    C9    A    
H21   O10   S    
C41   H16   S    
C25   C26   A    
C37   C38   A    
Cu2   O3    S    
C47   C48   D    
C10   C19   A    
C26   N2    A    
C23   C34   A    
C14   H29   S    
C12   C35   A    
C9    C11   A    
C38   C47   S    
C15   H34   S    
C36   H1    S    
C34   H3    S    
C20   C33   A    
C40   C41   S    
C16   O6    A    
C18   H23   S    
C22   C24   A    
C42   C43   S    
Cu1   O6    S    
C44   C45   A    
H28   O2    S    
C21   N2    A    
C11   C17   A    
C1    O3    A    
C27   C32   A    
C21   H6    S    
Cu2   O7    S    
C6    C7    A    
C5    C18   A    
C25   C27   A    
C42   H26   S    
C47   O2    S    
C12   C39   A    
C11   C13   A    
C38   C39   A    
C32   N1    A    
C17   H31   S    
Cu2   N2    S    
Cu2   O5    S    
C42   H27   S    
Cu1   Cu2   S    
C14   C15   A    
C2    C28   S    
C21   C22   A    
