data_mof_unit_25231.cif
_audit_creation_date              2012-10-26T20:21:19-0400
_audit_creation_method            fapswitch 2.2
_symmetry_space_group_name_H-M    P1
_symmetry_Int_Tables_number       1
_space_group_crystal_system       triclinic
_cell_length_a                    9.532392
_cell_length_b                    10.832652
_cell_length_c                    15.462994
_cell_angle_alpha                 89.64042
_cell_angle_beta                  74.644652
_cell_angle_gamma                 89.884875
_cell_volume                      1539.69531661

loop_
_atom_site_label
_atom_site_type_symbol
_atom_type_description
_atom_site_fract_x
_atom_site_fract_y
_atom_site_fract_z
_atom_type_partial_charge
C1    C     C_R   0.000007 0.262111 0.500096 0.550266
C2    C     C_R   0.127902 0.063631 0.499104 -0.135783
C3    C     C_R   0.999947 0.871758 0.499923 0.021017
C4    C     C_R   0.000037 0.128238 0.500117 0.020830
C5    C     C_R   0.549788 0.427169 0.558532 -0.012020
C6    C     C_R   0.450204 0.572857 0.441482 -0.011837
C7    C     C_R   0.400648 0.426932 0.558806 0.204895
C8    C     C_R   0.599343 0.573103 0.441212 0.205576
C9    C     C_R   0.918428 0.501217 0.672140 0.546752
C10   C     C_R   0.081583 0.499856 0.327800 0.546961
C11   C     C_R   0.873091 0.512795 0.770045 -0.000024
C12   C     C_R   0.999987 0.737888 0.499918 0.550117
C13   C     C_R   0.126480 0.497377 0.229404 -0.000587
C14   C     C_R   0.917880 0.579748 0.908970 -0.145088
C15   C     C_R   0.075879 0.458625 0.087012 -0.143112
C16   C     C_R   0.968972 0.555443 0.817720 -0.140171
C17   C     C_R   0.027490 0.469781 0.179781 -0.137761
C18   C     C_R   0.727212 0.491406 0.814756 -0.129576
C19   C     C_R   0.272893 0.517934 0.185192 -0.132575
C20   C     C_R   0.671404 0.519776 0.906015 0.035054
C21   C     C_R   0.324201 0.510063 0.091384 0.034272
C22   C     C_R   0.770373 0.562496 0.953343 0.049253
C23   C     C_R   0.576118 0.572841 0.089513 -0.137689
C24   C     C_R   0.223118 0.477337 0.042643 0.050003
C25   C     C_R   0.520700 0.507556 0.951195 0.034947
C26   C     C_R   0.473307 0.529881 0.045187 0.034594
C27   C     C_R   0.415382 0.476541 0.905236 -0.137661
C28   C     C_R   0.721265 0.589110 0.044196 -0.139601
C29   C     C_R   0.269811 0.462365 0.950237 -0.140008
C30   C     C_R   0.872110 0.064078 0.501063 -0.140730
C31   C     C_R   0.127869 0.935916 0.498989 -0.140775
C32   C     C_R   0.872077 0.936363 0.500947 -0.135639
Cu1   Cu    Cu3+1 0.140660 0.500020 0.500000 0.968355
Cu2   Cu    Cu3+1 0.859340 0.499980 0.500000 0.969193
H1    H     H_    0.795803 0.622975 0.080789 0.108755
H2    H     H_    0.440521 0.464911 0.833710 0.096055
H3    H     H_    0.772071 0.112274 0.501922 0.126610
H4    H     H_    0.227908 0.887719 0.498129 0.126499
H5    H     H_    0.772062 0.888529 0.501740 0.131567
H6    H     H_    0.227917 0.111465 0.498314 0.131583
H7    H     H_    0.586490 0.368748 0.605218 0.104833
H8    H     H_    0.413495 0.631298 0.394808 0.104448
H9    H     H_    0.303425 0.374054 0.685648 0.195223
H10   H     H_    0.336677 0.258476 0.610046 0.195056
H11   H     H_    0.663309 0.741633 0.390126 0.194798
H12   H     H_    0.193348 0.437984 0.912262 0.108800
H13   H     H_    0.696457 0.626231 0.314401 0.194035
H14   H     H_    0.345526 0.536341 0.226144 0.116562
H15   H     H_    0.659642 0.452521 0.776171 0.112643
H16   H     H_    0.913817 0.453265 0.212771 0.131273
H17   H     H_    0.082160 0.573120 0.784136 0.129787
H18   H     H_    0.993202 0.614629 0.944552 0.113463
H19   H     H_    0.998451 0.433205 0.050055 0.115099
H20   H     H_    0.547970 0.598390 0.159133 0.093700
N1    N     N_R   0.352080 0.500030 0.499980 -0.206690
N2    N     N_R   0.647920 0.499970 0.500020 -0.206573
N3    N     N_3   0.300422 0.349657 0.620838 -0.560030
N4    N     N_3   0.699544 0.650460 0.379227 -0.560608
O1    O     O_R   0.118740 0.319660 0.500000 -0.475102
O2    O     O_R   0.881260 0.680340 0.500000 -0.475240
O3    O     O_R   0.881170 0.319630 0.500010 -0.517305
O4    O     O_R   0.118830 0.680370 0.499990 -0.517641
O5    O     O_R   0.055570 0.500030 0.629830 -0.469334
O6    O     O_R   0.944430 0.499970 0.370170 -0.469037
O7    O     O_R   0.818000 0.500000 0.629840 -0.516841
O8    O     O_R   0.182000 0.500000 0.370160 -0.517836

loop_
_geom_bond_atom_site_label_1
_geom_bond_atom_site_label_2
_ccdc_geom_bond_type
C17   H16   S    
Cu1   N1    S    
C2    C4    A    
C21   C26   A    
C16   H17   S    
C11   C18   A    
Cu2   N2    S    
C7    N1    A    
C27   H2    S    
C27   C29   A    
C12   O4    A    
C11   C16   A    
C29   H12   S    
C5    N2    A    
C18   C20   A    
C31   H4    S    
C13   C17   A    
H10   N3    S    
Cu1   O5    S    
C1    C4    S    
C10   O6    A    
C8    N2    A    
Cu2   O6    S    
Cu1   Cu2   S    
C18   H15   S    
C21   C24   A    
Cu1   O1    S    
C22   C28   A    
C23   C28   A    
H13   N4    S    
Cu2   O2    S    
C9    C11   S    
C14   C22   A    
C10   O8    A    
C6    N1    A    
C3    C31   A    
C15   H19   S    
Cu2   O7    S    
C14   H18   S    
C15   C24   A    
C19   C21   A    
C20   C22   A    
Cu1   O8    S    
C9    O7    A    
C1    O1    A    
C3    C32   A    
C14   C16   A    
H11   N4    S    
C23   C26   A    
C25   C27   A    
C20   C25   A    
H9    N3    S    
C30   C32   A    
C2    H6    S    
C28   H1    S    
C23   H20   S    
C5    C7    A    
C6    H8    S    
C32   H5    S    
C15   C17   A    
C5    H7    S    
C24   C29   A    
C2    C31   A    
C13   C19   A    
C6    C8    A    
C3    C12   S    
C8    N4    S    
C25   C26   A    
C19   H14   S    
C9    O5    A    
C7    N3    S    
Cu2   O3    S    
C4    C30   A    
C30   H3    S    
C1    O3    A    
Cu1   O4    S    
C10   C13   S    
C12   O2    A    
