data_mof_unit_28339.cif
_audit_creation_date              2012-12-10T21:27:33-0500
_audit_creation_method            fapswitch 2.2
_symmetry_space_group_name_H-M    P1
_symmetry_Int_Tables_number       1
_space_group_crystal_system       triclinic
_cell_length_a                    10.878094
_cell_length_b                    16.280546
_cell_length_c                    16.647489
_cell_angle_alpha                 84.578881
_cell_angle_beta                  94.293135
_cell_angle_gamma                 104.885383
_cell_volume                      2832.6836289

loop_
_atom_site_label
_atom_site_type_symbol
_atom_type_description
_atom_site_fract_x
_atom_site_fract_y
_atom_site_fract_z
_atom_type_partial_charge
Br1   Br    Br    0.124249 0.492801 0.645830 -0.376223
Br2   Br    Br    0.480010 0.107836 0.318603 -0.145348
Br3   Br    Br    0.835707 0.351618 0.494812 -0.302441
Br4   Br    Br    0.068749 0.439549 0.369240 -0.222918
Br5   Br    Br    0.993421 0.648796 0.534644 -0.235916
Br6   Br    Br    0.740761 0.448712 0.305184 -0.270227
Br7   Br    Br    0.787904 0.529925 0.723209 -0.273107
Br8   Br    Br    0.765001 0.452400 0.109827 -0.184649
Br9   Br    Br    0.804398 0.544104 0.919136 -0.189771
Br10  Br    Br    0.647133 0.905392 0.676368 -0.190822
C1    C     C_R   0.501677 0.487055 0.653043 0.971525
C2    C     C_R   0.459809 0.100381 0.490773 0.065100
C3    C     C_R   0.567010 0.847349 0.583016 0.076220
C4    C     C_R   0.463763 0.153391 0.419145 0.121060
C5    C     C_R   0.594743 0.771235 0.563282 0.332983
C6    C     C_R   0.449771 0.237633 0.420484 0.381461
C7    C     C_R   0.743560 0.532747 0.503068 0.912550
C8    C     C_R   0.258937 0.466216 0.496206 0.901083
C9    C     C_2   0.880761 0.539869 0.514889 0.100711
C10   C     C_2   0.126097 0.452837 0.480871 0.116248
C11   C     C_2   0.926389 0.468508 0.517339 0.239535
C12   C     C_R   0.505149 0.513672 0.347001 0.988547
C13   C     C_2   0.058713 0.473101 0.536329 0.128869
C14   C     C_R   0.514003 0.475803 0.740113 -0.192731
C15   C     C_R   0.531388 0.528477 0.261849 -0.227377
C16   C     C_R   0.633700 0.500551 0.780834 0.223147
C17   C     C_R   0.627805 0.497858 0.232572 0.228634
C18   C     C_R   0.641312 0.499207 0.864947 0.228534
C19   C     C_R   0.643128 0.504027 0.149608 0.228359
C20   C     C_R   0.529775 0.466050 0.908013 0.079519
C21   C     C_R   0.567190 0.545863 0.096598 0.081493
C22   C     C_R   0.412992 0.431086 0.866701 0.412350
C23   C     C_R   0.405423 0.438578 0.782671 -0.239616
C24   C     C_R   0.480650 0.584430 0.127245 0.382532
C25   C     C_R   0.460411 0.572884 0.209490 -0.279953
C26   C     C_R   0.430975 0.754532 0.459976 0.356216
C27   C     C_R   0.498115 0.230195 0.561530 0.316913
C28   C     C_R   0.399019 0.830027 0.478833 0.116513
C29   C     C_R   0.458551 0.139113 0.563152 0.201229
C30   C     C_R   0.475531 0.880788 0.537066 0.047251
H1    H     H_    0.314696 0.415896 0.750217 0.231982
H2    H     H_    0.171872 0.834767 0.557787 0.380262
H3    H     H_    0.386727 0.596537 0.232208 0.265755
H4    H     H_    0.871319 0.894806 0.571267 0.389516
H5    H     H_    0.393455 0.337620 0.219819 0.394602
H6    H     H_    0.100815 0.285465 0.892689 0.414494
H7    H     H_    0.294920 0.740948 0.077769 0.419676
H8    H     H_    0.766876 0.357163 0.672376 0.404664
H9    H     H_    0.536517 0.745001 0.263585 0.400225
H10   H     H_    0.243368 0.961902 0.674705 0.403497
N1    N     N_2   0.532665 0.469258 0.992225 -0.056599
N2    N     N_2   0.569409 0.543623 0.012552 -0.050919
N3    N     N_R   0.515370 0.719110 0.509820 -0.204508
N4    N     N_R   0.484630 0.280890 0.490180 -0.211632
N5    N     N_2   0.470546 0.966842 0.548340 0.007627
N6    N     N_2   0.456068 0.011488 0.484486 -0.006771
O1    O     O_R   0.494500 0.421750 0.612630 -0.542778
O2    O     O_2   0.801395 0.756871 0.498097 -0.223940
O3    O     O_3   0.853645 0.851103 0.617411 -0.437637
O4    O     O_2   0.263533 0.194811 0.305324 -0.186722
O5    O     O_2   0.280123 0.328835 0.361978 -0.246294
O6    O     O_3   0.451408 0.320743 0.263369 -0.493899
O7    O     O_2   0.302595 0.346746 0.000892 -0.224801
O8    O     O_2   0.200359 0.449603 0.923851 -0.182185
O9    O     O_3   0.181240 0.305007 0.864256 -0.479405
O10   O     O_2   0.460481 0.684648 0.991264 -0.220068
O11   O     O_2   0.267548 0.580134 0.036200 -0.179403
O12   O     O_R   0.505500 0.578250 0.387370 -0.542884
O13   O     O_3   0.352004 0.715096 0.115382 -0.494371
O14   O     O_2   0.490955 0.284212 0.709565 -0.215770
O15   O     O_2   0.648818 0.206205 0.691701 -0.210016
O16   O     O_3   0.693461 0.362118 0.634960 -0.515800
O17   O     O_2   0.307982 0.643726 0.353231 -0.257699
O18   O     O_2   0.352543 0.794103 0.304995 -0.181241
O19   O     O_3   0.543051 0.727692 0.322087 -0.523539
O20   O     O_2   0.486682 0.044437 0.702154 -0.175399
O21   O     O_2   0.334027 0.132139 0.699858 -0.179289
O22   O     O_3   0.268475 0.996601 0.623636 -0.482166
O23   O     O_R   0.504370 0.562470 0.618930 -0.597674
O24   O     O_2   0.275305 0.922238 0.374387 -0.140438
O25   O     O_2   0.162650 0.774134 0.408006 -0.168406
O26   O     O_3   0.180298 0.881942 0.514760 -0.436361
O27   O     O_R   0.495630 0.437530 0.381070 -0.546405
O28   O     O_R   0.679100 0.455920 0.498020 -0.570438
O29   O     O_R   0.320900 0.544080 0.501980 -0.596844
O30   O     O_R   0.688960 0.596630 0.504320 -0.524009
O31   O     O_R   0.311040 0.403370 0.495680 -0.575731
O32   O     O_2   0.759722 0.688669 0.634795 -0.191299
S1    S     S_3+6 0.754353 0.765129 0.578789 0.154011
S2    S     S_3+6 0.356245 0.271420 0.337633 0.146375
S3    S     S_3+6 0.272310 0.383290 0.917635 0.137492
S4    S     S_3+6 0.388451 0.641389 0.063658 0.122355
S5    S     S_3+6 0.582214 0.270821 0.651683 0.147762
S6    S     S_3+6 0.402702 0.728630 0.357888 0.133044
S7    S     S_3+6 0.388410 0.078415 0.650825 0.159231
S8    S     S_3+6 0.251748 0.851778 0.440825 0.179616
Zn1   Zn    Zn3+2 0.493410 0.406040 0.495790 1.138389
Zn2   Zn    Zn3+2 0.506590 0.593960 0.504210 1.135282

loop_
_geom_bond_atom_site_label_1
_geom_bond_atom_site_label_2
_ccdc_geom_bond_type
C20   C22   A    
C20   N1    S    
C6    S2    S    
C17   C19   A    
H5    O6    S    
O23   Zn2   S    
H2    O26   S    
C21   N2    S    
N5    N6    D    
Br7   C16   S    
Br8   C19   S    
C5    N3    A    
C9    C11   D    
C14   C16   A    
O20   S7    D    
C22   S3    S    
H4    O3    S    
C1    C14   S    
C24   C25   A    
O3    S1    S    
O18   S6    D    
H7    O13   S    
C3    C30   A    
O29   Zn2   S    
C12   O12   A    
C12   C15   S    
H9    O19   S    
N4    Zn1   S    
C26   N3    A    
O24   S8    D    
O13   S4    S    
C25   H3    S    
O17   S6    D    
H8    O16   S    
Br2   C4    S    
H10   O22   S    
O12   Zn2   S    
C11   C13   S    
C8    O29   A    
O26   S8    S    
N1    N2    D    
O14   S5    D    
H6    O9    S    
O25   S8    D    
O10   S4    D    
O21   S7    D    
C7    O30   A    
C5    S1    S    
Br6   C17   S    
C10   C13   D    
O22   S7    S    
C30   N5    S    
O1    Zn1   S    
C21   C24   A    
C27   S5    S    
C29   S7    S    
C2    N6    S    
C1    O23   A    
C15   C25   A    
O15   S5    D    
C27   N4    A    
C2    C4    A    
Br1   C13   S    
C3    C5    A    
C4    C6    A    
Br3   C11   S    
O28   Zn1   S    
C28   S8    S    
O5    S2    D    
O9    S3    S    
C8    O31   A    
Br10  C3    S    
Br5   C9    S    
O4    S2    D    
N3    Zn2   S    
C15   C17   A    
C16   C18   A    
C14   C23   A    
C7    O28   A    
C23   H1    S    
C22   C23   A    
C2    C29   A    
C26   C28   A    
C19   C21   A    
C12   O27   A    
C28   C30   A    
O6    S2    S    
C18   C20   A    
O11   S4    D    
C7    C9    S    
O16   S5    S    
C8    C10   S    
O30   Zn2   S    
O2    S1    D    
C6    N4    A    
Br4   C10   S    
C26   S6    S    
O32   S1    D    
O19   S6    S    
C27   C29   A    
O27   Zn1   S    
O7    S3    D    
O8    S3    D    
C1    O1    A    
Br9   C18   S    
O31   Zn1   S    
C24   S4    S    
