data_mof_unit_67823.cif
_audit_creation_date              2013-03-05T15:41:39-0500
_audit_creation_method            fapswitch 2.2
_symmetry_space_group_name_H-M    P1
_symmetry_Int_Tables_number       1
_space_group_crystal_system       triclinic
_cell_length_a                    7.938271
_cell_length_b                    8.893378
_cell_length_c                    15.900956
_cell_angle_alpha                 90.526991
_cell_angle_beta                  84.779935
_cell_angle_gamma                 92.203647
_cell_volume                      1117.07557054

loop_
_atom_site_label
_atom_site_type_symbol
_atom_site_description
_atom_site_fract_x
_atom_site_fract_y
_atom_site_fract_z
_atom_type_partial_charge
O1    O     O_R   0.389240 0.738570 0.505550 -0.616853
O2    O     O_R   0.678400 0.711630 0.491050 -0.637844
C1    C     C_R   0.544036 0.792941 0.493991 0.840124
O3    O     O_R   0.355360 0.513470 0.630110 -0.634153
O4    O     O_R   0.644510 0.486530 0.615610 -0.635068
C2    C     C_R   0.501306 0.501064 0.661557 0.869079
Zn1   Zn    Zn3+2 0.306930 0.517990 0.509680 0.972118
Zn2   Zn    Zn3+2 0.693070 0.482010 0.490320 0.960912
O5    O     O_R   0.321600 0.288370 0.508950 -0.547826
O6    O     O_R   0.610760 0.261430 0.494450 -0.596739
O7    O     O_R   0.355490 0.513470 0.384390 -0.617049
O8    O     O_R   0.644640 0.486530 0.369890 -0.648216
C3    C     C_R   0.456272 0.206396 0.498903 0.854008
C4    C     C_R   0.499635 0.503676 0.338968 0.868982
C5    C     C_3   0.412639 0.677891 0.952954 0.315680
C6    C     C_3   0.695607 0.539523 0.945139 0.222306
C7    C     C_3   0.695766 0.546948 0.043209 0.299690
H1    H     H_    0.765725 0.643101 0.924802 0.179161
H2    H     H_    0.760368 0.446666 0.064668 0.150508
C8    C     C_1   0.499806 0.521107 0.250962 -0.238822
C9    C     C_3   0.505409 0.528277 0.918688 -0.123195
C10   C     C_3   0.402193 0.668941 0.053411 -0.261875
C11   C     C_3   0.510009 0.539641 0.084577 0.030266
C12   C     C_3   0.427244 0.388555 0.059436 -0.583202
C13   C     C_3   0.420239 0.377165 0.961448 -0.104511
C14   C     C_1   0.504805 0.535489 0.176297 -0.044700
C15   C     C_1   0.508753 0.517741 0.826127 0.031338
C16   C     C_1   0.506633 0.508895 0.750734 -0.185651
H3    H     H_    0.298915 0.376057 0.094211 0.205818
H4    H     H_    0.269630 0.632853 0.074108 0.178516
H5    H     H_    0.493519 0.294989 0.086343 0.224307
C17   C     C_2   0.568770 0.954423 0.486451 0.152716
C18   C     C_2   0.433733 0.045007 0.487102 0.223424
N1    N     N_2   0.950340 0.457950 0.477370 0.102644
N2    N     N_2   0.049660 0.542050 0.522630 -0.118239
H6    H     H_    0.987430 0.623406 0.558356 0.136700
C19   C     C_2   0.424719 0.819356 0.099119 0.970291
O9    O     O_2   0.301334 0.878045 0.135024 -0.673661
O10   O     O_R   0.581550 0.897196 0.094110 -0.738883
H7    H     H_    0.574527 0.004556 0.115164 0.354446
O11   O     O_3   0.240758 0.691745 0.932671 -0.618916
C20   C     C_3   0.202801 0.709535 0.846930 0.089664
H8    H     H_    0.063338 0.717267 0.851527 0.164030
H9    H     H_    0.228769 0.609377 0.808126 0.135049
C21   C     C_3   0.266256 0.853099 0.798276 -0.341617
H10   H     H_    0.221755 0.953576 0.834292 0.298875
H11   H     H_    0.405111 0.859924 0.785497 0.267569
C22   C     C_3   0.201302 0.854083 0.710738 -0.979462
H12   H     H_    0.278057 0.780345 0.667265 0.298491
H13   H     H_    0.213367 0.969881 0.684693 0.282483
H14   H     H_    0.067839 0.811919 0.712887 0.256607
O12   O     O_3   0.733636 0.015584 0.478910 -0.654522
C23   C     C_3   0.815020 0.995328 0.553434 0.162107
H15   H     H_    0.935105 0.064216 0.547126 0.208093
H16   H     H_    0.854671 0.878069 0.559011 0.159584
C24   C     C_3   0.710519 0.047047 0.634002 -0.427961
H17   H     H_    0.710448 0.171473 0.635479 0.250959
H18   H     H_    0.576792 0.004683 0.638135 0.215083
C25   C     C_3   0.782224 0.988052 0.710913 -0.968661
H19   H     H_    0.769429 0.863232 0.712067 0.294060
H20   H     H_    0.708639 0.035741 0.766164 0.324223
H21   H     H_    0.916694 0.024101 0.711578 0.276694
O13   O     O_3   0.269490 0.991183 0.479308 -0.644235
C26   C     C_3   0.246502 0.949739 0.394375 0.133468
H22   H     H_    0.108735 0.927489 0.392621 0.147247
H23   H     H_    0.305686 0.841628 0.376415 0.167748
C27   C     C_3   0.301238 0.071709 0.327742 -0.426575
H24   H     H_    0.214279 0.066060 0.277041 0.230901
H25   H     H_    0.294394 0.185298 0.356169 0.251838
C28   C     C_3   0.478758 0.049953 0.285797 -0.897187
H26   H     H_    0.573985 0.060178 0.331616 0.262862
H27   H     H_    0.508836 0.137516 0.236895 0.258433
H28   H     H_    0.487813 0.936084 0.257469 0.280360
O14   O     O_3   0.031198 0.347459 0.433802 -0.510954
C29   C     C_3   0.003964 0.361844 0.347772 0.191681
H29   H     H_    0.128654 0.364375 0.310216 0.129791
H30   H     H_    0.946206 0.468394 0.332934 0.146174
C30   C     C_3   0.897854 0.227543 0.318951 -0.356402
H31   H     H_    0.946069 0.121474 0.341649 0.242939
H32   H     H_    0.766986 0.237076 0.347457 0.271056
C31   C     C_3   0.898000 0.220429 0.222891 -0.980253
H33   H     H_    0.831971 0.317412 0.199778 0.262001
H34   H     H_    0.831035 0.115101 0.204345 0.293244
H35   H     H_    0.029479 0.220885 0.192261 0.276712
C32   C     C_2   0.507993 0.821839 0.923600 0.901532
O15   O     O_2   0.447096 0.941150 0.945189 -0.560332
O16   O     O_R   0.648203 0.822036 0.864565 -0.900032
H36   H     H_    0.734873 0.903193 0.876999 0.331336
O17   O     O_3   0.792236 0.417837 0.912160 -0.619387
C33   C     C_3   0.887626 0.452767 0.834830 0.086107
H37   H     H_    0.018352 0.468032 0.848977 0.206403
H38   H     H_    0.848849 0.554677 0.802245 0.122301
C34   C     C_3   0.883850 0.321392 0.773899 -0.379042
H39   H     H_    0.899729 0.216343 0.808321 0.239909
H40   H     H_    0.760089 0.315365 0.747336 0.253518
C35   C     C_3   0.025883 0.339921 0.702924 -0.843529
H41   H     H_    0.028149 0.455495 0.677435 0.259641
H42   H     H_    0.007128 0.259125 0.650909 0.269357
H43   H     H_    0.149685 0.319856 0.727440 0.278314
O18   O     O_3   0.776262 0.685600 0.064954 -0.624199
C36   C     C_3   0.918026 0.671796 0.111402 0.166631
H44   H     H_    0.009039 0.764797 0.090659 0.238820
H45   H     H_    0.984549 0.565243 0.099567 0.147342
C37   C     C_3   0.865662 0.689603 0.205614 -0.384441
H46   H     H_    0.761702 0.769822 0.216178 0.268647
H47   H     H_    0.820764 0.578407 0.230034 0.213029
C38   C     C_3   0.010881 0.744441 0.255188 -0.946428
H48   H     H_    0.122978 0.674306 0.241136 0.270640
H49   H     H_    0.969679 0.737233 0.323649 0.254018
H50   H     H_    0.043438 0.863664 0.239592 0.304380
C39   C     C_2   0.234639 0.345789 0.946609 0.904824
O19   O     O_2   0.125856 0.425214 0.980427 -0.626593
O20   O     O_R   0.184597 0.215385 0.904287 -0.795538
H51   H     H_    0.058778 0.191667 0.914654 0.348214
C40   C     C_2   0.520955 0.242827 0.927377 1.122142
O21   O     O_2   0.510991 0.199662 0.854640 -0.638324
O22   O     O_R   0.638936 0.179224 0.975732 -0.773643
H52   H     H_    0.723885 0.117038 0.941193 0.344555

loop_
_geom_bond_atom_site_label_1
_geom_bond_atom_site_label_2
_geom_bond_distance
_ccdc_geom_bond_type
O16   H36   1.008619 S    
C6    C9    1.603026 S    
O11   C20   1.434212 S    
N2    H6    1.029123 S    
C37   H47   1.100242 S    
C31   H33   1.108778 S    
C21   H11   1.101943 S    
C23   H15   1.110375 S    
Zn1   O7    1.994785 S    
C34   H39   1.104220 S    
C5    C10   1.594531 S    
C13   C40   1.530625 S    
O4    C2    1.304309 A    
O7    C4    1.301808 A    
C30   H32   1.101023 S    
C23   C24   1.538207 S    
C40   O21   1.223715 D    
C35   H43   1.110913 S    
C24   H17   1.106625 S    
N1    N2    1.321724 D    
C11   C14   1.456030 S    
O5    C3    1.314002 A    
C12   H3    1.116161 S    
C17   O12   1.393179 S    
C22   H14   1.107855 S    
C2    C16   1.423462 S    
C39   O19   1.220352 D    
C6    C7    1.560311 S    
C40   O22   1.402881 S    
C35   H42   1.107155 S    
C11   C12   1.538486 S    
C28   H26   1.097380 S    
C18   O13   1.387342 S    
C5    C32   1.517196 S    
C32   O16   1.389165 S    
C9    C15   1.471817 S    
C25   H19   1.110987 S    
C36   H45   1.108773 S    
C38   H49   1.109503 S    
C20   H9    1.094291 S    
O3    Zn1   1.988223 S    
C37   H46   1.111790 S    
C31   H34   1.110028 S    
C36   H44   1.109306 S    
C6    O17   1.419417 S    
C23   H16   1.107459 S    
C25   H20   1.100799 S    
O14   C29   1.411941 S    
C27   H24   1.107634 S    
C26   C27   1.545691 S    
C4    C8    1.409227 S    
C12   C13   1.566344 S    
C5    O11   1.440355 S    
O3    C2    1.311766 A    
O10   H7    1.010760 S    
C30   H31   1.107144 S    
Zn2   N1    2.053135 S    
C29   C30   1.526084 S    
C32   O15   1.216537 D    
C10   C19   1.528728 S    
O1    C1    1.300929 A    
C20   C21   1.542794 S    
C26   H23   1.109948 S    
C29   H29   1.108079 S    
C3    C18   1.452134 S    
C19   O9    1.220576 D    
C33   H38   1.115226 S    
Zn2   O8    1.988222 S    
C35   H41   1.107236 S    
C28   H28   1.106757 S    
C39   O20   1.398039 S    
C7    C11   1.558283 S    
C29   H30   1.105001 S    
N1    O14   1.346322 S    
Zn2   O6    2.043405 S    
C22   H12   1.106739 S    
O8    C4    1.306856 A    
C36   C37   1.526259 S    
C38   H50   1.106628 S    
C20   H8    1.107602 S    
C38   H48   1.111201 S    
C31   H35   1.110756 S    
O12   C23   1.416432 S    
C33   C34   1.512096 S    
O20   H51   1.011795 S    
C21   C22   1.527932 S    
Zn1   O5    2.049747 S    
C9    C13   1.608962 S    
C25   H21   1.103646 S    
C10   H4    1.109790 S    
O1    Zn1   2.043405 S    
Zn1   N2    2.053135 S    
O2    Zn2   2.049748 S    
O6    C3    1.298932 A    
O4    Zn2   1.994785 S    
C34   C35   1.526327 S    
C24   C25   1.502102 S    
C27   C28   1.521744 S    
C17   C18   1.364709 D    
O2    C1    1.308583 A    
C12   H5    1.110607 S    
C19   O10   1.397216 S    
O22   H52   1.008925 S    
C26   H22   1.106691 S    
C30   C31   1.528064 S    
C33   H37   1.084906 S    
C34   H40   1.103405 S    
C8    C14   1.192190 T    
C22   H13   1.110991 S    
O18   C36   1.410852 S    
C7    H2    1.116882 S    
C24   H18   1.109133 S    
C1    C17   1.446578 S    
C7    O18   1.421320 S    
C13   C39   1.527978 S    
O13   C26   1.422520 S    
C21   H10   1.108737 S    
C5    C9    1.612031 S    
C6    H1    1.093721 S    
C15   C16   1.202275 T    
C10   C11   1.569633 S    
C28   H27   1.109561 S    
C27   H25   1.104127 S    
O17   C33   1.414709 S    
C37   C38   1.517624 S    
