data_mof_unit_57809.cif
_audit_creation_date              2013-03-05T16:03:40-0500
_audit_creation_method            fapswitch 2.2
_symmetry_space_group_name_H-M    P1
_symmetry_Int_Tables_number       1
_space_group_crystal_system       triclinic
_cell_length_a                    25.670949
_cell_length_b                    7.264849
_cell_length_c                    23.292901
_cell_angle_alpha                 90.038892
_cell_angle_beta                  104.205183
_cell_angle_gamma                 89.956837
_cell_volume                      4211.19455416

loop_
_atom_site_label
_atom_site_type_symbol
_atom_site_description
_atom_site_fract_x
_atom_site_fract_y
_atom_site_fract_z
_atom_type_partial_charge
O1    O     O_R   0.438720 0.630760 0.439780 -0.571035
O2    O     O_R   0.061280 0.869240 0.060220 -0.569709
O3    O     O_R   0.561280 0.130760 0.560220 -0.571403
O4    O     O_R   0.938720 0.369240 0.939780 -0.569784
O5    O     O_R   0.546410 0.956760 0.446260 -0.579459
O6    O     O_R   0.953590 0.543240 0.053740 -0.606439
O7    O     O_R   0.453590 0.456760 0.553740 -0.601380
O8    O     O_R   0.046410 0.043240 0.946260 -0.606591
C1    C     C_R   0.561799 0.791912 0.433357 0.946533
C2    C     C_R   0.938339 0.707972 0.066846 0.926078
C3    C     C_R   0.438365 0.292182 0.566870 0.930448
C4    C     C_R   0.061642 0.207808 0.933144 0.926265
O9    O     O_R   0.438220 0.960230 0.432810 -0.597525
O10   O     O_R   0.061780 0.539770 0.067190 -0.594439
O11   O     O_R   0.561780 0.460230 0.567190 -0.600414
O12   O     O_R   0.938220 0.039770 0.932810 -0.594444
O13   O     O_R   0.452310 0.134250 0.546660 -0.590586
O14   O     O_R   0.047690 0.365750 0.953340 -0.585858
O15   O     O_R   0.547690 0.634250 0.453340 -0.594226
O16   O     O_R   0.952310 0.865750 0.046660 -0.585892
C5    C     C_R   0.419013 0.791465 0.416276 0.936902
C6    C     C_R   0.081211 0.708346 0.083021 0.933864
C7    C     C_R   0.580979 0.291452 0.583733 0.934690
C8    C     C_R   0.918788 0.208364 0.916978 0.933793
O17   O     O_3   0.504750 0.798450 0.537370 -0.293817
O18   O     O_3   0.995250 0.701550 0.962630 -0.285849
O19   O     O_3   0.495250 0.298450 0.462630 -0.282737
O20   O     O_3   0.004750 0.201550 0.037370 -0.285828
V1    V     V_3+5 0.499120 0.071860 0.493070 1.159127
V2    V     V_3+5 0.000880 0.428140 0.006930 1.152894
V3    V     V_3+5 0.500880 0.571860 0.506930 1.147250
V4    V     V_3+5 0.999120 0.928140 0.993070 1.152933
C9    C     C_R   0.692235 0.117708 0.713458 -0.143584
C10   C     C_R   0.782321 0.351661 0.821383 -0.206124
C11   C     C_R   0.307744 0.617650 0.286575 -0.144529
C12   C     C_R   0.217666 0.851446 0.178620 -0.206293
H1    H     H_    0.701046 0.998003 0.741968 0.135592
H2    H     H_    0.749378 0.441713 0.824305 0.118976
H3    H     H_    0.298935 0.497846 0.258074 0.135625
H4    H     H_    0.250609 0.941299 0.175691 0.118896
C13   C     C_R   0.643512 0.125085 0.669862 0.067158
C14   C     C_R   0.827333 0.339717 0.869717 0.068667
C15   C     C_R   0.356469 0.624994 0.330165 0.067314
C16   C     C_R   0.172664 0.839440 0.130277 0.068679
C17   C     C_R   0.630910 0.281373 0.632806 -0.182239
C18   C     C_R   0.869940 0.219760 0.867274 -0.166838
C19   C     C_R   0.369073 0.781406 0.367210 -0.180981
C20   C     C_R   0.130057 0.719727 0.132729 -0.166890
C21   C     C_R   0.667725 0.428124 0.641400 -0.314381
C22   C     C_R   0.866785 0.115418 0.815808 -0.308512
C23   C     C_R   0.332252 0.928298 0.358611 -0.314746
C24   C     C_R   0.133204 0.615685 0.184211 -0.308492
H5    H     H_    0.658944 0.547169 0.612673 0.183302
H6    H     H_    0.900221 0.026988 0.813539 0.175950
H7    H     H_    0.341033 0.047439 0.387330 0.183076
H8    H     H_    0.099768 0.527452 0.186486 0.175968
C25   C     C_R   0.716959 0.420559 0.684582 0.378392
C26   C     C_R   0.822612 0.131369 0.766160 0.409393
C27   C     C_R   0.283015 0.920774 0.315431 0.378388
C28   C     C_R   0.177368 0.631707 0.233868 0.409434
C29   C     C_R   0.729293 0.262742 0.721150 -0.005864
C30   C     C_R   0.779205 0.248712 0.769668 -0.002390
C31   C     C_R   0.270683 0.762835 0.278874 -0.005565
C32   C     C_R   0.220773 0.748804 0.230352 -0.002255
C33   C     C_R   0.136265 0.359527 0.899662 -0.231882
C34   C     C_R   0.363822 0.140192 0.600445 -0.214191
C35   C     C_R   0.863784 0.860678 0.100397 -0.231503
C36   C     C_R   0.636191 0.639174 0.399273 -0.234405
H9    H     H_    0.137721 0.462895 0.933599 0.133916
H10   H     H_    0.362414 0.036708 0.566553 0.142611
H11   H     H_    0.862381 0.963966 0.066491 0.133936
H12   H     H_    0.637414 0.534260 0.432643 0.147111
C37   C     C_R   0.173369 0.370529 0.864411 0.033241
C38   C     C_R   0.326713 0.129143 0.635691 0.028398
C39   C     C_R   0.826706 0.872299 0.135687 0.033018
C40   C     C_R   0.673435 0.629994 0.364175 0.026941
C41   C     C_R   0.173401 0.236180 0.820547 0.060225
C42   C     C_R   0.326626 0.263591 0.679511 0.061339
C43   C     C_R   0.826604 0.738119 0.179514 0.060481
C44   C     C_R   0.673656 0.766308 0.320979 0.076766
C45   C     C_R   0.134867 0.093442 0.812110 0.017822
C46   C     C_R   0.365093 0.406537 0.687885 0.017259
C47   C     C_R   0.865044 0.594918 0.187890 0.017902
C48   C     C_R   0.635432 0.910339 0.313366 -0.018751
C49   C     C_R   0.097918 0.082104 0.848035 -0.021866
C50   C     C_R   0.402005 0.418041 0.651922 -0.021179
C51   C     C_R   0.901962 0.582931 0.151928 -0.021978
C52   C     C_R   0.598394 0.919778 0.349622 -0.003502
C53   C     C_R   0.098836 0.215482 0.892945 -0.167749
C54   C     C_R   0.401174 0.284469 0.607085 -0.169653
C55   C     C_R   0.901123 0.716154 0.107045 -0.167920
C56   C     C_R   0.599033 0.783824 0.393261 -0.151723
N1    N     N_R   0.235421 0.086635 0.768141 -0.069706
N2    N     N_R   0.264595 0.413099 0.731909 -0.064122
N3    N     N_R   0.764295 0.589275 0.231536 -0.069822
N4    N     N_R   0.735783 0.915756 0.268674 -0.062665
N5    N     N_R   0.271099 0.092667 0.735124 -0.069637
N6    N     N_R   0.228919 0.407069 0.764927 -0.064593
N7    N     N_R   0.728681 0.595542 0.264627 -0.070706
N8    N     N_R   0.771390 0.909504 0.235555 -0.064504
C57   C     C_R   0.286505 0.256103 0.716274 0.134200
C58   C     C_R   0.213516 0.243636 0.783779 0.131666
C59   C     C_R   0.713621 0.758953 0.283969 0.134229
C60   C     C_R   0.786479 0.746030 0.216277 0.131425
N9    N     N_3   0.606459 0.974980 0.664557 -0.190643
H13   H     H_    0.625876 0.855318 0.655914 0.150099
H14   H     H_    0.596811 0.958017 0.705310 0.077423
N10   N     N_3   0.829023 0.446433 0.921894 -0.205838
H15   H     H_    0.795505 0.411976 0.937653 0.082276
H16   H     H_    0.825721 0.585369 0.909834 0.123344
N11   N     N_3   0.393523 0.474716 0.335474 -0.189248
H17   H     H_    0.374109 0.355205 0.344131 0.150718
H18   H     H_    0.403163 0.457491 0.294719 0.077428
N12   N     N_3   0.170983 0.945846 0.078084 -0.205827
H19   H     H_    0.204509 0.911115 0.062343 0.082148
H20   H     H_    0.174275 0.084838 0.090118 0.123314
N13   N     N_R   0.754140 0.571495 0.689313 0.237909
O21   O     O_R   0.737025 0.733126 0.669069 -0.391456
O22   O     O_R   0.805679 0.544461 0.707332 -0.327840
N14   N     N_R   0.823851 0.034097 0.712469 0.263499
O23   O     O_R   0.858028 0.900835 0.713761 -0.322881
O24   O     O_R   0.796372 0.092526 0.661152 -0.328195
N15   N     N_R   0.245831 0.071887 0.310690 0.237882
O25   O     O_R   0.194295 0.045069 0.292628 -0.327974
O26   O     O_R   0.262939 0.233502 0.330955 -0.391484
N16   N     N_R   0.176120 0.534763 0.287572 0.263520
O27   O     O_R   0.141940 0.401696 0.286295 -0.322873
O28   O     O_R   0.203598 0.593324 0.338882 -0.328458
N17   N     N_3   0.212264 0.515864 0.874831 -0.209148
H21   H     H_    0.191662 0.641317 0.869883 0.107767
H22   H     H_    0.234623 0.506705 0.918775 0.101236
N18   N     N_3   0.287858 0.983685 0.625298 -0.201172
H23   H     H_    0.308493 0.858297 0.630250 0.109699
H24   H     H_    0.265488 0.992767 0.581357 0.143765
N19   N     N_3   0.787899 0.018067 0.125341 -0.209166
H25   H     H_    0.808577 0.143282 0.130265 0.107680
H26   H     H_    0.765491 0.008967 0.081414 0.101366
N20   N     N_3   0.712395 0.484699 0.374198 -0.201063
H27   H     H_    0.691874 0.359200 0.369021 0.108190
H28   H     H_    0.734773 0.493102 0.418153 0.145029
N21   N     N_3   0.132333 0.961546 0.765604 -0.201414
H29   H     H_    0.137388 0.829994 0.784321 0.119999
H30   H     H_    0.094160 0.968507 0.736655 0.145094
N22   N     N_3   0.367594 0.538499 0.734367 -0.209368
H31   H     H_    0.405782 0.531761 0.763293 0.111849
H32   H     H_    0.362469 0.670009 0.715626 0.118523
N23   N     N_3   0.867520 0.463225 0.234388 -0.201397
H33   H     H_    0.862383 0.331641 0.215663 0.120003
H34   H     H_    0.905706 0.469860 0.263319 0.145047
N24   N     N_3   0.633299 0.043487 0.267325 -0.208975
H35   H     H_    0.595513 0.037174 0.237648 0.099702
H36   H     H_    0.638673 0.174830 0.286112 0.108438
N25   N     N_3   0.058864 0.936827 0.836305 -0.209833
H37   H     H_    0.067168 0.843932 0.871601 0.144904
H38   H     H_    0.020488 0.992868 0.831389 0.126087
N26   N     N_3   0.440916 0.563772 0.663519 -0.223838
H39   H     H_    0.432507 0.656406 0.628154 0.147080
H40   H     H_    0.479341 0.508143 0.668457 0.100853
N27   N     N_3   0.940904 0.437144 0.163591 -0.209880
H41   H     H_    0.932533 0.344327 0.128245 0.144753
H42   H     H_    0.979321 0.492679 0.168543 0.126291
N28   N     N_3   0.559178 0.064615 0.341251 -0.194638
H43   H     H_    0.535333 0.058571 0.297929 0.087107
H44   H     H_    0.579088 0.191218 0.347710 0.113671

loop_
_geom_bond_atom_site_label_1
_geom_bond_atom_site_label_2
_geom_bond_distance
_ccdc_geom_bond_type
O17   V3    1.785070 S    
C6    C20   1.485675 S    
C21   H5    1.083028 S    
C26   C30   1.420639 A    
N16   O27   1.301431 A    
C7    C17   1.495253 S    
C51   C55   1.421418 A    
O19   V1    1.785819 S    
O13   V1    1.985494 S    
O1    C5    1.335193 A    
O3    C7    1.335142 A    
N11   H17   1.045494 S    
C10   C14   1.404177 A    
C10   C30   1.403000 A    
C44   C48   1.415093 A    
O4    V2    1.987715 S    
O15   V3    1.986290 S    
N12   H19   1.045574 S    
C21   C25   1.410038 A    
N15   O25   1.300903 A    
C34   C54   1.403737 A    
N14   O23   1.301432 A    
C33   C53   1.403674 A    
N9    H14   1.045565 S    
C22   H6    1.083341 S    
C13   N9    1.432787 S    
O9    V1    1.998836 S    
N26   H39   1.044674 S    
N23   H34   1.045553 S    
N17   H21   1.045538 S    
C38   N18   1.432808 S    
N13   O22   1.300897 A    
O4    C8    1.332863 A    
N3    N7    1.333330 A    
N15   O26   1.300960 A    
C35   H11   1.083931 S    
N2    N6    1.333393 A    
C34   C38   1.404282 A    
O1    V3    1.987655 S    
C33   C37   1.404237 A    
N10   H15   1.045573 S    
O2    V4    1.987655 S    
C14   C18   1.409994 A    
O3    V1    1.987714 S    
C50   N26   1.435411 S    
C12   H4    1.084044 S    
C24   C28   1.411788 A    
N23   H33   1.045388 S    
C1    O15   1.320547 A    
N8    C60   1.358692 A    
C52   C56   1.414986 A    
N2    C57   1.359711 A    
C2    O16   1.322004 A    
N18   H23   1.045517 S    
O2    C6    1.332920 A    
N27   H42   1.045670 S    
O14   V2    1.985492 S    
C17   C21   1.406491 A    
N25   H38   1.045674 S    
C11   C15   1.405361 A    
O5    V1    2.002160 S    
C36   H12   1.083907 S    
O11   C7    1.342143 A    
C12   C32   1.402996 A    
C45   N21   1.435259 S    
C16   N12   1.432793 S    
O12   C8    1.339552 A    
C42   C57   1.493341 S    
C41   C58   1.493272 S    
C15   N11   1.432782 S    
O10   V2    1.998836 S    
C1    C56   1.492413 S    
C35   C55   1.403927 A    
N14   O24   1.301146 A    
O7    C3    1.317464 A    
N28   H44   1.045268 S    
C27   N15   1.440622 S    
C37   N17   1.432816 S    
O7    V3    2.003546 S    
C14   N10   1.432794 S    
C44   C59   1.494185 S    
O8    V4    2.003545 S    
C40   C44   1.413220 A    
C4    C53   1.493455 S    
N19   H25   1.045517 S    
N22   H32   1.045394 S    
N7    C59   1.358607 A    
C50   C54   1.421457 A    
C49   C53   1.421378 A    
O18   V4    1.785070 S    
C19   C23   1.406500 A    
C46   C50   1.412943 A    
C9    H1    1.084065 S    
N21   H30   1.045553 S    
C22   C26   1.411765 A    
N1    C58   1.359713 A    
C11   H3    1.084065 S    
O5    C1    1.318219 A    
C42   C46   1.413634 A    
N27   H41   1.044668 S    
C41   C45   1.413632 A    
O8    C4    1.317363 A    
C26   N14   1.443166 S    
O9    C5    1.342275 A    
N11   H18   1.045567 S    
C49   N25   1.435432 S    
C36   C40   1.403711 A    
C25   C29   1.417278 A    
N20   H28   1.045597 S    
C47   N23   1.435264 S    
C46   N22   1.435275 S    
O6    V2    2.002163 S    
C2    C55   1.493951 S    
C52   N28   1.435602 S    
N24   H36   1.044506 S    
C43   C60   1.493417 S    
C12   C16   1.404182 A    
C35   C39   1.404467 A    
N1    N5    1.333422 A    
N3    C60   1.359554 A    
C25   N13   1.440608 S    
N28   H43   1.044859 S    
O16   V4    1.986292 S    
N19   H26   1.045597 S    
C3    O13   1.321950 A    
N16   O28   1.301145 A    
C10   H2    1.084044 S    
C48   C52   1.419783 A    
N22   H31   1.045550 S    
C47   C51   1.413081 A    
O6    C2    1.317632 A    
N12   H20   1.045679 S    
N10   H16   1.045678 S    
O11   V3    1.998652 S    
C40   N20   1.432873 S    
O12   V4    1.998654 S    
N9    H13   1.045493 S    
C18   C22   1.403368 A    
C27   C31   1.417306 A    
C28   C32   1.420654 A    
C9    C13   1.405375 A    
O10   C6    1.339652 A    
C28   N16   1.443172 S    
C8    C18   1.485650 S    
O20   V2    1.785820 S    
N6    C58   1.358503 A    
N21   H29   1.045416 S    
C43   C47   1.413644 A    
C3    C54   1.493682 S    
C34   H10   1.083941 S    
C39   N19   1.432789 S    
C15   C19   1.415152 A    
C9    C29   1.401744 A    
C33   H9    1.083942 S    
N4    N8    1.333669 A    
N26   H40   1.045614 S    
C36   C56   1.402481 A    
C51   N27   1.435407 S    
C23   H7    1.083027 S    
C29   C30   1.489480 S    
C45   C49   1.412937 A    
N20   H27   1.045332 S    
C31   C32   1.489508 S    
C16   C20   1.410000 A    
C20   C24   1.403369 A    
C23   C27   1.410087 A    
C37   C41   1.412661 A    
N18   H24   1.045601 S    
C38   C42   1.412657 A    
N4    C59   1.359864 A    
C4    O14   1.321938 A    
C13   C17   1.415123 A    
N24   H35   1.044896 S    
C11   C31   1.401721 A    
N17   H22   1.045599 S    
N25   H37   1.044662 S    
N13   O21   1.300956 A    
C39   C43   1.412469 A    
N5    C57   1.358529 A    
C24   H8    1.083341 S    
C5    C19   1.495333 S    
C48   N24   1.435724 S    
