data_mof_unit_63184.cif
_audit_creation_date              2012-10-26T17:46:02-0400
_audit_creation_method            fapswitch 2.2
_symmetry_space_group_name_H-M    P1
_symmetry_Int_Tables_number       1
_space_group_crystal_system       monoclinic
_cell_length_a                    35.681968
_cell_length_b                    35.681968
_cell_length_c                    23.681308
_cell_angle_alpha                 90.00001
_cell_angle_beta                  90.0
_cell_angle_gamma                 90.0
_cell_volume                      30151.1086089

loop_
_atom_site_label
_atom_site_type_symbol
_atom_type_description
_atom_site_fract_x
_atom_site_fract_y
_atom_site_fract_z
_atom_type_partial_charge
C1    C     C_R   0.000000 0.427779 0.500000 0.544025
C2    C     C_1   0.266533 1.000000 0.500000 0.005772
C3    C     C_R   0.827100 0.999439 0.448869 -0.101619
C4    C     C_R   0.999435 0.827100 0.551131 -0.101619
C5    C     C_R   0.172900 0.999439 0.551131 -0.101618
C6    C     C_R   0.000566 0.172900 0.551131 -0.101619
C7    C     C_R   0.827100 0.000561 0.551131 -0.101618
C8    C     C_R   0.499438 0.672900 0.948869 -0.101619
C9    C     C_R   0.672900 0.500561 0.948869 -0.101618
C10   C     C_R   0.500561 0.327100 0.948869 -0.101618
C11   C     C_R   0.327100 0.499443 0.948869 -0.101618
C12   C     C_R   0.499439 0.327100 0.051131 -0.101619
C13   C     C_1   0.000000 0.733467 0.500000 0.005772
C14   C     C_R   0.672900 0.499439 0.051131 -0.101618
C15   C     C_R   0.500562 0.672900 0.051131 -0.101618
C16   C     C_R   0.327100 0.500557 0.051131 -0.101618
C17   C     C_R   0.999447 0.133736 0.448806 -0.122468
C18   C     C_R   0.133736 0.000548 0.448806 -0.122467
C19   C     C_R   0.000552 0.866264 0.448806 -0.122468
C20   C     C_R   0.866264 0.999453 0.448806 -0.122468
C21   C     C_R   0.999448 0.866264 0.551194 -0.122468
C22   C     C_R   0.133736 0.999452 0.551194 -0.122468
C23   C     C_R   0.000552 0.133736 0.551194 -0.122468
C24   C     C_1   0.733467 0.000000 0.500000 0.005772
C25   C     C_R   0.866264 0.000547 0.551194 -0.122468
C26   C     C_R   0.499452 0.633736 0.948806 -0.122468
C27   C     C_R   0.633736 0.500547 0.948806 -0.122468
C28   C     C_R   0.500548 0.366264 0.948806 -0.122467
C29   C     C_R   0.366264 0.499456 0.948806 -0.122468
C30   C     C_R   0.499452 0.366264 0.051194 -0.122468
C31   C     C_R   0.633736 0.499453 0.051194 -0.122468
C32   C     C_R   0.500548 0.633736 0.051194 -0.122468
C33   C     C_R   0.366264 0.500544 0.051194 -0.122468
C34   C     C_R   0.000000 0.113731 0.500000 0.011700
C35   C     C_1   0.500000 0.766533 0.000000 0.005772
C36   C     C_R   0.113731 1.000000 0.500000 0.011700
C37   C     C_R   1.000000 0.886269 0.500000 0.011700
C38   C     C_R   0.886269 1.000000 0.500000 0.011700
C39   C     C_R   0.500000 0.613731 0.000000 0.011700
C40   C     C_R   0.613731 0.500000 0.000000 0.011700
C41   C     C_R   0.500000 0.386269 1.000000 0.011700
C42   C     C_R   0.386269 0.500000 0.000000 0.011700
C43   C     C_R   1.000000 0.192522 0.500000 0.039142
C44   C     C_R   0.192522 1.000000 0.500000 0.039142
C45   C     C_R   1.000000 0.807478 0.500000 0.039141
C46   C     C_1   0.766533 0.500000 0.000000 0.005772
C47   C     C_R   0.807478 0.000000 0.500000 0.039142
C48   C     C_R   0.500000 0.692522 0.000000 0.039142
C49   C     C_R   0.692522 0.500000 0.000000 0.039142
C50   C     C_R   0.500000 0.307478 1.000000 0.039142
C51   C     C_R   0.307478 0.500000 0.000000 0.039142
C52   C     C_1   1.000000 0.232783 0.500000 0.001644
C53   C     C_1   0.232783 1.000000 0.500000 0.001644
C54   C     C_1   0.000000 0.767217 0.500000 0.001644
C55   C     C_1   0.767217 0.000000 0.500000 0.001644
C56   C     C_1   0.500000 0.732783 0.000000 0.001644
C57   C     C_1   0.500000 0.233467 1.000000 0.005772
C58   C     C_1   0.732783 0.500000 0.000000 0.001644
C59   C     C_1   0.500000 0.267217 1.000000 0.001644
C60   C     C_1   0.267217 0.500000 0.000000 0.001644
C61   C     C_1   0.956046 0.306417 0.419065 0.221166
C62   C     C_1   0.306417 0.043955 0.419066 0.221166
C63   C     C_1   0.043954 0.693582 0.419065 0.221167
C64   C     C_1   0.693582 0.956046 0.419065 0.221166
C65   C     C_1   0.956046 0.693582 0.580935 0.221166
C66   C     C_1   0.306417 0.956045 0.580934 0.221166
C67   C     C_1   0.043954 0.306417 0.580935 0.221166
C68   C     C_1   0.233467 0.500000 0.000000 0.005772
C69   C     C_1   0.693582 0.043954 0.580935 0.221166
C70   C     C_1   0.456045 0.806417 0.919066 0.221166
C71   C     C_1   0.806417 0.543954 0.919065 0.221166
C72   C     C_1   0.543954 0.193582 0.919065 0.221166
C73   C     C_1   0.193582 0.456045 0.919066 0.221166
C74   C     C_1   0.456046 0.193582 0.080935 0.221167
C75   C     C_1   0.806417 0.456046 0.080935 0.221166
C76   C     C_1   0.543955 0.806417 0.080934 0.221167
C77   C     C_1   0.193582 0.543955 0.080934 0.221167
C78   C     C_1   0.956832 0.386419 0.417669 0.231142
C79   C     C_R   0.978269 0.326836 0.460169 -0.022990
C80   C     C_1   0.386419 0.043168 0.417669 0.231142
C81   C     C_1   0.043168 0.613581 0.417669 0.231141
C82   C     C_1   0.613581 0.956833 0.417668 0.231141
C83   C     C_1   0.956832 0.613581 0.582331 0.231142
C84   C     C_1   0.386419 0.956832 0.582331 0.231142
C85   C     C_1   0.043168 0.386419 0.582331 0.231141
C86   C     C_1   0.613581 0.043167 0.582332 0.231141
C87   C     C_1   0.456832 0.886419 0.917669 0.231142
C88   C     C_1   0.886419 0.543168 0.917669 0.231142
C89   C     C_1   0.543168 0.113581 0.917669 0.231141
C90   C     C_R   0.326836 0.021731 0.460170 -0.022990
C91   C     C_1   0.113581 0.456832 0.917669 0.231142
C92   C     C_1   0.456832 0.113581 0.082331 0.231141
C93   C     C_1   0.886419 0.456832 0.082331 0.231142
C94   C     C_1   0.543168 0.886419 0.082331 0.231142
C95   C     C_1   0.113581 0.543168 0.082331 0.231142
C96   C     C_R   0.021731 0.673163 0.460169 -0.022990
C97   C     C_R   0.427779 1.000000 0.500000 0.544025
C98   C     C_R   0.673163 0.978269 0.460169 -0.022990
C99   C     C_R   0.978269 0.673163 0.539830 -0.022990
C100  C     C_R   0.326836 0.978268 0.539830 -0.022990
C101  C     C_R   0.021731 0.326837 0.539831 -0.022990
C102  C     C_R   0.673163 0.021731 0.539831 -0.022990
C103  C     C_R   0.478268 0.826836 0.960170 -0.022990
C104  C     C_R   0.826837 0.521731 0.960169 -0.022990
C105  C     C_R   0.521731 0.173163 0.960169 -0.022990
C106  C     C_R   0.173163 0.478268 0.960170 -0.022990
C107  C     C_R   0.478269 0.173163 0.039830 -0.022990
C108  C     C_R   0.000000 0.572220 0.500000 0.544025
C109  C     C_R   0.826836 0.478269 0.039830 -0.022990
C110  C     C_R   0.521731 0.826836 0.039830 -0.022990
C111  C     C_R   0.173163 0.521731 0.039830 -0.022990
C112  C     C_R   0.978262 0.366344 0.460080 -0.047485
C113  C     C_R   0.366344 0.021738 0.460080 -0.047485
C114  C     C_R   0.021738 0.633656 0.460080 -0.047485
C115  C     C_R   0.633656 0.978262 0.460080 -0.047485
C116  C     C_R   0.978262 0.633656 0.539920 -0.047485
C117  C     C_R   0.366344 0.978261 0.539919 -0.047485
C118  C     C_R   0.021738 0.366344 0.539920 -0.047485
C119  C     C_R   0.572220 0.000000 0.500000 0.544025
C120  C     C_R   0.633656 0.021738 0.539920 -0.047485
C121  C     C_R   0.478261 0.866344 0.960080 -0.047485
C122  C     C_R   0.866344 0.521738 0.960080 -0.047485
C123  C     C_R   0.521738 0.133656 0.960080 -0.047485
C124  C     C_R   0.133656 0.478261 0.960080 -0.047485
C125  C     C_R   0.478261 0.133656 0.039920 -0.047485
C126  C     C_R   0.866344 0.478261 0.039920 -0.047485
C127  C     C_R   0.521739 0.866344 0.039919 -0.047485
C128  C     C_R   0.133656 0.521739 0.039919 -0.047485
C129  C     C_R   0.000000 0.386259 0.500000 -0.031181
C130  C     C_R   0.500000 0.927779 0.000000 0.544025
C131  C     C_R   0.386259 1.000000 0.500000 -0.031181
C132  C     C_R   0.000000 0.613741 0.500000 -0.031181
C133  C     C_R   0.613741 0.000000 0.500000 -0.031181
C134  C     C_R   0.500000 0.886259 0.000000 -0.031181
C135  C     C_R   0.886259 0.500000 0.000000 -0.031181
C136  C     C_R   0.500000 0.113741 0.000000 -0.031181
C137  C     C_R   0.113741 0.500000 0.000000 -0.031181
C138  C     C_R   1.000000 0.307132 0.500000 -0.014419
C139  C     C_R   0.307132 1.000000 0.500000 -0.014419
C140  C     C_R   0.000000 0.692868 0.500000 -0.014419
C141  C     C_R   0.927779 0.500000 0.000000 0.544025
C142  C     C_R   0.692868 0.000000 0.500000 -0.014419
C143  C     C_R   0.500000 0.807132 0.000000 -0.014419
C144  C     C_R   0.807132 0.500000 0.000000 -0.014419
C145  C     C_R   0.500000 0.192868 1.000000 -0.014419
C146  C     C_R   0.192868 0.500000 0.000000 -0.014419
C147  C     C_R   0.927706 1.000000 0.500000 0.553039
C148  C     C_R   0.000000 0.072294 0.500000 0.553038
C149  C     C_R   0.072294 0.000000 0.500000 0.553038
C150  C     C_R   1.000000 0.927706 0.500000 0.553039
C151  C     C_R   0.427706 0.500000 0.000000 0.553039
C152  C     C_R   0.500000 0.072220 0.000000 0.544025
C153  C     C_R   0.500000 0.572294 0.000000 0.553039
C154  C     C_R   0.572294 0.500000 0.000000 0.553038
C155  C     C_R   0.500000 0.427706 0.000000 0.553039
C156  C     C_R   0.000000 0.500000 0.608208 0.555943
C157  C     C_R   0.500000 0.000000 0.608208 0.555943
C158  C     C_R   0.000000 0.500000 0.391792 0.555943
C159  C     C_R   0.500000 0.000000 0.391792 0.555943
C160  C     C_R   0.500000 0.000000 0.108208 0.555942
C161  C     C_R   0.000000 0.500000 0.108208 0.555942
C162  C     C_R   0.500000 1.000000 0.891792 0.555943
C163  C     C_R   0.072220 0.500000 0.000000 0.544025
C164  C     C_R   0.000000 0.500000 0.891792 0.555943
C165  C     C_1   0.000000 0.500000 0.669031 0.016965
C166  C     C_1   0.500000 1.000000 0.669031 0.016965
C167  C     C_1   0.000000 0.500000 0.330969 0.016965
C168  C     C_1   0.500000 0.000000 0.330969 0.016965
C169  C     C_1   0.500000 1.000000 0.169031 0.016965
C170  C     C_1   0.000000 0.500000 0.169031 0.016965
C171  C     C_1   0.500000 0.000000 0.830969 0.016965
C172  C     C_1   0.000000 0.500000 0.830969 0.016965
C173  C     C_1   0.000000 0.500000 0.720077 -0.004547
C174  C     C_1   1.000000 0.266533 0.500000 0.005772
C175  C     C_1   0.500000 1.000000 0.720077 -0.004547
C176  C     C_1   0.000000 0.500000 0.279923 -0.004547
C177  C     C_1   0.500000 0.000000 0.279923 -0.004547
C178  C     C_1   0.500000 0.000000 0.220077 -0.004548
C179  C     C_1   0.000000 0.500000 0.220077 -0.004548
C180  C     C_1   0.500000 0.000000 0.779923 -0.004548
C181  C     C_1   0.000000 0.500000 0.779923 -0.004548
C182  C     C_R   0.999434 0.172900 0.448869 -0.101619
C183  C     C_R   0.172900 0.000561 0.448869 -0.101618
C184  C     C_R   0.000565 0.827100 0.448869 -0.101619
Cu1   Cu    Cu3+1 0.037270 0.500000 0.500000 1.029966
Cu2   Cu    Cu3+1 0.000000 0.000000 0.444220 0.949371
Cu3   Cu    Cu3+1 0.500000 0.500000 0.055780 0.949371
Cu4   Cu    Cu3+1 0.500000 0.500000 0.944220 0.949371
Cu5   Cu    Cu3+1 0.500000 0.962730 0.500000 1.029966
Cu6   Cu    Cu3+1 0.962730 0.500000 0.500000 1.029967
Cu7   Cu    Cu3+1 0.500000 0.037270 0.500000 1.029966
Cu8   Cu    Cu3+1 0.537270 0.000000 0.000000 1.029966
Cu9   Cu    Cu3+1 1.000000 0.462730 0.000000 1.029967
Cu10  Cu    Cu3+1 0.462730 0.000000 0.000000 1.029967
Cu11  Cu    Cu3+1 1.000000 0.537270 0.000000 1.029966
Cu12  Cu    Cu3+1 0.000000 0.000000 0.555780 0.949371
H1    H     H_    0.998983 0.187868 0.409062 0.130422
H2    H     H_    0.687868 0.501007 0.909062 0.130421
H3    H     H_    0.501008 0.312132 0.909062 0.130421
H4    H     H_    0.312132 0.498999 0.909062 0.130420
H5    H     H_    0.498991 0.312132 0.090938 0.130421
H6    H     H_    0.687868 0.498992 0.090938 0.130421
H7    H     H_    0.501009 0.687868 0.090938 0.130421
H8    H     H_    0.312132 0.501001 0.090938 0.130420
H9    H     H_    0.999002 0.119159 0.408706 0.136948
H10   H     H_    0.119159 0.000989 0.408706 0.136949
H11   H     H_    0.000996 0.880841 0.408707 0.136949
H12   H     H_    0.187868 0.001008 0.409062 0.130421
H13   H     H_    0.880841 0.999012 0.408706 0.136949
H14   H     H_    0.999004 0.880841 0.591293 0.136949
H15   H     H_    0.119159 0.999010 0.591294 0.136948
H16   H     H_    0.000998 0.119159 0.591294 0.136948
H17   H     H_    0.880841 0.000988 0.591293 0.136949
H18   H     H_    0.499010 0.619159 0.908706 0.136949
H19   H     H_    0.619159 0.500988 0.908706 0.136949
H20   H     H_    0.500989 0.380841 0.908706 0.136949
H21   H     H_    0.380841 0.499018 0.908706 0.136949
H22   H     H_    0.499011 0.380841 0.091293 0.136949
H23   H     H_    0.001015 0.812132 0.409062 0.130423
H24   H     H_    0.619159 0.499012 0.091293 0.136949
H25   H     H_    0.500990 0.619159 0.091293 0.136949
H26   H     H_    0.380841 0.500982 0.091293 0.136949
H27   H     H_    0.812132 0.998993 0.409062 0.130421
H28   H     H_    0.998984 0.812132 0.590938 0.130423
H29   H     H_    0.187868 0.998991 0.590938 0.130421
H30   H     H_    0.001017 0.187868 0.590938 0.130423
H31   H     H_    0.812132 0.001007 0.590938 0.130421
H32   H     H_    0.498991 0.687868 0.909062 0.130421
N1    N     N_1   0.938337 0.290119 0.386304 -0.262911
N2    N     N_1   0.790119 0.561663 0.886305 -0.262910
N3    N     N_1   0.561663 0.209881 0.886305 -0.262910
N4    N     N_1   0.209881 0.438336 0.886305 -0.262909
N5    N     N_1   0.438337 0.209881 0.113695 -0.262910
N6    N     N_1   0.790119 0.438337 0.113695 -0.262910
N7    N     N_1   0.561664 0.790119 0.113695 -0.262910
N8    N     N_1   0.209881 0.561664 0.113694 -0.262909
N9    N     N_1   0.939774 0.402437 0.383823 -0.253487
N10   N     N_1   0.402437 0.060227 0.383823 -0.253487
N11   N     N_1   0.060226 0.597563 0.383823 -0.253487
N12   N     N_1   0.290119 0.061663 0.386305 -0.262910
N13   N     N_1   0.597563 0.939775 0.383822 -0.253487
N14   N     N_1   0.939774 0.597563 0.616177 -0.253487
N15   N     N_1   0.402437 0.939773 0.616177 -0.253487
N16   N     N_1   0.060226 0.402437 0.616177 -0.253487
N17   N     N_1   0.597563 0.060225 0.616178 -0.253487
N18   N     N_1   0.439773 0.902437 0.883823 -0.253487
N19   N     N_1   0.902437 0.560226 0.883823 -0.253487
N20   N     N_1   0.560226 0.097563 0.883823 -0.253487
N21   N     N_1   0.097563 0.439773 0.883824 -0.253487
N22   N     N_1   0.439774 0.097563 0.116177 -0.253487
N23   N     N_1   0.061663 0.709881 0.386304 -0.262912
N24   N     N_1   0.902437 0.439774 0.116177 -0.253487
N25   N     N_1   0.560227 0.902437 0.116176 -0.253487
N26   N     N_1   0.097563 0.560227 0.116176 -0.253487
N27   N     N_1   0.709881 0.938338 0.386304 -0.262910
N28   N     N_1   0.938337 0.709881 0.613695 -0.262911
N29   N     N_1   0.290119 0.938336 0.613695 -0.262910
N30   N     N_1   0.061663 0.290119 0.613696 -0.262911
N31   N     N_1   0.709881 0.061662 0.613696 -0.262910
N32   N     N_1   0.438336 0.790119 0.886305 -0.262910
O1    O     O_R   0.031480 0.445630 0.499980 -0.497866
O2    O     O_R   0.945630 0.468520 0.999980 -0.497865
O3    O     O_R   0.468520 0.054370 0.999980 -0.497865
O4    O     O_R   0.054370 0.531480 0.999980 -0.497866
O5    O     O_R   0.531480 0.054370 0.000020 -0.497866
O6    O     O_R   0.945630 0.531480 0.000020 -0.497866
O7    O     O_R   0.468520 0.945630 0.000020 -0.497865
O8    O     O_R   0.054370 0.468520 0.000020 -0.497865
O9    O     O_R   0.031480 0.500000 0.581380 -0.494497
O10   O     O_R   0.500000 0.968520 0.581380 -0.494497
O11   O     O_R   0.968520 0.500000 0.581380 -0.494497
O12   O     O_R   0.445630 0.968520 0.499980 -0.497866
O13   O     O_R   0.500000 0.031480 0.581380 -0.494497
O14   O     O_R   0.031480 0.500000 0.418620 -0.494497
O15   O     O_R   0.500000 0.031480 0.418620 -0.494497
O16   O     O_R   0.968520 0.500000 0.418620 -0.494497
O17   O     O_R   0.500000 0.968520 0.418620 -0.494497
O18   O     O_R   0.531480 0.000000 0.081380 -0.494497
O19   O     O_R   1.000000 0.468520 0.081380 -0.494497
O20   O     O_R   0.468520 0.000000 0.081380 -0.494497
O21   O     O_R   1.000000 0.531480 0.081380 -0.494497
O22   O     O_R   0.531480 0.000000 0.918620 -0.494497
O23   O     O_R   0.968520 0.554370 0.499980 -0.497865
O24   O     O_R   1.000000 0.531480 0.918620 -0.494497
O25   O     O_R   0.468520 0.000000 0.918620 -0.494497
O26   O     O_R   0.000000 0.468520 0.918620 -0.494497
O27   O     O_R   0.945750 0.999990 0.547080 -0.507725
O28   O     O_R   0.999990 0.054250 0.547080 -0.507725
O29   O     O_R   0.054250 0.000010 0.547080 -0.507725
O30   O     O_R   0.000010 0.945750 0.547080 -0.507725
O31   O     O_R   0.945750 0.000010 0.452920 -0.507725
O32   O     O_R   0.999990 0.945750 0.452920 -0.507724
O33   O     O_R   0.054250 0.999990 0.452920 -0.507725
O34   O     O_R   0.554370 0.031480 0.499980 -0.497866
O35   O     O_R   0.000010 0.054250 0.452920 -0.507725
O36   O     O_R   0.445750 0.499990 0.047080 -0.507725
O37   O     O_R   0.499990 0.554250 0.047080 -0.507725
O38   O     O_R   0.554250 0.500010 0.047080 -0.507725
O39   O     O_R   0.500010 0.445750 0.047080 -0.507725
O40   O     O_R   0.445750 0.500010 0.952920 -0.507725
O41   O     O_R   0.499990 0.445750 0.952920 -0.507724
O42   O     O_R   0.554250 0.499990 0.952920 -0.507725
O43   O     O_R   0.500010 0.554250 0.952920 -0.507725
O44   O     O_R   0.031480 0.554370 0.500020 -0.497866
O45   O     O_R   0.445630 0.031480 0.500020 -0.497866
O46   O     O_R   0.968520 0.445630 0.500020 -0.497866
O47   O     O_R   0.554370 0.968520 0.500020 -0.497865
O48   O     O_R   0.531480 0.945630 0.999980 -0.497866

loop_
_geom_bond_atom_site_label_1
_geom_bond_atom_site_label_2
_ccdc_geom_bond_type
C28   H20   S    
C71   C104  S    
C72   N3    T    
C57   C145  S    
C29   C42   A    
C8    C26   A    
C66   N29   T    
Cu1   Cu6   S    
C147  O31   A    
C50   C59   S    
C31   H24   S    
C1    C129  S    
C57   C59   T    
C105  C123  A    
C120  C133  A    
C19   C37   A    
C34   C148  S    
C17   C182  A    
C176  C179  S    
C162  C171  S    
C84   C117  S    
C138  C174  S    
C112  C129  A    
Cu3   O38   S    
C33   H26   S    
C119  O34   A    
C96   C114  A    
C130  C134  S    
C136  C152  S    
C158  C167  S    
Cu10  O7    S    
C124  C137  A    
C15   C32   A    
C160  O18   A    
C65   C99   S    
C88   C122  S    
C99   C116  A    
C70   C103  S    
C156  O9    A    
C63   C96   S    
Cu2   O35   S    
C130  O7    A    
C108  O44   A    
C152  O3    A    
C92   N22   T    
C17   C34   A    
C103  C121  A    
C68   C146  S    
C13   C54   T    
C153  O37   A    
C2    C53   T    
C103  C143  A    
C15   H7    S    
C97   O12   A    
Cu12  O30   S    
C22   C36   A    
C25   H17   S    
C118  C129  A    
Cu4   O41   S    
C7    H31   S    
C18   C183  A    
C157  O10   A    
C5    H29   S    
C109  C144  A    
Cu10  O25   S    
C110  C143  A    
C67   N30   T    
C148  O28   A    
C106  C124  A    
C100  C117  A    
C16   H8    S    
C45   C184  A    
Cu9   O19   S    
Cu10  O20   S    
C163  O8    A    
C150  O32   A    
C160  O20   A    
C127  C134  A    
C14   C31   A    
Cu2   O32   S    
C92   C125  S    
C8    H32   S    
C149  O33   A    
C156  O11   A    
C94   C127  S    
C83   N14   T    
C119  O47   A    
C101  C118  A    
Cu2   Cu12  S    
C82   C115  S    
C43   C52   S    
C104  C122  A    
C23   H16   S    
Cu6   O23   S    
C164  O24   A    
C66   C100  S    
Cu5   Cu7   S    
Cu11  O6    S    
C93   C126  S    
C74   C107  S    
C95   C128  S    
C81   C114  S    
C30   C41   A    
C30   H22   S    
C147  O27   A    
Cu6   O16   S    
C46   C58   T    
C182  H1    S    
C15   C48   A    
Cu3   O39   S    
C44   C53   S    
Cu7   O15   S    
C4    C45   A    
Cu7   O34   S    
C122  C135  A    
C9    C49   A    
C107  C125  A    
C111  C146  A    
C137  C163  S    
Cu4   O43   S    
Cu9   O26   S    
C46   C144  S    
C85   N16   T    
Cu11  O24   S    
Cu8   Cu10  S    
C100  C139  A    
C25   C38   A    
C116  C132  A    
C27   C40   A    
C23   C34   A    
C155  O41   A    
C42   C151  S    
C44   C183  A    
C86   N17   T    
C150  O30   A    
C164  C172  S    
Cu12  O27   S    
C52   C174  T    
C67   C101  S    
C148  O35   A    
C3    H27   S    
C35   C56   T    
C19   C184  A    
C96   C140  A    
C12   C50   A    
C175  C180  S    
C97   O45   A    
Cu9   O2    S    
C164  O26   A    
C170  C179  T    
C141  O6    A    
C17   H9    S    
Cu11  O4    S    
Cu1   O14   S    
C98   C115  A    
C61   C79   S    
C159  O17   A    
C14   H6    S    
C3    C47   A    
Cu8   O5    S    
C99   C140  A    
C108  C132  S    
Cu4   O40   S    
C109  C126  A    
C135  C141  S    
C80   C113  S    
C154  O38   A    
C35   C143  S    
C111  C128  A    
C86   C120  S    
C51   C60   S    
C102  C142  A    
Cu12  O28   S    
Cu7   O13   S    
C41   C155  S    
C63   N23   T    
C32   H25   S    
C166  C175  T    
C79   C112  A    
C39   C153  S    
C2    C139  S    
C157  O13   A    
C161  O21   A    
C26   C39   A    
C168  C177  T    
C155  O39   A    
C28   C41   A    
C62   N12   T    
C31   C40   A    
C75   N6    T    
C32   C39   A    
C77   C111  S    
C24   C142  S    
C163  O4    A    
C61   N1    T    
C160  C169  S    
C16   C51   A    
C121  C134  A    
C37   C150  S    
C93   N24   T    
Cu1   O9    S    
C69   N31   T    
C64   N27   T    
C70   N32   T    
C173  C181  S    
C10   H3    S    
C27   H19   S    
Cu10  O3    S    
C13   C140  S    
Cu5   O10   S    
C161  O19   A    
C94   N25   T    
C87   C121  S    
C115  C133  A    
Cu12  O29   S    
C77   N8    T    
C151  O36   A    
C82   N13   T    
C7    C47   A    
C8    C48   A    
Cu4   O42   S    
C153  O43   A    
C105  C145  A    
C22   H15   S    
C3    C20   A    
C20   H13   S    
C74   N5    T    
C95   N26   T    
C97   C131  S    
C108  O23   A    
C125  C136  A    
C5    C44   A    
C126  C135  A    
C78   N9    T    
C6    C43   A    
Cu8   O48   S    
C33   C42   A    
C10   C50   A    
Cu8   O22   S    
C102  C120  A    
C9    C27   A    
C91   N21   T    
C10   C28   A    
C12   C30   A    
Cu9   O8    S    
C151  O40   A    
Cu7   O45   S    
C101  C138  A    
C158  O16   A    
C152  O5    A    
C7    C25   A    
C18   H10   S    
C26   H18   S    
Cu3   Cu4   S    
C156  C165  S    
C6    H30   S    
C84   N15   T    
C85   C118  S    
C38   C147  S    
C162  O25   A    
C81   N11   T    
C79   C138  A    
C21   C37   A    
C72   C105  S    
C60   C68   T    
C76   C110  S    
C177  C178  S    
C78   C112  S    
C18   C36   A    
Cu8   O18   S    
Cu1   O44   S    
C141  O2    A    
Cu5   O12   S    
Cu6   O11   S    
C90   C139  A    
C69   C102  S    
C21   H14   S    
C24   C55   T    
C119  C133  S    
Cu5   O47   S    
C107  C145  A    
C36   C149  S    
C14   C49   A    
C154  O42   A    
C165  C173  T    
C65   N28   T    
C159  C168  S    
C90   C113  A    
C80   N10   T    
Cu2   O33   S    
C11   H4    S    
C184  H23   S    
C5    C22   A    
Cu9   Cu11  S    
C104  C144  A    
C64   C98   S    
C110  C127  A    
C29   H21   S    
C19   H11   S    
C183  H12   S    
C40   C154  S    
C117  C131  A    
Cu2   O31   S    
C172  C181  T    
C158  O14   A    
C162  O22   A    
C75   C109  S    
C149  O29   A    
C89   C123  S    
C4    H28   S    
Cu5   O17   S    
C49   C58   S    
C128  C137  A    
C16   C33   A    
C20   C38   A    
C12   H5    S    
C1    O1    A    
C161  C170  S    
C45   C54   S    
C91   C124  S    
C171  C180  T    
C169  C178  T    
C9    H2    S    
C87   N18   T    
C47   C55   S    
C48   C56   S    
C113  C131  A    
C114  C132  A    
C83   C116  S    
C157  C166  S    
Cu6   O46   S    
C1    O46   A    
C43   C182  A    
C106  C146  A    
C89   N20   T    
C123  C136  A    
Cu11  O21   S    
C159  O15   A    
Cu3   O37   S    
C88   N19   T    
C4    C21   A    
Cu1   O1    S    
C73   C106  S    
C130  O48   A    
C6    C23   A    
C62   C90   S    
C71   N2    T    
C76   N7    T    
C11   C51   A    
C11   C29   A    
C73   N4    T    
C98   C142  A    
Cu3   O36   S    
C167  C176  T    
