data_mof_unit_52624.cif
_audit_creation_date              2013-03-05T15:58:51-0500
_audit_creation_method            fapswitch 2.2
_symmetry_space_group_name_H-M    P1
_symmetry_Int_Tables_number       1
_space_group_crystal_system       triclinic
_cell_length_a                    13.868823
_cell_length_b                    15.068327
_cell_length_c                    17.249542
_cell_angle_alpha                 87.308116
_cell_angle_beta                  83.93025
_cell_angle_gamma                 91.493047
_cell_volume                      3578.89757769

loop_
_atom_site_label
_atom_site_type_symbol
_atom_site_description
_atom_site_fract_x
_atom_site_fract_y
_atom_site_fract_z
_atom_type_partial_charge
O1    O     O_R   0.417720 0.629750 0.499980 -0.567687
O2    O     O_R   0.582280 0.370250 0.500020 -0.526928
O3    O     O_R   0.582260 0.629730 0.499990 -0.533181
O4    O     O_R   0.417740 0.370270 0.500010 -0.571234
C1    C     C_R   0.501408 0.670772 0.497539 0.920679
C2    C     C_R   0.498760 0.328958 0.498717 0.901126
O5    O     O_R   0.408190 0.500030 0.613590 -0.541842
O6    O     O_R   0.591810 0.499970 0.386410 -0.555411
O7    O     O_R   0.572730 0.500000 0.613600 -0.580664
O8    O     O_R   0.427270 0.500000 0.386400 -0.573966
C3    C     C_R   0.485657 0.505076 0.649894 0.822918
C4    C     C_R   0.514459 0.499712 0.350412 0.899342
Cu1   Cu    Cu3+1 0.402580 0.500010 0.500000 1.032697
Cu2   Cu    Cu3+1 0.597420 0.499990 0.500000 1.060566
C5    C     C_R   0.474286 0.510132 0.735252 -0.216969
C6    C     C_R   0.526888 0.494376 0.266407 -0.159407
C7    C     C_R   0.550450 0.546790 0.771828 -0.247617
C8    C     C_R   0.502242 0.566355 0.219534 -0.215982
C9    C     C_R   0.544133 0.547694 0.852694 -0.191000
C10   C     C_R   0.513396 0.561761 0.138957 -0.165474
C11   C     C_R   0.464353 0.506560 0.898575 -0.028111
C12   C     C_R   0.541537 0.482336 0.104760 -0.029098
C13   C     C_R   0.386860 0.470846 0.862488 0.446512
C14   C     C_R   0.566683 0.409545 0.152041 0.452872
C15   C     C_R   0.388527 0.479080 0.781109 0.333773
C16   C     C_R   0.565380 0.417965 0.232906 0.352227
C17   C     C_2   0.461356 0.500735 0.984503 0.180543
C18   C     C_2   0.539678 0.474052 0.019911 0.188943
H1    H     H_    0.614559 0.575825 0.737763 0.198302
H2    H     H_    0.474903 0.626121 0.245370 0.196682
H3    H     H_    0.495866 0.618941 0.103264 0.180209
H4    H     H_    0.603009 0.578118 0.879605 0.183527
C19   C     C_R   0.512401 0.182380 0.568426 0.421709
C20   C     C_R   0.488972 0.816392 0.429254 0.375552
C21   C     C_R   0.492966 0.231819 0.500775 -0.244119
C22   C     C_R   0.503025 0.767042 0.497536 -0.248655
C23   C     C_R   0.463594 0.189655 0.435810 0.441088
C24   C     C_R   0.512784 0.808429 0.567042 0.456858
C25   C     C_R   0.463041 0.095619 0.434552 -0.110581
C26   C     C_R   0.513558 0.901858 0.567675 -0.108665
C27   C     C_R   0.483851 0.045338 0.502511 -0.145203
C28   C     C_R   0.487830 0.951817 0.501406 -0.145483
C29   C     C_R   0.505337 0.088537 0.570510 -0.103884
C30   C     C_R   0.471337 0.908230 0.432659 -0.126909
C31   C     C_R   0.442895 0.051156 0.366829 0.432382
C32   C     C_R   0.537915 0.945033 0.633876 0.411023
C33   C     C_R   0.441366 0.957461 0.368090 0.395193
C34   C     C_R   0.524419 0.036827 0.638079 0.444661
C35   C     C_R   0.211240 0.568758 0.464047 0.594625
C36   C     C_R   0.785719 0.436958 0.544585 0.573364
N1    N     N_R   0.256180 0.500070 0.500030 -0.291609
N2    N     N_R   0.743820 0.499930 0.499970 -0.288939
C37   C     C_R   0.198965 0.429877 0.536324 0.370004
C38   C     C_R   0.801280 0.562288 0.454166 0.399150
C39   C     C_R   0.095015 0.430018 0.540861 -0.197161
C40   C     C_R   0.904972 0.561441 0.450026 -0.190618
C41   C     C_R   0.051183 0.496345 0.497425 -0.012118
C42   C     C_R   0.948128 0.496591 0.495932 -0.006345
C43   C     C_R   0.110232 0.563350 0.456068 -0.129052
C44   C     C_R   0.888507 0.431959 0.540528 -0.135613
C45   C     C_R   0.033074 0.364334 0.584774 0.370503
C46   C     C_R   0.967686 0.622893 0.401967 0.375624
C47   C     C_R   0.932600 0.364237 0.581187 -0.222346
C48   C     C_R   0.067804 0.624174 0.407009 -0.223120
H5    H     H_    0.888896 0.311086 0.612757 0.207267
H6    H     H_    0.113139 0.672017 0.369784 0.199314
O9    O     O_3   0.264250 0.644510 0.435894 -0.543871
C49   C     C_3   0.240837 0.713280 0.487510 -0.307275
H7    H     H_    0.294294 0.769084 0.474094 0.177331
H8    H     H_    0.244254 0.691319 0.549781 0.146697
H9    H     H_    0.168446 0.740172 0.480252 0.161382
O10   O     O_3   0.726474 0.378237 0.593616 -0.536493
C50   C     C_3   0.726597 0.403033 0.671857 -0.152093
H10   H     H_    0.734616 0.476189 0.677572 0.127629
H11   H     H_    0.784182 0.369372 0.700827 0.161879
H12   H     H_    0.656559 0.380600 0.704852 0.202184
N3    N     N_R   0.243747 0.352154 0.564237 0.161231
O11   O     O_R   0.286334 0.353334 0.627552 -0.300456
O12   O     O_R   0.230148 0.276645 0.532782 -0.393975
N4    N     N_R   0.755961 0.633915 0.416741 0.154909
O13   O     O_R   0.759999 0.712629 0.444452 -0.348796
O14   O     O_R   0.725570 0.624458 0.348773 -0.350949
N5    N     N_R   0.068178 0.301703 0.639361 0.163736
O15   O     O_R   0.045793 0.217609 0.636501 -0.306859
O16   O     O_R   0.099730 0.330143 0.702389 -0.311943
N6    N     N_R   0.933465 0.680934 0.343532 0.161584
O17   O     O_R   0.911844 0.648100 0.278905 -0.295445
O18   O     O_R   0.949719 0.766215 0.345251 -0.322499
O19   O     O_3   0.591411 0.347877 0.280178 -0.548747
C51   C     C_3   0.693416 0.348007 0.276918 -0.156337
H13   H     H_    0.723627 0.412681 0.293749 0.164369
H14   H     H_    0.726941 0.331824 0.218044 0.197708
H15   H     H_    0.713739 0.295890 0.319252 0.183384
O20   O     O_3   0.308725 0.449838 0.747008 -0.515696
C52   C     C_3   0.240769 0.517998 0.748854 -0.101122
H16   H     H_    0.272857 0.581037 0.719718 0.088621
H17   H     H_    0.210351 0.529488 0.809704 0.184358
H18   H     H_    0.179788 0.497343 0.716345 0.194462
N7    N     N_R   0.621736 0.435694 0.976623 0.142948
O21   O     O_R   0.708532 0.449329 0.996697 -0.302369
O22   O     O_R   0.608674 0.377383 0.925070 -0.362993
N8    N     N_R   0.372306 0.522805 0.029586 0.144377
O23   O     O_R   0.320519 0.586797 0.004636 -0.321175
O24   O     O_R   0.336176 0.471437 0.088926 -0.348406
O25   O     O_3   0.307930 0.429263 0.906569 -0.523796
C53   C     C_3   0.324556 0.337380 0.912528 -0.182354
H19   H     H_    0.390417 0.323641 0.942297 0.142912
H20   H     H_    0.330737 0.308060 0.854211 0.163755
H21   H     H_    0.261776 0.303826 0.948384 0.199984
O26   O     O_3   0.593083 0.330446 0.119470 -0.534227
C54   C     C_3   0.510122 0.273487 0.124473 -0.183226
H22   H     H_    0.452645 0.302690 0.091662 0.141238
H23   H     H_    0.481163 0.257140 0.186263 0.208698
H24   H     H_    0.530838 0.210291 0.097705 0.198232
O27   O     O_3   0.551737 0.224554 0.628187 -0.513791
C55   C     C_3   0.479335 0.269921 0.672908 -0.142710
H25   H     H_    0.405639 0.238340 0.675690 0.168041
H26   H     H_    0.476534 0.338403 0.649361 0.161093
H27   H     H_    0.499259 0.273374 0.733310 0.165400
O28   O     O_3   0.491754 0.773047 0.360019 -0.577370
C56   C     C_3   0.583483 0.790406 0.317384 -0.124436
H28   H     H_    0.643713 0.777065 0.353422 0.216612
H29   H     H_    0.590921 0.860129 0.293074 0.185543
H30   H     H_    0.591301 0.746237 0.267616 0.181537
O29   O     O_3   0.448257 0.241534 0.369903 -0.523177
C57   C     C_3   0.348339 0.257592 0.369467 -0.155380
H31   H     H_    0.300112 0.200698 0.394420 0.152874
H32   H     H_    0.333465 0.271057 0.308247 0.157135
H33   H     H_    0.328802 0.318622 0.399661 0.200215
O30   O     O_3   0.520875 0.756879 0.634556 -0.533562
C58   C     C_3   0.426634 0.735897 0.671498 -0.383638
H34   H     H_    0.381258 0.795580 0.677920 0.145217
H35   H     H_    0.432865 0.706731 0.730923 0.199807
H36   H     H_    0.389098 0.685730 0.639429 0.162839
O31   O     O_3   0.441304 0.099741 0.296285 -0.522712
C59   C     C_3   0.352604 0.087086 0.264113 -0.238661
H37   H     H_    0.289520 0.072719 0.308920 0.126534
H38   H     H_    0.359180 0.034849 0.220896 0.210780
H39   H     H_    0.337339 0.148773 0.230677 0.151636
O32   O     O_3   0.597564 0.902201 0.682778 -0.509696
C60   C     C_3   0.551581 0.886988 0.759290 -0.128018
H40   H     H_    0.471725 0.876119 0.761881 0.101299
H41   H     H_    0.570243 0.941923 0.796180 0.188861
H42   H     H_    0.580553 0.825558 0.784819 0.184063
O33   O     O_3   0.417193 0.915337 0.302810 -0.552184
C61   C     C_3   0.321255 0.879288 0.317108 -0.252661
H43   H     H_    0.272513 0.917599 0.357964 0.113447
H44   H     H_    0.321601 0.809179 0.339278 0.237524
H45   H     H_    0.289128 0.879267 0.260898 0.187599
O34   O     O_3   0.534255 0.076046 0.707843 -0.513292
C62   C     C_3   0.441515 0.077727 0.751078 -0.320550
H46   H     H_    0.421821 0.013632 0.783287 0.141447
H47   H     H_    0.382282 0.094274 0.714481 0.151950
H48   H     H_    0.443571 0.128495 0.795424 0.193638

loop_
_geom_bond_atom_site_label_1
_geom_bond_atom_site_label_2
_geom_bond_distance
_ccdc_geom_bond_type
C47   H5    1.081352 S    
C57   H31   1.114516 S    
C34   O34   1.383235 S    
C7    H1    1.082745 S    
C50   H10   1.115071 S    
C52   H16   1.112996 S    
C58   H36   1.108209 S    
C33   O33   1.385327 S    
O33   C61   1.416545 S    
C41   C42   1.432308 A    
C52   H18   1.108863 S    
O31   C59   1.414108 S    
C25   C27   1.425149 A    
N3    O11   1.296021 A    
C55   H25   1.111544 S    
C16   O19   1.382688 S    
O5    C3    1.301814 A    
C46   N6    1.430445 S    
C43   C48   1.401047 A    
C44   C47   1.401127 A    
O1    C1    1.296460 A    
C24   O30   1.385436 S    
C12   C14   1.409226 A    
C9    C11   1.402757 A    
C14   C16   1.404828 A    
C60   H41   1.109169 S    
N6    O18   1.301126 A    
C5    C15   1.412984 A    
C53   H19   1.113525 S    
C42   C44   1.406090 A    
O27   C55   1.411440 S    
C13   O25   1.382953 S    
C1    C22   1.450207 S    
C2    C21   1.462386 S    
C27   C28   1.412666 A    
C31   C33   1.410534 A    
O4    Cu1   1.971672 S    
C45   C47   1.401314 A    
C36   O10   1.384989 S    
O26   C54   1.410122 S    
C53   H21   1.109088 S    
C56   H30   1.108796 S    
C46   C48   1.400082 A    
C7    C9    1.389111 A    
Cu1   N1    2.030365 S    
C3    C5    1.469924 S    
Cu2   N2    2.030365 S    
C4    C6    1.447334 S    
C40   C42   1.413567 A    
C49   H7    1.105984 S    
C35   N1    1.378434 A    
C36   N2    1.372963 A    
C62   H46   1.104447 S    
C8    H2    1.083123 S    
C29   C34   1.423483 A    
C61   H44   1.106798 S    
C30   C33   1.414220 A    
C25   C31   1.422823 A    
C26   C28   1.421318 A    
C11   C17   1.476810 S    
C15   O20   1.379019 S    
C12   C18   1.477613 S    
Cu1   Cu2   2.702208 S    
C20   O28   1.385358 S    
C27   C29   1.422613 A    
O2    C2    1.303314 A    
C28   C30   1.418675 A    
C59   H39   1.107791 S    
C9    H4    1.083073 S    
N2    C38   1.378517 A    
C23   O29   1.387498 S    
C37   C39   1.435557 A    
C6    C16   1.404950 A    
C38   C40   1.432728 A    
C19   O27   1.387995 S    
C31   O31   1.392855 S    
O9    C49   1.419520 S    
C19   C29   1.413405 A    
C14   O26   1.382926 S    
O32   C60   1.409631 S    
N4    O14   1.299833 A    
C45   N5    1.432378 S    
C60   H42   1.109386 S    
N6    O17   1.300854 A    
N4    O13   1.301488 A    
O6    Cu2   1.969137 S    
C57   H33   1.103873 S    
O3    C1    1.298203 A    
N1    C37   1.388996 A    
C48   H6    1.083910 S    
C37   N3    1.427350 S    
O7    Cu2   1.953257 S    
C61   H45   1.109067 S    
C51   H14   1.111891 S    
N7    O21   1.301202 A    
O6    C4    1.295103 A    
N3    O12   1.301157 A    
C20   C30   1.414396 A    
O20   C52   1.411126 S    
C54   H23   1.112499 S    
N8    O24   1.301850 A    
O7    C3    1.305952 A    
C56   H28   1.109714 S    
O3    Cu2   1.971673 S    
O8    C4    1.299751 A    
C62   H48   1.108873 S    
C18   N7    1.442878 S    
C59   H38   1.108193 S    
N5    O16   1.300663 A    
C10   C12   1.405190 A    
C39   C41   1.409770 A    
C38   N4    1.425624 S    
O29   C57   1.413648 S    
C50   H12   1.108874 S    
C40   C46   1.426396 A    
N5    O15   1.301211 A    
O4    C2    1.297320 A    
O1    Cu1   1.960740 S    
C50   H11   1.107494 S    
C58   H34   1.114083 S    
O28   C56   1.412252 S    
C51   H15   1.109324 S    
C32   O32   1.391664 S    
C61   H43   1.115671 S    
C5    C7    1.400791 A    
C57   H32   1.107711 S    
C35   O9    1.381280 S    
C54   H22   1.113426 S    
C21   C23   1.405457 A    
O10   C50   1.417356 S    
C58   H35   1.108946 S    
O8    Cu1   1.953258 S    
C52   H17   1.112158 S    
O25   C53   1.410291 S    
C17   N8    1.443331 S    
C35   C43   1.422623 A    
C55   H27   1.108985 S    
C36   C44   1.423991 A    
C11   C13   1.405337 A    
O30   C58   1.413399 S    
C23   C25   1.417976 A    
C60   H40   1.111202 S    
C24   C26   1.408133 A    
C51   H13   1.113811 S    
C53   H20   1.113522 S    
C49   H9    1.109454 S    
C26   C32   1.407580 A    
C39   C45   1.427943 A    
C22   C24   1.394580 A    
C19   C21   1.408798 A    
C20   C22   1.397174 A    
C55   H26   1.094255 S    
C54   H24   1.109087 S    
C8    C10   1.387350 A    
C62   H47   1.114052 S    
N8    O23   1.301275 A    
O2    Cu2   1.960740 S    
C56   H29   1.110889 S    
C41   C43   1.401667 A    
C32   C34   1.404824 A    
O5    Cu1   1.969135 S    
C13   C15   1.401084 A    
C6    C8    1.393680 A    
C17   C18   1.361842 D    
C49   H8    1.115233 S    
O34   C62   1.418369 S    
C59   H37   1.114042 S    
O19   C51   1.409801 S    
N7    O22   1.301847 A    
C10   H3    1.083190 S    
