data_mof_unit_11688.cif
_audit_creation_date              2012-12-10T20:26:29-0500
_audit_creation_method            fapswitch 2.2
_symmetry_space_group_name_H-M    P1
_symmetry_Int_Tables_number       1
_space_group_crystal_system       triclinic
_cell_length_a                    10.695984
_cell_length_b                    10.678455
_cell_length_c                    9.938382
_cell_angle_alpha                 89.906304
_cell_angle_beta                  87.497155
_cell_angle_gamma                 90.641692
_cell_volume                      1133.97150447

loop_
_atom_site_label
_atom_site_type_symbol
_atom_type_description
_atom_site_fract_x
_atom_site_fract_y
_atom_site_fract_z
_atom_type_partial_charge
C1    C     C_R   0.497082 0.260137 0.500245 0.880788
C2    C     C_R   0.599030 0.549270 0.063102 0.136422
C3    C     C_R   0.596765 0.548851 0.920414 -0.135876
C4    C     C_R   0.262756 0.505886 0.502596 0.930378
C5    C     C_R   0.395626 0.464508 0.934267 0.216808
C6    C     C_3   0.329293 0.341283 0.931336 -0.507772
C7    C     C_3   0.330572 0.340108 0.084290 -0.505783
C8    C     C_R   0.496072 0.739695 0.500209 0.854984
C9    C     C_R   0.737369 0.499146 0.497598 0.914693
C10   C     C_2   0.937272 0.558967 0.401888 -0.190983
C11   C     C_2   0.869656 0.492410 0.492662 -0.319976
C12   C     C_R   0.479380 0.128252 0.501873 -0.098738
C13   C     C_2   0.071810 0.552326 0.397651 -0.147049
C14   C     C_2   0.131477 0.526420 0.509338 -0.339953
C15   C     C_R   0.483927 0.063463 0.623022 0.103157
C16   C     C_3   0.718005 0.603512 0.117057 -0.388611
C17   C     C_3   0.699267 0.732969 0.183177 -0.257939
C18   C     C_3   0.792084 0.831343 0.126275 -0.947097
C19   C     C_1   0.514474 0.875879 0.857313 0.242153
C20   C     C_R   0.450801 0.064216 0.383767 -0.217136
C21   C     C_R   0.449433 0.934736 0.383955 -0.219137
C22   C     C_R   0.476894 0.870931 0.502256 -0.118995
C23   C     C_R   0.481640 0.935649 0.623549 0.108875
C24   C     C_3   0.573400 0.927868 0.732551 -0.209802
C25   C     C_3   0.577541 0.070241 0.730548 -0.523296
C26   C     C_R   0.395694 0.464150 0.076053 0.194838
H1    H     H_    0.894485 0.617140 0.328177 0.160459
H2    H     H_    0.084319 0.523790 0.608322 0.151389
H3    H     H_    0.437432 0.112993 0.290118 0.165271
H4    H     H_    0.434975 0.885777 0.290469 0.175375
H5    H     H_    0.663099 0.882851 0.700567 0.145343
H6    H     H_    0.539107 0.115183 0.824034 0.201264
H7    H     H_    0.779494 0.844796 0.016821 0.270234
H8    H     H_    0.775584 0.922044 0.178255 0.261295
H9    H     H_    0.889629 0.801915 0.142306 0.261298
H10   H     H_    0.603563 0.767795 0.167814 0.244239
H11   H     H_    0.712292 0.726070 0.292847 0.226174
H12   H     H_    0.669346 0.109138 0.692566 0.193810
H13   H     H_    0.763386 0.534213 0.179374 0.204561
H14   H     H_    0.790397 0.613800 0.033736 0.170439
H15   H     H_    0.674249 0.586818 0.859043 0.152729
H16   H     H_    0.233730 0.349676 0.892818 0.200701
H17   H     H_    0.387166 0.266941 0.882910 0.213847
H18   H     H_    0.235675 0.346550 0.133849 0.205523
H19   H     H_    0.390460 0.265657 0.124256 0.208353
H20   H     H_    0.910749 0.432101 0.566347 0.144386
H21   H     H_    0.121382 0.567392 0.301080 0.171029
N1    N     N_R   0.499170 0.499140 0.142800 -0.122003
N2    N     N_R   0.499170 0.499180 0.857150 -0.121265
N3    N     N_1   0.467371 0.835261 0.955168 -0.245529
O1    O     O_R   0.500020 0.316790 0.614690 -0.614104
O2    O     O_R   0.500000 0.316760 0.385350 -0.622085
O3    O     O_R   0.319080 0.500020 0.614640 -0.618065
O4    O     O_R   0.319070 0.499980 0.385300 -0.613861
O5    O     O_R   0.500000 0.683240 0.614650 -0.611997
O6    O     O_R   0.499980 0.683210 0.385310 -0.640316
O7    O     O_R   0.680930 0.500020 0.614700 -0.625600
O8    O     O_R   0.680920 0.499980 0.385360 -0.626026
Zn1   Zn    Zn3+2 0.500010 0.500020 0.653130 0.944853
Zn2   Zn    Zn3+2 0.499990 0.499980 0.346870 0.933325

loop_
_geom_bond_atom_site_label_1
_geom_bond_atom_site_label_2
_ccdc_geom_bond_type
C10   H1    S    
C8    C22   S    
C23   C24   S    
N1    Zn2   S    
C6    C7    S    
C17   H10   S    
O5    Zn1   S    
C4    O3    A    
C18   H8    S    
C21   H4    S    
C2    N1    A    
N2    Zn1   S    
C12   C15   A    
C26   N1    A    
C20   H3    S    
C4    O4    A    
C12   C20   A    
C25   H6    S    
C15   C23   A    
C2    C3    A    
O3    Zn1   S    
C24   H5    S    
O4    Zn2   S    
C7    H18   S    
C20   C21   A    
C4    C14   S    
C9    C11   S    
C19   N3    T    
C8    O6    A    
C1    C12   S    
C7    C26   S    
C16   H14   S    
C7    H19   S    
C8    O5    A    
C21   C22   A    
C1    O2    A    
C19   C24   S    
C9    O7    A    
C6    H17   S    
C3    N2    A    
C5    C6    S    
C25   H12   S    
C18   H7    S    
C5    N2    A    
O7    Zn1   S    
C15   C25   S    
C10   C11   D    
C16   H13   S    
O8    Zn2   S    
C5    C26   A    
O1    Zn1   S    
C24   C25   S    
C2    C16   S    
C17   C18   S    
C9    O8    A    
C18   H9    S    
C13   H21   S    
C22   C23   A    
C3    H15   S    
C11   H20   S    
C17   H11   S    
C1    O1    A    
O2    Zn2   S    
C14   H2    S    
C13   C14   D    
C6    H16   S    
O6    Zn2   S    
C16   C17   S    
C10   C13   S    
