data_mof_unit_48764.cif
_audit_creation_date              2012-10-26T21:07:45-0400
_audit_creation_method            fapswitch 2.2
_symmetry_space_group_name_H-M    P1
_symmetry_Int_Tables_number       1
_space_group_crystal_system       triclinic
_cell_length_a                    11.08401
_cell_length_b                    9.097153
_cell_length_c                    7.788636
_cell_angle_alpha                 89.971448
_cell_angle_beta                  103.137252
_cell_angle_gamma                 90.125355
_cell_volume                      764.795302438

loop_
_atom_site_label
_atom_site_type_symbol
_atom_type_description
_atom_site_fract_x
_atom_site_fract_y
_atom_site_fract_z
_atom_type_partial_charge
C1    C     C_R   0.500021 0.220032 0.500036 0.545057
C2    C     C_1   0.499987 0.934632 0.499955 -0.060538
C3    C     C_3   0.891673 0.307201 0.837151 0.021396
C4    C     C_3   0.995055 0.225253 0.962227 -0.363569
C5    C     C_3   0.108527 0.692302 0.162176 0.021801
C6    C     C_3   0.005127 0.774666 0.037639 -0.363662
C7    C     C_R   0.499979 0.779968 0.499964 0.545040
C8    C     C_R   0.262075 0.505306 0.428478 0.530044
C9    C     C_R   0.737923 0.494714 0.571521 0.530106
C10   C     C_2   0.126590 0.521019 0.386469 0.211541
C11   C     C_2   0.873402 0.479058 0.613535 0.211492
C12   C     C_2   0.066920 0.490918 0.513868 -0.109341
C13   C     C_2   0.933090 0.509291 0.486197 -0.109362
C14   C     C_1   0.500013 0.065368 0.500045 -0.060542
Cu1   Cu    Cu3+1 0.500010 0.500000 0.669080 0.999778
Cu2   Cu    Cu3+1 0.499990 0.500000 0.330920 0.999731
H1    H     H_    0.881811 0.546250 0.357528 0.169911
H2    H     H_    0.933229 0.808266 0.108463 0.149724
H3    H     H_    0.043450 0.874266 0.986846 0.084899
H4    H     H_    0.961936 0.703850 0.924306 0.209219
H5    H     H_    0.118204 0.454041 0.642573 0.169804
H6    H     H_    0.851634 0.231354 0.725978 0.106681
H7    H     H_    0.819503 0.334786 0.910193 0.177213
H8    H     H_    0.037450 0.296051 0.075962 0.209163
H9    H     H_    0.956931 0.125213 0.012351 0.084794
H10   H     H_    0.067530 0.192423 0.892082 0.149981
H11   H     H_    0.180196 0.664062 0.088504 0.177400
H12   H     H_    0.149282 0.768134 0.273038 0.106704
N1    N     N_1   0.499980 0.500000 0.076820 -0.084155
N2    N     N_1   0.500020 0.500000 0.923180 -0.084140
O1    O     O_R   0.500010 0.288400 0.642760 -0.500786
O2    O     O_3   0.059755 0.562099 0.219558 -0.569838
O3    O     O_R   0.499990 0.711600 0.357240 -0.500786
O4    O     O_R   0.499990 0.288400 0.357240 -0.493080
O5    O     O_R   0.500010 0.711600 0.642760 -0.493101
O6    O     O_R   0.320690 0.500000 0.590310 -0.526954
O7    O     O_R   0.679310 0.500000 0.409690 -0.526915
O8    O     O_R   0.320680 0.500000 0.304730 -0.497569
O9    O     O_R   0.679320 0.500000 0.695270 -0.497392
O10   O     O_3   0.940186 0.437831 0.780404 -0.569749

loop_
_geom_bond_atom_site_label_1
_geom_bond_atom_site_label_2
_ccdc_geom_bond_type
C1    O4    A    
C4    H10   S    
Cu1   O1    S    
N1    N2    T    
Cu2   O3    S    
C5    H12   S    
C11   C13   D    
C3    H7    S    
C2    C7    S    
C13   H1    S    
Cu2   O7    S    
C5    O2    S    
C9    O7    A    
C4    H9    S    
C6    H3    S    
C9    C11   S    
Cu1   O9    S    
C11   O10   S    
C10   C12   D    
C2    C14   T    
Cu1   O5    S    
C3    O10   S    
C8    O8    A    
C5    C6    S    
C4    H8    S    
C6    H2    S    
C7    O3    A    
Cu1   Cu2   S    
C10   O2    S    
Cu1   O6    S    
C1    O1    A    
C6    H4    S    
C12   C13   S    
Cu1   N2    S    
C8    C10   S    
C8    O6    A    
C3    H6    S    
C1    C14   S    
Cu2   O4    S    
Cu2   N1    S    
C5    H11   S    
C7    O5    A    
C12   H5    S    
C9    O9    A    
C3    C4    S    
Cu2   O8    S    
