data_mof_unit_41591.cif
_audit_creation_date              2012-12-10T17:56:46-0500
_audit_creation_method            fapswitch 2.2
_symmetry_space_group_name_H-M    P1
_symmetry_Int_Tables_number       1
_space_group_crystal_system       triclinic
_cell_length_a                    10.867017
_cell_length_b                    9.554251
_cell_length_c                    10.893209
_cell_angle_alpha                 90.006664
_cell_angle_beta                  92.507802
_cell_angle_gamma                 89.977016
_cell_volume                      1129.91729722

loop_
_atom_site_label
_atom_site_type_symbol
_atom_type_description
_atom_site_fract_x
_atom_site_fract_y
_atom_site_fract_z
_atom_type_partial_charge
C1    C     C_R   0.262493 0.500395 0.507440 0.793856
C2    C     C_R   0.491821 0.500937 0.737384 0.787958
C3    C     C_R   0.556377 0.762418 0.116704 -0.188922
C4    C     C_R   0.444782 0.762792 0.883515 -0.189105
C5    C     C_R   0.532640 0.888910 0.056639 -0.171791
C6    C     C_R   0.468974 0.889115 0.943680 -0.171587
C7    C     C_R   0.481808 0.633556 0.937336 0.111355
C8    C     C_R   0.518892 0.633431 0.062768 0.111519
C9    C     C_R   0.516077 0.504807 0.128422 -0.126800
C10   C     C_R   0.484119 0.504911 0.871612 -0.126747
C11   C     C_R   0.504960 0.378532 0.063532 -0.211442
C12   C     C_R   0.737480 0.500329 0.492455 0.793988
C13   C     C_R   0.494828 0.378570 0.936448 -0.211354
C14   C     C_R   0.063832 0.374862 0.502632 -0.226633
C15   C     C_R   0.936259 0.374820 0.498386 -0.226965
C16   C     C_R   0.871718 0.501527 0.486440 -0.075093
C17   C     C_R   0.128220 0.501730 0.513308 -0.075490
C18   C     C_3   0.891376 0.751238 0.399445 -0.430100
C19   C     C_3   0.876502 0.708510 0.263747 -0.344409
C20   C     C_3   0.859247 0.836311 0.180261 -0.857997
C21   C     C_3   0.108336 0.752947 0.597162 -0.428770
C22   C     C_3   0.124360 0.712502 0.733295 -0.343617
C23   C     C_R   0.938133 0.628406 0.477945 0.094850
C24   C     C_3   0.142701 0.841701 0.814885 -0.859827
C25   C     C_3   0.335680 0.864054 0.321917 -0.363472
C26   C     C_3   0.205838 0.926846 0.322140 -0.948020
C27   C     C_3   0.664723 0.864011 0.677721 -0.363202
C28   C     C_3   0.794808 0.925711 0.675896 -0.945549
C29   C     C_R   0.061609 0.628718 0.520459 0.093967
C30   C     C_R   0.430005 0.076680 0.415892 -0.037988
C31   C     C_R   0.570051 0.076629 0.584064 -0.038264
C32   C     C_R   0.424514 0.928665 0.417494 0.214378
C33   C     C_R   0.575540 0.928614 0.582444 0.214983
C34   C     C_R   0.508242 0.500903 0.262631 0.787968
Cu1   Cu    Cu3+1 0.500000 0.640660 0.500000 0.904890
Cu2   Cu    Cu3+1 0.500000 0.359340 0.500000 0.928573
H1    H     H_    0.505210 0.278823 0.110910 0.157846
H2    H     H_    0.624415 0.135957 0.651363 0.151101
H3    H     H_    0.785101 0.905161 0.212811 0.250087
H4    H     H_    0.945656 0.897990 0.179067 0.253182
H5    H     H_    0.834715 0.801731 0.084978 0.254648
H6    H     H_    0.959671 0.650653 0.235976 0.223525
H7    H     H_    0.795718 0.637976 0.250649 0.210951
H8    H     H_    0.803829 0.794531 0.430151 0.235327
H9    H     H_    0.957797 0.839259 0.405074 0.196032
H10   H     H_    0.217485 0.908872 0.781321 0.250065
H11   H     H_    0.056811 0.904497 0.815145 0.253723
H12   H     H_    0.494206 0.278868 0.889027 0.157784
H13   H     H_    0.166940 0.808685 0.910656 0.254631
H14   H     H_    0.041328 0.655567 0.762561 0.222999
H15   H     H_    0.205050 0.641816 0.746637 0.211429
H16   H     H_    0.195396 0.796087 0.565255 0.236606
H17   H     H_    0.041499 0.840592 0.590956 0.195738
H18   H     H_    0.179661 0.955999 0.415881 0.250814
H19   H     H_    0.199931 0.022185 0.263854 0.249024
H20   H     H_    0.138728 0.849710 0.283073 0.262843
H21   H     H_    0.370839 0.883687 0.229996 0.200890
H22   H     H_    0.325978 0.751116 0.329850 0.271083
H23   H     H_    0.605166 0.768415 0.204645 0.178774
H24   H     H_    0.820596 0.952489 0.581527 0.250886
H25   H     H_    0.801484 0.022271 0.732558 0.248302
H26   H     H_    0.861724 0.848894 0.715933 0.262737
H27   H     H_    0.630482 0.884736 0.769871 0.199912
H28   H     H_    0.673749 0.750932 0.670424 0.271230
H29   H     H_    0.395935 0.769135 0.795643 0.178971
H30   H     H_    0.558731 0.986848 0.100489 0.131328
H31   H     H_    0.443184 0.987219 0.899931 0.131320
H32   H     H_    0.111693 0.275406 0.501603 0.167129
H33   H     H_    0.888518 0.275384 0.500486 0.167141
H34   H     H_    0.375719 0.136064 0.348551 0.151747
N1    N     N_R   0.500000 0.852070 0.500000 -0.209603
N2    N     N_R   0.500000 0.147940 0.500000 -0.201196
O1    O     O_R   0.319640 0.618740 0.499990 -0.599915
O2    O     O_R   0.680360 0.618740 0.500010 -0.599594
O3    O     O_R   0.319620 0.381170 0.499990 -0.580956
O4    O     O_R   0.680380 0.381170 0.500010 -0.581076
O5    O     O_R   0.500000 0.618810 0.319650 -0.614502
O6    O     O_R   0.500000 0.618810 0.680350 -0.614585
O7    O     O_R   0.499970 0.381240 0.319640 -0.581803
O8    O     O_R   0.500030 0.381240 0.680360 -0.581717

loop_
_geom_bond_atom_site_label_1
_geom_bond_atom_site_label_2
_ccdc_geom_bond_type
C7    C10   A    
C30   C32   A    
Cu1   O2    S    
C12   O2    A    
C17   C29   A    
Cu1   Cu2   S    
C26   H19   S    
C20   H5    S    
C7    C8    A    
C27   C33   S    
C23   C29   A    
C34   O5    A    
C5    C6    A    
C20   H4    S    
C15   C16   A    
C18   C19   S    
C11   H1    S    
Cu2   O4    S    
Cu1   O1    S    
C12   C16   S    
C8    C9    A    
C31   C33   A    
C19   H6    S    
C22   H14   S    
C28   H25   S    
C25   C32   S    
Cu1   N1    S    
C10   C13   A    
C21   C22   S    
C14   C17   A    
C25   H21   S    
C4    C7    A    
C26   H18   S    
C30   H34   S    
C19   H7    S    
C32   N1    A    
C28   H24   S    
C15   H33   S    
C18   C23   S    
C1    O3    A    
C4    C6    A    
C3    C8    A    
Cu2   O8    S    
C20   H3    S    
C25   C26   S    
C21   C29   S    
Cu1   O5    S    
C2    O6    A    
Cu2   O3    S    
C18   H8    S    
C34   O7    A    
C9    C11   A    
C27   H27   S    
C31   N2    A    
C16   C23   A    
C12   O4    A    
C9    C34   S    
C22   C24   S    
C25   H22   S    
C2    C10   S    
C18   H9    S    
C24   H13   S    
C6    H31   S    
C24   H11   S    
C5    H30   S    
C3    C5    A    
Cu2   O7    S    
C26   H20   S    
C13   H12   S    
C30   N2    A    
Cu1   O6    S    
C1    C17   S    
C31   H2    S    
C1    O1    A    
C19   C20   S    
C24   H10   S    
C21   H17   S    
C11   C13   A    
C4    H29   S    
C2    O8    A    
C27   H28   S    
C33   N1    A    
C27   C28   S    
C14   H32   S    
C14   C15   A    
C21   H16   S    
Cu2   N2    S    
C28   H26   S    
C22   H15   S    
C3    H23   S    
