data_mof_unit_61594.cif
_audit_creation_date              2012-10-26T21:04:09-0400
_audit_creation_method            fapswitch 2.2
_symmetry_space_group_name_H-M    P1
_symmetry_Int_Tables_number       1
_space_group_crystal_system       triclinic
_cell_length_a                    15.137257
_cell_length_b                    13.818053
_cell_length_c                    10.839524
_cell_angle_alpha                 90.018423
_cell_angle_beta                  90.193347
_cell_angle_gamma                 89.97978
_cell_volume                      2267.26209685

loop_
_atom_site_label
_atom_site_type_symbol
_atom_type_description
_atom_site_fract_x
_atom_site_fract_y
_atom_site_fract_z
_atom_type_partial_charge
C1    C     C_R   0.329743 0.500021 0.499766 0.589806
C2    C     C_R   0.441539 0.106889 0.424920 0.405489
C3    C     C_R   0.557397 0.209102 0.574446 0.542508
C4    C     C_R   0.442467 0.208843 0.426063 0.548602
C5    C     C_R   0.500249 0.054538 0.500222 -0.054822
C6    C     C_R   0.446140 0.892629 0.582791 0.232887
C7    C     C_R   0.554566 0.892506 0.418006 0.228851
C8    C     C_R   0.447293 0.790497 0.580007 0.129796
C9    C     C_R   0.553119 0.790383 0.420507 0.131131
C10   C     C_R   0.500335 0.945476 0.500355 0.070405
C11   C     C_R   0.497801 0.499904 0.262093 0.598789
C12   C     C_R   0.670242 0.499997 0.500361 0.614754
C13   C     C_R   0.497766 0.499915 0.737828 0.597665
C14   C     C_R   0.492118 0.586399 0.063422 -0.083469
C15   C     C_R   0.492246 0.586334 0.936351 -0.104772
C16   C     C_R   0.487976 0.499666 0.129117 -0.049505
C17   C     C_R   0.487882 0.499661 0.870598 -0.054701
C18   C     C_R   0.469786 0.413477 0.064017 0.429758
C19   C     C_R   0.469582 0.413508 0.935360 0.429868
C20   C     C_3   0.556778 0.668037 0.930001 0.819956
C21   C     C_3   0.556433 0.668378 0.070192 0.791222
C22   C     C_R   0.094738 0.579500 0.448597 0.501283
C23   C     C_R   0.186186 0.421578 0.548858 0.360036
C24   C     C_R   0.905066 0.579102 0.553362 0.502453
C25   C     C_R   0.186641 0.579166 0.448789 0.377840
C26   C     C_R   0.813161 0.578764 0.552843 0.396929
C27   C     C_R   0.233079 0.500227 0.499203 -0.036818
C28   C     C_R   0.766883 0.500162 0.501337 -0.029525
C29   C     C_R   0.813902 0.421801 0.451063 0.362930
C30   C     C_R   0.094368 0.422588 0.549174 -0.121049
C31   C     C_R   0.905718 0.422817 0.451069 -0.117970
C32   C     C_R   0.048306 0.501568 0.499934 -0.063291
C33   C     C_R   0.951640 0.501509 0.501288 -0.063934
C34   C     C_R   0.558696 0.107151 0.575624 0.407769
Cu1   Cu    Cu3+1 0.500000 0.596430 0.500000 1.161150
Cu2   Cu    Cu3+1 0.500000 0.403570 0.500000 1.298292
F1    F     F_    0.456542 0.328268 0.123455 -0.481960
F2    F     F_    0.769667 0.654092 0.605566 -0.479434
F3    F     F_    0.228849 0.344832 0.599804 -0.525292
F4    F     F_    0.771357 0.345374 0.399171 -0.529726
F5    F     F_    0.616625 0.060016 0.650227 -0.467967
F6    F     F_    0.383547 0.059498 0.350689 -0.469499
F7    F     F_    0.613890 0.258237 0.648743 -0.488943
F8    F     F_    0.385075 0.257695 0.352862 -0.468696
F9    F     F_    0.455793 0.328422 0.875528 -0.502446
F10   F     F_    0.637073 0.641712 0.879009 -0.502628
F11   F     F_    0.519759 0.751019 0.120939 -0.514345
F12   F     F_    0.520693 0.750511 0.877675 -0.507618
F13   F     F_    0.636566 0.642746 0.122957 -0.549128
F14   F     F_    0.051057 0.654705 0.395587 -0.464863
F15   F     F_    0.948604 0.653982 0.607325 -0.463447
F16   F     F_    0.229962 0.654864 0.396801 -0.511527
H1    H     H_    0.405978 0.749653 0.642299 0.191934
H2    H     H_    0.594650 0.749445 0.358560 0.218273
H3    H     H_    0.059016 0.362156 0.589211 0.205304
H4    H     H_    0.941178 0.362647 0.410464 0.205143
H5    H     H_    0.395885 0.060828 0.830925 0.413801
H6    H     H_    0.605250 0.058137 0.167401 0.407529
N1    N     N_R   0.500000 0.258690 0.500000 -0.323059
N2    N     N_R   0.500000 0.741330 0.500000 -0.296056
O1    O     O_R   0.371460 0.581430 0.500010 -0.486215
O2    O     O_2   0.327233 0.879639 0.766879 -0.176168
O3    O     O_3   0.438811 0.021862 0.783242 -0.409899
O4    O     O_2   0.688091 0.015441 0.379777 -0.189964
O5    O     O_2   0.675039 0.879268 0.235882 -0.138208
O6    O     O_3   0.562284 0.020253 0.216331 -0.414843
O7    O     O_R   0.628540 0.581430 0.499990 -0.463445
O8    O     O_R   0.371470 0.418560 0.500010 -0.415501
O9    O     O_R   0.628530 0.418560 0.499990 -0.421125
O10   O     O_R   0.499990 0.581450 0.319660 -0.493413
O11   O     O_R   0.500010 0.581450 0.680340 -0.494997
O12   O     O_R   0.500010 0.418580 0.319660 -0.423164
O13   O     O_R   0.499990 0.418580 0.680340 -0.414833
O14   O     O_2   0.311921 0.014566 0.621565 -0.185117
S1    S     S_3+6 0.376799 0.951977 0.690086 0.137218
S2    S     S_3+6 0.624262 0.951690 0.311110 0.144008

loop_
_geom_bond_atom_site_label_1
_geom_bond_atom_site_label_2
_ccdc_geom_bond_type
C7    C10   A    
C12   O9    A    
Cu1   Cu2   S    
Cu2   N1    S    
C21   F13   S    
C11   O10   A    
C6    S1    S    
C3    F7    S    
O5    S2    D    
C22   C32   A    
C12   C28   S    
C14   C21   S    
C28   C29   A    
C18   F1    S    
C24   C26   A    
C1    O8    A    
C4    N1    A    
C7    C9    A    
C18   C19   A    
H6    O6    S    
Cu1   O10   S    
C22   C25   A    
C31   C33   A    
C23   C27   A    
C31   H4    S    
C22   F14   S    
C24   F15   S    
Cu1   O11   S    
C34   F5    S    
H5    O3    S    
C15   C20   S    
C12   O7    A    
O14   S1    D    
C23   C30   A    
C11   O12   A    
C26   F2    S    
C6    C8    A    
C4    F8    S    
C3    C34   A    
Cu1   N2    S    
C2    C4    A    
C11   C16   S    
Cu1   O7    S    
O6    S2    S    
C5    C34   A    
C19   F9    S    
O4    S2    D    
Cu1   O1    S    
C20   F12   S    
C13   O13   A    
C14   C16   A    
O2    S1    D    
C2    C5    A    
Cu2   O9    S    
C15   C17   A    
C1    O1    A    
C8    H1    S    
C6    C10   A    
Cu2   O8    S    
C7    S2    S    
C25   C27   A    
C13   O11   A    
C30   H3    S    
C26   C28   A    
C24   C33   A    
C13   C17   S    
C9    N2    A    
C32   C33   S    
C25   F16   S    
C5    C10   S    
C29   C31   A    
C8    N2    A    
C30   C32   A    
O3    S1    S    
C2    F6    S    
C23   F3    S    
C29   F4    S    
C17   C19   A    
Cu2   O13   S    
C20   C21   S    
C16   C18   A    
C1    C27   S    
C14   C15   A    
C9    H2    S    
C20   F10   S    
Cu2   O12   S    
C21   F11   S    
C3    N1    A    
