data_mof_unit_5950.cif
_audit_creation_date              2012-12-10T18:34:30-0500
_audit_creation_method            fapswitch 2.2
_symmetry_space_group_name_H-M    P1
_symmetry_Int_Tables_number       1
_space_group_crystal_system       triclinic
_cell_length_a                    15.094358
_cell_length_b                    15.404602
_cell_length_c                    15.770796
_cell_angle_alpha                 89.95602
_cell_angle_beta                  103.050903
_cell_angle_gamma                 83.601539
_cell_volume                      3548.81877946

loop_
_atom_site_label
_atom_site_type_symbol
_atom_type_description
_atom_site_fract_x
_atom_site_fract_y
_atom_site_fract_z
_atom_type_partial_charge
C1    C     C_R   0.442799 0.662032 0.489837 0.890756
C2    C     C_R   0.556878 0.338045 0.514591 0.888134
C3    C     C_R   0.280091 0.868798 0.478370 0.499630
C4    C     C_R   0.699087 0.138301 0.630791 0.481668
C5    C     C_R   0.314019 0.781818 0.469130 -0.314683
C6    C     C_R   0.676117 0.222284 0.592593 -0.310651
C7    C     C_R   0.467616 0.812334 0.532733 -0.232474
C8    C     C_R   0.524331 0.187694 0.527156 -0.227756
C9    C     C_R   0.436725 0.899858 0.542853 -0.010342
C10   C     C_R   0.543102 0.105140 0.567554 -0.003035
C11   C     C_R   0.342175 0.930110 0.511106 -0.049996
C12   C     C_R   0.633644 0.077347 0.615109 -0.078126
C13   C     C_R   0.500200 0.959117 0.576103 0.039373
C14   C     C_R   0.474159 0.048438 0.557405 0.056571
C15   C     C_R   0.380072 0.078577 0.529802 -0.370926
C16   C     C_R   0.589564 0.931668 0.624845 -0.344153
C17   C     C_R   0.313051 0.020433 0.511795 0.487209
C18   C     C_R   0.655740 0.989580 0.644769 0.463341
C19   C     C_R   0.840674 0.641305 0.625182 -0.352006
C20   C     C_R   0.163179 0.351634 0.381111 -0.355010
C21   C     C_R   0.752102 0.618904 0.603975 0.283026
C22   C     C_R   0.250385 0.377545 0.399911 0.276757
C23   C     C_R   0.500499 0.499323 0.661721 0.884775
C24   C     C_R   0.499705 0.500234 0.338335 0.891903
C25   C     C_R   0.795794 0.505064 0.515762 -0.059672
C26   C     C_R   0.203000 0.494378 0.483032 -0.053275
C27   C     C_R   0.886057 0.528380 0.529321 -0.012251
C28   C     C_R   0.114849 0.466790 0.472803 -0.014399
C29   C     C_R   0.908626 0.595871 0.589149 0.029934
C30   C     C_R   0.094301 0.396588 0.416192 0.021517
C31   C     C_R   0.954495 0.486167 0.488249 -0.153467
C32   C     C_R   0.046740 0.507219 0.514822 -0.152574
C33   C     C_R   0.067974 0.566133 0.584194 0.465853
C34   C     C_R   0.934635 0.424660 0.420727 0.474636
C35   C     C_R   0.999512 0.613672 0.616172 0.023998
C36   C     C_R   0.004395 0.375509 0.391522 0.026065
C37   C     C_3   0.421679 0.476730 0.012295 0.547626
C38   C     C_3   0.581015 0.517388 0.988465 0.546970
C39   C     C_3   0.431691 0.557774 0.958074 -0.422900
C40   C     C_3   0.570982 0.436351 0.042707 -0.426355
C41   C     C_1   0.501525 0.497929 0.750882 -0.188242
C42   C     C_1   0.499711 0.499490 0.249416 -0.184062
C43   C     C_3   0.487935 0.418284 0.970438 0.012660
C44   C     C_3   0.514752 0.575840 0.030235 0.012591
C45   C     C_3   0.499173 0.497626 0.916545 0.048219
C46   C     C_3   0.503536 0.496575 0.084158 0.048480
C47   C     C_1   0.500890 0.497321 0.825991 0.026964
C48   C     C_1   0.501286 0.498258 0.174548 0.031116
C49   C     C_R   0.407616 0.753788 0.495504 -0.114398
C50   C     C_R   0.588474 0.247024 0.541363 -0.116034
H1    H     H_    0.376766 0.607751 0.923527 0.164141
H2    H     H_    0.625886 0.386385 0.077315 0.163523
H3    H     H_    0.221606 0.554104 0.513309 0.199786
H4    H     H_    0.774115 0.447902 0.482486 0.209669
H5    H     H_    0.855103 0.693281 0.670593 0.145382
H6    H     H_    0.150558 0.297189 0.338472 0.151040
H7    H     H_    0.459461 0.206804 0.482827 0.168466
H8    H     H_    0.539601 0.789621 0.549310 0.169532
H9    H     H_    0.726171 0.268661 0.605352 0.176531
H10   H     H_    0.266695 0.736517 0.439771 0.176337
H11   H     H_    0.357348 0.147611 0.524198 0.141841
H12   H     H_    0.608816 0.865634 0.650458 0.159033
N1    N     N_R   0.731710 0.552730 0.549140 -0.115539
N2    N     N_R   0.268290 0.447270 0.450860 -0.114330
O1    O     O_R   0.383110 0.605620 0.475230 -0.626050
O2    O     O_R   0.616890 0.394380 0.524770 -0.625708
O3    O     O_R   0.531900 0.639510 0.506760 -0.601025
O4    O     O_R   0.468100 0.360490 0.493240 -0.603766
O5    O     O_R   0.425620 0.483070 0.607460 -0.617253
O6    O     O_R   0.574380 0.516930 0.392540 -0.617365
O7    O     O_R   0.574400 0.516960 0.638990 -0.590725
O8    O     O_R   0.425600 0.483040 0.361010 -0.585822
Zn1   Zn    Zn3+2 0.400660 0.477370 0.478940 0.961318
Zn2   Zn    Zn3+2 0.599340 0.522630 0.521060 0.961257
N3    N     N_3   0.320151 0.333213 0.362628 -0.390584
H13   H     H_    0.298322 0.339581 0.294884 0.179040
H14   H     H_    0.326022 0.266777 0.379218 0.150209
N4    N     N_3   0.683487 0.662675 0.642903 -0.392531
H15   H     H_    0.704486 0.651892 0.710287 0.182053
H16   H     H_    0.681549 0.729502 0.630748 0.134847
O9    O     O_3   0.156376 0.578548 0.624550 -0.626057
C51   C     C_3   0.190761 0.513400 0.690157 0.102334
H17   H     H_    0.210426 0.450655 0.660672 0.148417
H18   H     H_    0.140747 0.502778 0.730543 0.128567
C52   C     C_3   0.275059 0.542539 0.749680 -0.816269
H19   H     H_    0.254739 0.596982 0.789954 0.237117
H20   H     H_    0.312563 0.486975 0.792365 0.199849
H21   H     H_    0.320372 0.565973 0.710359 0.278603
O10   O     O_3   0.846882 0.410689 0.379843 -0.617767
C53   C     C_3   0.813754 0.472909 0.311159 0.092951
H22   H     H_    0.863902 0.478676 0.269719 0.130712
H23   H     H_    0.796384 0.538037 0.337450 0.148337
C54   C     C_3   0.727772 0.444121 0.254020 -0.809495
H24   H     H_    0.681501 0.425935 0.294934 0.277279
H25   H     H_    0.692129 0.498278 0.208508 0.197232
H26   H     H_    0.745777 0.386433 0.216527 0.240299
O11   O     O_3   0.342293 0.452368 0.034722 -0.603283
C55   C     C_3   0.271998 0.450297 0.959247 0.095627
H27   H     H_    0.293543 0.403914 0.911711 0.156409
H28   H     H_    0.251468 0.516754 0.928778 0.143071
C56   C     C_3   0.188723 0.419484 0.983987 -0.824122
H29   H     H_    0.164642 0.464776 0.030969 0.259841
H30   H     H_    0.132661 0.417904 0.924897 0.199625
H31   H     H_    0.206440 0.352797 0.014155 0.257671
O12   O     O_3   0.660699 0.541772 0.966689 -0.604350
C57   C     C_3   0.730818 0.542755 0.042515 0.093058
H32   H     H_    0.751267 0.475834 0.071961 0.141396
H33   H     H_    0.709113 0.588098 0.090820 0.158261
C58   C     C_3   0.814217 0.574355 0.018741 -0.821132
H34   H     H_    0.796558 0.641504 0.989679 0.259914
H35   H     H_    0.870129 0.575093 0.078076 0.201271
H36   H     H_    0.838470 0.530020 0.971115 0.257008
N5    N     N_3   0.531619 0.661112 0.065986 -0.464209
H37   H     H_    0.535587 0.702046 0.014436 0.205120
H38   H     H_    0.473799 0.686044 0.087986 0.195884
N6    N     N_3   0.471131 0.333049 0.934568 -0.468631
H39   H     H_    0.467426 0.291962 0.986096 0.204182
H40   H     H_    0.528864 0.308309 0.912328 0.190254
O13   O     O_3   0.220367 0.050572 0.484142 -0.560612
C59   C     C_3   0.193063 0.119735 0.535118 0.083020
H41   H     H_    0.203642 0.183179 0.507468 0.148688
H42   H     H_    0.230691 0.112616 0.604771 0.126483
C60   C     C_3   0.091528 0.121121 0.532302 -0.798806
H43   H     H_    0.079223 0.061248 0.565047 0.245484
H44   H     H_    0.067868 0.179155 0.566464 0.208090
H45   H     H_    0.051620 0.124292 0.463783 0.261069
O14   O     O_3   0.742322 0.958959 0.692200 -0.579665
C61   C     C_3   0.794087 0.921585 0.634340 0.164020
H46   H     H_    0.787610 0.964661 0.575782 0.144413
H47   H     H_    0.771924 0.857029 0.612981 0.109057
C62   C     C_3   0.894628 0.908475 0.680740 -0.814615
H48   H     H_    0.905447 0.861179 0.736313 0.238774
H49   H     H_    0.936173 0.883422 0.634507 0.185353
H50   H     H_    0.917768 0.971596 0.705088 0.287203
O15   O     O_3   0.187854 0.894819 0.445809 -0.557936
C63   C     C_3   0.137456 0.864120 0.502763 0.133639
H51   H     H_    0.152355 0.898125 0.565823 0.143010
H52   H     H_    0.152901 0.792231 0.515447 0.134831
C64   C     C_3   0.035778 0.883022 0.461485 -0.801457
H53   H     H_    0.019485 0.849723 0.398342 0.254238
H54   H     H_    0.995360 0.858412 0.505142 0.192176
H55   H     H_    0.016345 0.954414 0.450040 0.266351
O16   O     O_3   0.785963 0.116102 0.682107 -0.587508
C65   C     C_3   0.790050 0.152923 0.764740 0.142334
H56   H     H_    0.734019 0.134054 0.794057 0.142112
H57   H     H_    0.785455 0.225466 0.759895 0.122955
C66   C     C_3   0.880916 0.119638 0.825553 -0.813466
H58   H     H_    0.938543 0.135412 0.797423 0.248260
H59   H     H_    0.886298 0.151079 0.889576 0.202318
H60   H     H_    0.885546 0.047776 0.835612 0.269398
N7    N     N_3   0.026418 0.676635 0.681345 -0.421628
H61   H     H_    0.007839 0.659319 0.738513 0.177988
H62   H     H_    0.992973 0.737910 0.658465 0.178307
N8    N     N_3   0.979676 0.308049 0.330685 -0.411015
H63   H     H_    0.996089 0.323306 0.271878 0.177020
H64   H     H_    0.016413 0.248625 0.356083 0.188857

loop_
_geom_bond_atom_site_label_1
_geom_bond_atom_site_label_2
_ccdc_geom_bond_type
C39   H1    S    
C61   C62   S    
C54   H24   S    
C27   C29   A    
C24   C42   S    
C23   O5    A    
C66   H58   S    
C20   H6    S    
C62   H50   S    
C61   H46   S    
C4    O16   S    
C37   O11   S    
O9    C51   S    
C36   N8    S    
C60   H43   S    
C20   C30   A    
C52   H19   S    
C40   C46   S    
C56   H29   S    
C35   N7    S    
C53   C54   S    
C66   H59   S    
C2    O4    A    
C58   H35   S    
C43   N6    S    
C64   H55   S    
N4    H16   S    
C60   H44   S    
C57   H32   S    
O16   C65   S    
O2    Zn2   S    
O1    Zn1   S    
N6    H39   S    
C15   C17   A    
C25   N1    A    
C45   C47   S    
C9    C13   A    
C54   H25   S    
C38   C45   S    
C26   N2    A    
C2    C50   S    
C1    O3    A    
C40   C43   S    
C44   C46   S    
C1    C49   S    
C21   N4    S    
O6    Zn2   S    
C1    O1    A    
N7    H61   S    
O5    Zn1   S    
C4    C12   A    
C7    H8    S    
N8    H64   S    
C59   C60   S    
C39   C45   S    
O15   C63   S    
C56   H30   S    
C13   C14   A    
C5    C49   A    
C16   H12   S    
C22   N3    S    
C65   C66   S    
C59   H42   S    
O11   C55   S    
C52   H20   S    
C41   C47   T    
C37   C39   S    
C64   H53   S    
C46   C48   S    
C3    O15   S    
C27   C31   A    
C23   O7    A    
C28   C32   A    
C66   H60   S    
C25   H4    S    
C7    C49   A    
C4    C6    A    
C10   C14   A    
C58   H36   S    
N4    H15   S    
C63   H51   S    
C60   H45   S    
C3    C5    A    
O4    Zn1   S    
C40   H2    S    
C63   C64   S    
C37   C43   S    
N3    H13   S    
C38   C44   S    
C18   O14   S    
C9    C11   A    
C53   H23   S    
C31   C32   A    
C51   H18   S    
N2    Zn1   S    
C15   H11   S    
C31   C34   A    
O3    Zn2   S    
C42   C48   T    
C6    C50   A    
N3    H14   S    
N8    H63   S    
C10   C12   A    
C65   H57   S    
C20   C22   A    
C44   N5    S    
C55   H27   S    
C54   H26   S    
C55   H28   S    
C25   C27   A    
O14   C61   S    
C19   C29   A    
C26   H3    S    
C8    C50   A    
C59   H41   S    
C24   O8    A    
C63   H52   S    
N5    H37   S    
C52   H21   S    
C19   H5    S    
C7    C9    A    
C11   C17   A    
C5    H10   S    
C19   C21   A    
C6    H9    S    
C8    C10   A    
O8    Zn1   S    
C62   H49   S    
C61   H47   S    
O7    Zn2   S    
O13   C59   S    
C2    O2    A    
C39   C44   S    
N1    Zn2   S    
C56   H31   S    
C51   C52   S    
O12   C57   S    
C29   C35   A    
C26   C28   A    
C23   C41   S    
C55   C56   S    
C30   C36   A    
C65   H56   S    
C32   C33   A    
C38   O12   S    
C28   C30   A    
O10   C53   S    
C34   O10   S    
C43   C45   S    
C58   H34   S    
C38   C40   S    
C64   H54   S    
C53   H22   S    
C24   O6    A    
C57   H33   S    
C33   C35   A    
N6    H40   S    
C34   C36   A    
N7    H62   S    
C21   N1    A    
C3    C11   A    
C17   O13   S    
C22   N2    A    
C16   C18   A    
C51   H17   S    
C13   C16   A    
C12   C18   A    
C14   C15   A    
C37   C46   S    
C33   O9    S    
C8    H7    S    
C62   H48   S    
N5    H38   S    
C57   C58   S    
