data_mof_unit_20846.cif
_audit_creation_date              2013-03-05T16:45:07-0500
_audit_creation_method            fapswitch 2.2
_symmetry_space_group_name_H-M    P1
_symmetry_Int_Tables_number       1
_space_group_crystal_system       triclinic
_cell_length_a                    14.964041
_cell_length_b                    15.152933
_cell_length_c                    9.912986
_cell_angle_alpha                 89.734839
_cell_angle_beta                  89.107412
_cell_angle_gamma                 90.394401
_cell_volume                      2247.40955741

loop_
_atom_site_label
_atom_site_type_symbol
_atom_site_description
_atom_site_fract_x
_atom_site_fract_y
_atom_site_fract_z
_atom_type_partial_charge
O1    O     O_R   0.408400 0.908380 0.614690 -0.556235
O2    O     O_R   0.408400 0.091620 0.614690 -0.595021
O3    O     O_R   0.908400 0.408380 0.614690 -0.552364
O4    O     O_R   0.908400 0.591620 0.614690 -0.594020
O5    O     O_R   0.408370 0.908370 0.385350 -0.635975
O6    O     O_R   0.408370 0.091630 0.385350 -0.634457
O7    O     O_R   0.908370 0.408370 0.385350 -0.637277
O8    O     O_R   0.908370 0.591630 0.385350 -0.635572
C1    C     C_R   0.379904 0.880529 0.500761 0.898479
C2    C     C_R   0.380533 0.120276 0.500151 0.894670
C3    C     C_R   0.880518 0.380020 0.500672 0.889889
C4    C     C_R   0.880492 0.620233 0.500162 0.892354
Zn1   Zn    Zn3+2 0.500010 0.000000 0.653130 1.013196
Zn2   Zn    Zn3+2 0.000010 0.500000 0.653130 1.012502
Zn3   Zn    Zn3+2 0.499980 0.000000 0.346870 0.993635
Zn4   Zn    Zn3+2 0.999980 0.500000 0.346870 0.991043
O9    O     O_R   0.591610 0.091610 0.614650 -0.630183
O10   O     O_R   0.591610 0.908390 0.614650 -0.623531
O11   O     O_R   0.091610 0.591610 0.614650 -0.629336
O12   O     O_R   0.091610 0.408390 0.614650 -0.624885
O13   O     O_R   0.591590 0.091600 0.385310 -0.568423
O14   O     O_R   0.591590 0.908400 0.385310 -0.613399
O15   O     O_R   0.091590 0.591600 0.385310 -0.573855
O16   O     O_R   0.091590 0.408400 0.385310 -0.613203
C5    C     C_R   0.619761 0.119656 0.498989 0.876317
C6    C     C_R   0.620573 0.880919 0.499370 0.874320
C7    C     C_R   0.119607 0.619859 0.499308 0.891713
C8    C     C_R   0.120547 0.380893 0.499372 0.874091
C9    C     C_R   0.316639 0.252738 0.600278 0.095416
C10   C     C_R   0.309776 0.753289 0.602587 0.249055
C11   C     C_R   0.816643 0.752720 0.600223 0.101643
C12   C     C_R   0.839211 0.226472 0.506394 0.071012
C13   C     C_R   0.319236 0.190787 0.497059 -0.070793
C14   C     C_R   0.310325 0.818099 0.503293 -0.108219
C15   C     C_R   0.819132 0.690681 0.497120 -0.069512
C16   C     C_R   0.814163 0.314465 0.499828 -0.025429
C17   C     C_R   0.267020 0.202210 0.382139 -0.200718
C18   C     C_R   0.241186 0.824183 0.410230 -0.181468
C19   C     C_R   0.766845 0.702037 0.382262 -0.205044
C20   C     C_R   0.726679 0.337889 0.468298 -0.138085
H1    H     H_    0.271612 0.157961 0.296762 0.179561
H2    H     H_    0.238700 0.877684 0.337568 0.167409
H3    H     H_    0.771351 0.657698 0.296971 0.179872
H4    H     H_    0.708736 0.406176 0.451227 0.157352
C21   C     C_R   0.702844 0.766858 0.381568 -0.196543
C22   C     C_R   0.661445 0.272573 0.465856 -0.189616
C23   C     C_R   0.202951 0.266960 0.381490 -0.196737
C24   C     C_R   0.176777 0.758436 0.408276 -0.176748
H5    H     H_    0.658643 0.771191 0.296278 0.203760
H6    H     H_    0.592482 0.289917 0.447864 0.145659
H7    H     H_    0.158807 0.271333 0.296135 0.205274
H8    H     H_    0.124345 0.760801 0.334178 0.174088
C25   C     C_R   0.691634 0.820090 0.495530 -0.084104
C26   C     C_R   0.685616 0.185686 0.494842 -0.046498
C27   C     C_R   0.191612 0.320070 0.495552 -0.086191
C28   C     C_R   0.182643 0.688610 0.500234 -0.100234
C29   C     C_R   0.753119 0.817089 0.599445 0.080797
C30   C     C_R   0.774720 0.162081 0.504773 0.154103
C31   C     C_R   0.253022 0.317027 0.599567 0.085502
C32   C     C_R   0.245530 0.689057 0.601753 0.161759
C33   C     C_3   0.740100 0.813448 0.749117 -0.413094
C34   C     C_3   0.820239 0.107581 0.608653 -0.477284
C35   C     C_3   0.239832 0.313142 0.749199 -0.410759
C36   C     C_3   0.309915 0.618138 0.637765 -0.505720
C37   C     C_3   0.310496 0.241776 0.750023 -0.419519
C38   C     C_3   0.381587 0.689210 0.637235 -0.447379
C39   C     C_3   0.810649 0.741969 0.750029 -0.420449
C40   C     C_3   0.892240 0.178768 0.609935 -0.420789
H9    H     H_    0.762314 0.875376 0.798445 0.212772
H10   H     H_    0.844114 0.043744 0.567213 0.208275
H11   H     H_    0.261860 0.375032 0.798830 0.211168
H12   H     H_    0.318954 0.568595 0.556288 0.210573
H13   H     H_    0.672549 0.789184 0.780424 0.244568
H14   H     H_    0.781292 0.102510 0.704913 0.226376
H15   H     H_    0.172287 0.288715 0.780230 0.244854
H16   H     H_    0.295618 0.589996 0.739681 0.225041
H17   H     H_    0.373059 0.262444 0.800373 0.206753
H18   H     H_    0.432185 0.681645 0.554754 0.190341
H19   H     H_    0.873296 0.762635 0.800146 0.207013
H20   H     H_    0.957640 0.156134 0.568701 0.205345
H21   H     H_    0.283671 0.176385 0.781632 0.261435
H22   H     H_    0.409659 0.700893 0.738577 0.273685
H23   H     H_    0.783737 0.676684 0.782071 0.260339
H24   H     H_    0.895846 0.214579 0.707147 0.277893
C41   C     C_R   0.423875 0.019362 0.073578 0.092276
C42   C     C_R   0.923362 0.517328 0.073505 0.090738
N1    N     N_R   0.499140 0.000000 0.142800 -0.124642
N2    N     N_R   0.999140 0.500000 0.142800 -0.124713
C43   C     C_R   0.576937 0.986950 0.068126 0.021108
C44   C     C_R   0.077112 0.488098 0.068135 0.022931
C45   C     C_R   0.576301 0.987820 0.924938 -0.083561
C46   C     C_R   0.076471 0.488915 0.924958 -0.087745
H25   H     H_    0.637457 0.977218 0.867756 0.140744
H26   H     H_    0.137787 0.479090 0.867794 0.140141
N3    N     N_R   0.499160 0.000000 0.857150 -0.101072
N4    N     N_R   0.999160 0.500000 0.857150 -0.105060
C47   C     C_R   0.423068 0.016672 0.931182 0.047934
C48   C     C_R   0.922725 0.515405 0.931023 0.046637
C49   C     C_3   0.337398 0.962963 0.936886 0.511429
C50   C     C_3   0.838021 0.460396 0.935242 0.504425
C51   C     C_3   0.337171 0.972054 0.090207 -0.553972
C52   C     C_3   0.838001 0.467309 0.089019 -0.546538
H27   H     H_    0.285596 0.016130 0.134332 0.211134
H28   H     H_    0.344016 0.908205 0.144475 0.230581
H29   H     H_    0.785351 0.509412 0.134838 0.212714
H30   H     H_    0.846521 0.403018 0.141524 0.236808
C53   C     C_2   0.662881 0.966993 0.131337 0.929863
O17   O     O_2   0.695882 0.018212 0.211296 -0.596660
O18   O     O_R   0.709745 0.891795 0.091298 -0.832021
H31   H     H_    0.768945 0.885727 0.138731 0.346469
C54   C     C_2   0.163168 0.468788 0.131408 0.929547
O19   O     O_2   0.196373 0.520844 0.209914 -0.596701
O20   O     O_R   0.209903 0.393172 0.092949 -0.830848
H32   H     H_    0.269199 0.387564 0.140250 0.346205
N5    N     N_R   0.263064 0.006428 0.868812 0.189204
O21   O     O_R   0.259441 0.004642 0.737875 -0.390445
O22   O     O_R   0.194717 0.036491 0.936705 -0.397793
N6    N     N_R   0.346728 0.870441 0.896215 0.210614
O23   O     O_R   0.423548 0.831171 0.904930 -0.424115
O24   O     O_R   0.275010 0.822074 0.885875 -0.373194
N7    N     N_R   0.762754 0.504112 0.869607 0.194027
O25   O     O_R   0.693182 0.529937 0.938907 -0.397961
O26   O     O_R   0.760010 0.507166 0.738623 -0.391031
N8    N     N_R   0.849773 0.369040 0.889474 0.211856
O27   O     O_R   0.782636 0.326275 0.838542 -0.360259
O28   O     O_R   0.921587 0.325586 0.919652 -0.421287

loop_
_geom_bond_atom_site_label_1
_geom_bond_atom_site_label_2
_geom_bond_distance
_ccdc_geom_bond_type
C30   C34   1.492683 S    
C35   C37   1.517748 S    
C39   H23   1.108743 S    
C27   C31   1.392626 A    
C54   O19   1.219461 D    
O10   C6    1.287821 A    
O3    C3    1.285668 A    
C12   C30   1.367942 A    
O7    C3    1.281904 A    
Zn1   O10   1.991517 S    
Zn1   N3    2.022290 S    
C12   C16   1.389030 A    
N8    O28   1.302245 A    
C3    C16   1.399818 S    
C18   H2    1.083189 S    
C24   H8    1.083740 S    
C49   N5    1.468262 S    
C42   N2    1.361371 A    
C45   H25   1.082277 S    
N5    O21   1.300357 A    
C9    C13   1.392068 A    
C46   N4    1.358049 A    
C34   H10   1.111736 S    
C52   H29   1.110176 S    
C50   N7    1.469626 S    
O2    Zn1   1.997358 S    
N6    O23   1.301930 A    
O6    Zn3   1.991832 S    
C44   C46   1.419489 A    
Zn3   O14   1.997146 S    
C9    C31   1.366823 A    
N5    O22   1.301655 A    
C10   C32   1.363475 A    
C53   O17   1.219473 D    
O15   C7    1.285673 A    
O4    C4    1.289973 A    
O11   C7    1.282245 A    
C18   C24   1.381805 A    
C19   C21   1.376639 A    
C21   C25   1.399784 A    
Zn4   O16   1.997146 S    
C17   H1    1.083821 S    
C53   O18   1.397939 S    
C43   C53   1.471996 S    
C44   C54   1.471722 S    
Zn2   N4    2.022290 S    
C47   C49   1.513911 S    
C8    C27   1.412193 S    
C41   N1    1.360951 A    
C38   H18   1.112518 S    
C37   H17   1.111592 S    
C10   C14   1.387096 A    
C40   H24   1.109984 S    
Zn2   O12   1.991517 S    
C16   C20   1.398417 A    
O1    C1    1.285436 A    
C5    C26   1.399539 S    
C25   C29   1.392612 A    
C7    C28   1.400698 S    
C19   H3    1.083926 S    
O12   C8    1.287805 A    
C33   H13   1.112353 S    
C13   C17   1.402148 A    
C28   C32   1.388471 A    
N4    C48   1.370448 A    
C50   N8    1.469608 S    
C36   C38   1.514588 S    
C15   C19   1.402124 A    
O5    C1    1.283041 A    
C38   H22   1.109418 S    
C33   C39   1.517786 S    
C37   H21   1.108545 S    
C21   H5    1.083584 S    
O8    C4    1.284320 A    
O5    Zn3   1.976155 S    
C22   C26   1.397527 A    
C46   H26   1.082408 S    
C36   H16   1.111910 S    
C39   H19   1.111590 S    
C54   O20   1.397884 S    
C4    C15   1.413369 S    
N7    O25   1.301808 A    
C10   C38   1.496093 S    
O3    Zn2   1.986663 S    
C9    C37   1.494256 S    
O7    Zn4   1.976155 S    
C49   C51   1.526683 S    
C50   C52   1.528467 S    
C35   H11   1.111435 S    
Zn4   O15   1.986452 S    
C48   C50   1.512157 S    
N1    C43   1.385640 A    
C1    C14   1.401794 S    
C11   C15   1.392088 A    
C17   C23   1.376575 A    
C20   C22   1.385892 A    
C40   H20   1.111719 S    
C42   C52   1.486330 S    
C6    C25   1.412218 S    
C41   C51   1.484540 S    
C23   C27   1.399728 A    
O20   H32   1.013913 S    
C26   C30   1.387725 A    
C33   H9    1.111397 S    
C24   C28   1.397514 A    
O13   C5    1.282616 A    
C14   C18   1.400078 A    
Zn2   O11   1.975840 S    
O16   C8    1.285831 A    
N2    C44   1.385257 A    
O6    C2    1.284263 A    
C23   H7    1.083596 S    
N3    C47   1.370603 A    
C29   C33   1.494141 S    
Zn1   O9    1.975840 S    
C51   H28   1.110954 S    
C22   H6    1.083916 S    
C31   C35   1.494164 S    
C51   H27   1.110088 S    
C12   C40   1.494023 S    
C32   C36   1.493968 S    
O9    C5    1.284760 A    
C11   C29   1.366725 A    
O18   H31   1.013918 S    
C49   N6    1.467576 S    
Zn3   O13   1.986452 S    
C35   H15   1.112353 S    
C52   H30   1.111439 S    
C2    C13   1.413484 S    
C34   C40   1.519593 S    
C36   H12   1.112575 S    
O4    Zn2   1.997358 S    
C42   C48   1.413040 A    
N6    O24   1.301024 A    
N7    O26   1.300355 A    
C41   C47   1.412579 A    
C11   C39   1.494420 S    
C45   N3    1.357972 A    
C20   H4    1.084009 S    
O1    Zn1   1.986664 S    
O8    Zn4   1.991832 S    
C43   C45   1.419599 A    
O14   C6    1.285818 A    
Zn3   N1    2.023179 S    
Zn4   N2    2.023179 S    
C34   H14   1.112431 S    
N8    O27   1.301534 A    
O2    C2    1.290075 A    
