data_mof_unit_33448.cif
_audit_creation_date              2012-12-11T16:10:50-0500
_audit_creation_method            fapswitch 2.2
_symmetry_space_group_name_H-M    P1
_symmetry_Int_Tables_number       1
_space_group_crystal_system       triclinic
_cell_length_a                    12.83783
_cell_length_b                    13.314817
_cell_length_c                    26.932996
_cell_angle_alpha                 97.383729
_cell_angle_beta                  90.157143
_cell_angle_gamma                 118.72004
_cell_volume                      3992.88127981

loop_
_atom_site_label
_atom_site_type_symbol
_atom_type_description
_atom_site_fract_x
_atom_site_fract_y
_atom_site_fract_z
_atom_type_partial_charge
C1    C     C_R   0.627956 0.894705 0.424376 0.542895
C2    C     C_1   0.139443 0.823717 0.179549 -0.027315
C3    C     C_1   0.159476 0.836602 0.231915 0.008238
C4    C     C_R   0.602028 0.223902 0.443371 0.540013
C5    C     C_1   0.173866 0.843621 0.276608 0.006147
C6    C     C_1   0.193995 0.850661 0.328611 -0.033182
C7    C     C_1   0.220298 0.859151 0.372403 0.003528
C8    C     C_1   0.688953 0.799604 0.136066 0.037465
C9    C     C_1   0.672236 0.809489 0.179893 0.012262
C10   C     C_1   0.660912 0.818103 0.231994 0.026300
C11   C     C_1   0.655221 0.826544 0.276759 -0.007481
C12   C     C_R   0.617116 0.391777 0.236449 0.231837
C13   C     C_1   0.649971 0.841478 0.329178 -0.060981
C14   C     C_1   0.643039 0.861231 0.373507 -0.014421
C15   C     C_1   0.692697 0.380762 0.875356 0.055968
C16   C     C_R   0.268283 0.875596 0.422523 0.545045
C17   C     C_1   0.683376 0.351915 0.830697 0.031638
C18   C     C_1   0.674866 0.329906 0.777938 0.047727
C19   C     C_1   0.666483 0.315307 0.732808 0.030918
C20   C     C_1   0.652326 0.296537 0.680037 -0.006541
C21   C     C_1   0.634042 0.272188 0.635164 0.020642
C22   C     C_1   0.213673 0.862326 0.608238 0.055685
C23   C     C_R   0.618069 0.386495 0.288364 0.229512
C24   C     C_R   0.199525 0.769680 0.723244 0.213745
C25   C     C_R   0.188661 0.760068 0.774425 0.187709
C26   C     C_R   0.126340 0.909698 0.784373 0.219005
C27   C     C_R   0.119554 0.904998 0.731399 0.215258
C28   C     C_R   0.630415 0.899089 0.564084 0.545795
C29   C     C_R   0.161877 0.838736 0.701804 -0.050531
C30   C     C_R   0.155391 0.832676 0.804993 -0.067036
C31   C     C_1   0.136255 0.817221 0.856589 0.134887
C32   C     C_1   0.182783 0.850540 0.650016 0.085378
C33   C     C_1   0.109085 0.797351 0.898179 0.110155
C34   C     C_R   0.678834 0.335436 0.308780 -0.047831
C35   C     C_1   0.647783 0.868703 0.610918 0.017212
C36   C     C_R   0.676084 0.930987 0.741310 -0.121271
C37   C     C_R   0.672618 0.919158 0.792553 0.276634
C38   C     C_R   0.613833 0.714112 0.768749 0.250201
C39   C     C_R   0.622450 0.729173 0.718256 -0.076486
C40   C     C_R   0.602756 0.226748 0.583072 0.544445
C41   C     C_R   0.654707 0.837353 0.704756 -0.052115
C42   C     C_R   0.640247 0.809803 0.805927 0.074794
C43   C     C_1   0.652261 0.800390 0.857844 0.126050
C44   C     C_1   0.654416 0.851063 0.653028 -0.032828
C45   C     C_R   0.685908 0.354510 0.206466 -0.061100
C46   C     C_1   0.673142 0.790463 0.899804 0.085726
C47   C     C_R   0.065259 0.771752 0.084176 0.546660
C48   C     C_R   0.715971 0.438563 0.066601 0.545512
C49   C     C_R   0.720149 0.782442 0.086024 0.545774
C50   C     C_R   0.059817 0.764888 0.944390 0.551387
C51   C     C_R   0.709291 0.431427 0.926807 0.555475
C52   C     C_R   0.267809 0.879422 0.561890 0.538417
C53   C     C_R   0.712093 0.775509 0.946425 0.549422
C54   C     C_1   0.637943 0.277071 0.399289 0.020425
C55   C     C_R   0.745271 0.296654 0.278655 0.237682
C56   C     C_1   0.694740 0.369316 0.154432 0.074636
C57   C     C_R   0.753937 0.312036 0.227917 0.228676
C58   C     C_3   0.739535 0.128204 0.289949 -0.072805
C59   C     C_3   0.794715 0.113422 0.823147 -0.076178
C60   C     C_3   0.940678 0.370707 0.203541 -0.078459
C61   C     C_3   0.629328 0.538679 0.341212 -0.060012
C62   C     C_3   0.364661 0.769595 0.693574 -0.052378
C63   C     C_1   0.660641 0.309398 0.359150 0.035358
C64   C     C_1   0.703207 0.393019 0.112592 0.061803
C65   C     C_1   0.113232 0.805355 0.135180 0.010271
Cr1   Cr    Cr6+3 0.416010 0.828400 0.490230 1.052386
Cr2   Cr    Cr6+3 0.676380 0.087280 0.505260 1.061657
Cr3   Cr    Cr6+3 0.407590 0.084280 0.504540 1.075299
Cr4   Cr    Cr6+3 0.914090 0.832340 0.018020 1.075740
Cr5   Cr    Cr6+3 0.923310 0.576840 0.003860 1.071298
Cr6   Cr    Cr6+3 0.654200 0.573160 0.004700 1.113228
H1    H     H_    0.603069 0.656754 0.689353 0.184746
H2    H     H_    0.980014 0.391615 0.242833 0.163977
H3    H     H_    0.945287 0.449125 0.190954 0.104982
H4    H     H_    0.995810 0.344560 0.179269 0.160185
H5    H     H_    0.416350 0.516823 0.232028 0.358956
H6    H     H_    0.668873 0.597213 0.312485 0.150249
H7    H     H_    0.700986 0.544102 0.366575 0.094458
H8    H     H_    0.576502 0.570126 0.364312 0.158946
H9    H     H_    0.407132 0.787667 0.732085 0.168105
H10   H     H_    0.394224 0.852111 0.678266 0.085380
H11   H     H_    0.396255 0.717369 0.669366 0.165088
H12   H     H_    0.694629 0.012473 0.729652 0.112715
H13   H     H_    0.156606 0.512464 0.741615 0.370039
H14   H     H_    0.150582 0.090203 0.903467 0.372540
H15   H     H_    0.930485 0.038474 0.718525 0.358050
H16   H     H_    0.652051 0.096731 0.306707 0.105826
H17   H     H_    0.788735 0.091084 0.307661 0.155049
H18   H     H_    0.726155 0.095673 0.249002 0.160191
H19   H     H_    0.870106 0.099025 0.811202 0.192349
H20   H     H_    0.824848 0.172309 0.859464 0.162846
H21   H     H_    0.773089 0.158015 0.796005 0.109145
H22   H     H_    0.485188 0.400226 0.745492 0.383790
O1    O     O_R   0.294740 0.800910 0.434410 -0.499316
O2    O     O_R   0.635480 0.460400 0.052590 -0.468652
O3    O     O_R   0.662650 0.681410 0.060750 -0.480063
O4    O     O_R   0.526010 0.837250 0.440870 -0.492118
O5    O     O_R   0.814500 0.852290 0.965490 -0.495363
O6    O     O_R   0.013160 0.821640 0.966980 -0.488410
O7    O     O_R   0.038850 0.666600 0.954370 -0.478567
O8    O     O_R   0.813260 0.476410 0.948680 -0.496050
O9    O     O_R   0.630060 0.454430 0.944230 -0.474199
O10   O     O_R   0.657630 0.675880 0.960300 -0.477363
O11   O     O_3   0.830530 0.660780 0.008860 -0.276117
O12   O     O_R   0.664100 0.185180 0.560770 -0.496546
O13   O     O_R   0.704290 0.994500 0.446090 -0.496901
O14   O     O_R   0.662870 0.181760 0.460430 -0.491817
O15   O     O_R   0.498970 0.199080 0.457120 -0.494814
O16   O     O_R   0.309350 0.975930 0.448180 -0.489574
O17   O     O_R   0.296060 0.804610 0.542650 -0.501964
O18   O     O_R   0.527240 0.840670 0.541200 -0.499783
O19   O     O_R   0.705610 0.998200 0.554330 -0.491323
O20   O     O_3   0.807701 0.249930 0.299580 -0.542685
O21   O     O_3   0.692519 0.009672 0.830273 -0.559936
O22   O     O_2   0.679986 0.580462 0.810213 -0.296607
O23   O     O_R   0.500290 0.202770 0.565360 -0.487729
O24   O     O_2   0.475521 0.543853 0.819984 -0.213273
O25   O     O_3   0.526019 0.475642 0.732886 -0.515288
O26   O     O_3   0.822912 0.278142 0.198462 -0.548417
O27   O     O_2   0.615988 0.555511 0.189250 -0.323415
O28   O     O_2   0.452477 0.358254 0.165468 -0.258535
O29   O     O_3   0.446588 0.473830 0.249486 -0.462854
O30   O     O_3   0.552839 0.423570 0.318737 -0.489162
O31   O     O_3   0.239477 0.705368 0.692770 -0.526168
O32   O     O_2   0.331285 0.726192 0.834733 -0.242536
O33   O     O_2   0.118809 0.588547 0.830962 -0.280274
O34   O     O_R   0.310570 0.979360 0.548520 -0.484246
O35   O     O_3   0.237912 0.568705 0.756566 -0.424177
O36   O     O_2   0.135346 0.119878 0.803698 -0.185147
O37   O     O_2   0.971221 0.955317 0.835476 -0.275368
O38   O     O_3   0.182374 0.048561 0.880709 -0.533130
O39   O     O_2   0.152729 0.098541 0.697885 -0.234187
O40   O     O_2   0.005004 0.915583 0.649058 -0.287910
O41   O     O_3   0.946246 0.982092 0.733147 -0.463365
O42   O     O_3   0.499990 0.999990 0.500010 -0.269723
O43   O     O_R   0.819910 0.858260 0.073860 -0.505008
O44   O     O_R   0.018180 0.827180 0.067430 -0.489540
O45   O     O_R   0.044260 0.672570 0.062730 -0.504960
O46   O     O_R   0.818270 0.481940 0.049130 -0.508621
S1    S     S_3+6 0.573307 0.575838 0.784635 0.038326
S2    S     S_3+6 0.531758 0.445952 0.208741 0.031036
S3    S     S_3+6 0.219330 0.659445 0.800551 0.054269
S4    S     S_3+6 0.101026 0.011002 0.825745 0.063189
S5    S     S_3+6 0.056428 0.977378 0.701188 0.071791

loop_
_geom_bond_atom_site_label_1
_geom_bond_atom_site_label_2
_ccdc_geom_bond_type
O39   S5    D    
Cr6   O11   S    
H13   O35   S    
C48   O2    A    
C27   C29   A    
C25   S3    S    
C2    C65   T    
C58   H16   S    
C62   O31   S    
Cr5   O8    S    
C39   C41   A    
C28   O19   A    
C51   O9    A    
C4    O15   A    
C12   C23   A    
C45   C57   A    
C26   C27   A    
C22   C32   T    
C5    C6    S    
Cr1   O4    S    
C62   H9    S    
C36   C37   A    
C53   O10   A    
C38   C42   A    
C29   C32   S    
C30   C31   S    
Cr5   O11   S    
C48   C64   S    
Cr6   O2    S    
C54   C63   T    
C36   H12   S    
C60   H2    S    
C24   O31   S    
C12   S2    S    
C46   C53   S    
C60   O26   S    
C18   C19   T    
C37   C42   A    
C24   C29   A    
H15   O41   S    
C19   C20   S    
C45   C56   S    
C61   H6    S    
C8    C9    T    
C58   O20   S    
C39   H1    S    
C31   C33   T    
C15   C51   S    
Cr1   O18   S    
C9    C10   S    
O32   S3    D    
C1    O13   A    
C57   O26   S    
Cr4   O5    S    
C62   H11   S    
C34   C55   A    
C13   C14   T    
C36   C41   A    
O25   S1    S    
C43   C46   T    
C52   O34   A    
Cr5   O7    S    
C16   O16   A    
C27   S5    S    
C28   O18   A    
Cr4   O44   S    
C38   C39   A    
C4    O14   A    
O28   S2    D    
C1    C14   S    
C24   C25   A    
C28   C35   S    
C1    O4    A    
Cr2   O12   S    
C23   O30   S    
Cr6   O3    S    
C55   O20   S    
C33   C50   S    
O33   S3    D    
C59   H19   S    
Cr2   O42   S    
C35   C44   T    
C52   O17   A    
C61   H7    S    
C23   C34   A    
C47   O44   A    
C56   C64   T    
C17   C18   S    
C50   O6    A    
C59   H20   S    
Cr1   O17   S    
O37   S4    D    
Cr3   O34   S    
Cr3   O23   S    
O36   S4    D    
Cr4   O6    S    
C7    C16   S    
C62   H10   S    
Cr5   O45   S    
Cr4   O43   S    
C55   C57   A    
C41   C44   S    
O24   S1    D    
H22   O25   S    
C26   S4    S    
O38   S4    S    
C22   C52   S    
Cr4   O11   S    
C25   C30   A    
C15   C17   T    
Cr6   O10   S    
O40   S5    D    
C48   O46   A    
C4    C54   S    
C50   O7    A    
Cr6   O9    S    
Cr3   O42   S    
O27   S2    D    
C12   C45   A    
C3    C5    T    
C58   H17   S    
C49   O43   A    
Cr2   O13   S    
C26   C30   A    
C6    C7    T    
C37   O21   S    
C53   O5    A    
C51   O8    A    
C60   H4    S    
C16   O1    A    
Cr1   O1    S    
C61   O30   S    
H5    O29   S    
C2    C3    S    
H14   O38   S    
C11   C13   S    
Cr2   O14   S    
C40   O23   A    
C21   C40   S    
C61   H8    S    
C59   O21   S    
C47   O45   A    
C60   H3    S    
C34   C63   S    
Cr3   O16   S    
C49   O3    A    
C58   H18   S    
C10   C11   T    
O41   S5    S    
Cr1   O42   S    
Cr2   O19   S    
Cr5   O46   S    
C20   C21   T    
C42   C43   S    
C38   S1    S    
C59   H21   S    
Cr3   O15   S    
O29   S2    S    
O22   S1    D    
O35   S3    S    
C8    C49   S    
C47   C65   S    
C40   O12   A    
