data_mof_unit_55211.cif
_audit_creation_date              2013-03-05T16:04:39-0500
_audit_creation_method            fapswitch 2.2
_symmetry_space_group_name_H-M    P1
_symmetry_Int_Tables_number       1
_space_group_crystal_system       triclinic
_cell_length_a                    9.577802
_cell_length_b                    10.811043
_cell_length_c                    15.242271
_cell_angle_alpha                 87.697266
_cell_angle_beta                  75.358242
_cell_angle_gamma                 88.952295
_cell_volume                      1525.73538542

loop_
_atom_site_label
_atom_site_type_symbol
_atom_site_description
_atom_site_fract_x
_atom_site_fract_y
_atom_site_fract_z
_atom_type_partial_charge
O1    O     O_R   0.118740 0.319660 0.500000 -0.576426
O2    O     O_R   0.881260 0.680340 0.500000 -0.576426
O3    O     O_R   0.881170 0.319630 0.500010 -0.588595
O4    O     O_R   0.118830 0.680370 0.499990 -0.588595
C1    C     C_R   0.000577 0.262249 0.500358 0.803136
C2    C     C_R   0.999423 0.737751 0.499642 0.803139
O5    O     O_R   0.055570 0.500030 0.629830 -0.503340
O6    O     O_R   0.944430 0.499970 0.370170 -0.503331
O7    O     O_R   0.818000 0.500000 0.629840 -0.597494
O8    O     O_R   0.182000 0.500000 0.370160 -0.597494
C3    C     C_R   0.919672 0.501733 0.673224 0.821736
C4    C     C_R   0.080328 0.498266 0.326776 0.821738
Cu1   Cu    Cu3+1 0.140660 0.500020 0.500000 1.016710
Cu2   Cu    Cu3+1 0.859340 0.499980 0.500000 1.016712
C5    C     C_R   0.877151 0.497387 0.774302 -0.118502
C6    C     C_R   0.122847 0.502606 0.225698 -0.118504
C7    C     C_R   0.912282 0.422118 0.919502 -0.195998
C8    C     C_R   0.087718 0.577867 0.080495 -0.195995
C9    C     C_R   0.971898 0.462780 0.829536 -0.022540
C10   C     C_R   0.028099 0.537208 0.170462 -0.022545
C11   C     C_R   0.731023 0.517630 0.816708 -0.243374
C12   C     C_R   0.268975 0.482362 0.183292 -0.243374
C13   C     C_R   0.673939 0.491488 0.909988 0.102304
C14   C     C_R   0.326060 0.508502 0.090012 0.102305
C15   C     C_R   0.762526 0.426323 0.958087 0.066004
C16   C     C_R   0.237473 0.573666 0.041913 0.065985
C17   C     C_R   0.529447 0.522929 0.955071 0.055641
C18   C     C_R   0.470552 0.477061 0.044929 0.055640
C19   C     C_R   0.554618 0.395119 0.085377 -0.251484
C20   C     C_R   0.445382 0.604872 0.914623 -0.251480
C21   C     C_R   0.699124 0.368783 0.043526 -0.045692
C22   C     C_R   0.300876 0.631207 0.956474 -0.045715
H1    H     H_    0.339379 0.452410 0.225323 0.164486
H2    H     H_    0.660619 0.547583 0.774678 0.164487
H3    H     H_    0.984463 0.392180 0.960627 0.193246
H4    H     H_    0.015538 0.607803 0.039369 0.193262
H5    H     H_    0.506887 0.345465 0.148311 0.190023
H6    H     H_    0.493113 0.654528 0.851691 0.190027
C23   C     C_R   0.869305 0.064885 0.524141 -0.148616
C24   C     C_R   0.130694 0.935115 0.475859 -0.148616
H7    H     H_    0.767123 0.113916 0.543633 0.172538
H8    H     H_    0.232876 0.886084 0.456367 0.172537
C25   C     C_R   0.868585 0.936941 0.523658 -0.162720
C26   C     C_R   0.131415 0.063058 0.476341 -0.162720
H9    H     H_    0.766351 0.889245 0.543415 0.183156
H10   H     H_    0.233649 0.110755 0.456584 0.183154
C27   C     C_R   0.999203 0.871693 0.499378 -0.029418
C28   C     C_R   0.000797 0.128307 0.500622 -0.029417
C29   C     C_R   0.561804 0.405512 0.540929 -0.048180
C30   C     C_R   0.438196 0.594487 0.459071 -0.048181
H11   H     H_    0.607606 0.331068 0.574631 0.153167
H12   H     H_    0.392394 0.668931 0.425369 0.153167
C31   C     C_R   0.413767 0.404452 0.541694 0.101151
C32   C     C_R   0.586233 0.595548 0.458306 0.101162
N1    N     N_R   0.352080 0.500030 0.499980 -0.198252
N2    N     N_R   0.647920 0.499970 0.500020 -0.198249
C33   C     C_2   0.773570 0.270246 0.086941 0.860132
O9    O     O_2   0.874492 0.211162 0.041600 -0.562382
O10   O     O_R   0.721674 0.239168 0.179332 -0.725980
H13   H     H_    0.779281 0.169818 0.200659 0.353446
C34   C     C_2   0.226432 0.729747 0.913061 0.860155
O11   O     O_2   0.125504 0.788826 0.958402 -0.562380
O12   O     O_R   0.278334 0.760835 0.820672 -0.725975
H14   H     H_    0.220728 0.830188 0.799346 0.353448
C35   C     C_2   0.868394 0.530896 0.201166 0.902900
O13   O     O_2   0.810244 0.446638 0.252455 -0.551526
O14   O     O_R   0.783755 0.617468 0.166667 -0.738094
H15   H     H_    0.676544 0.601913 0.190825 0.332956
C36   C     C_2   0.131602 0.469092 0.798830 0.902904
O15   O     O_2   0.189750 0.553368 0.747557 -0.551535
O16   O     O_R   0.216244 0.382501 0.833304 -0.738079
H16   H     H_    0.323454 0.398064 0.809158 0.332950
C37   C     C_2   0.333009 0.295606 0.588573 0.838618
O17   O     O_2   0.218182 0.307951 0.644534 -0.554707
O18   O     O_R   0.394293 0.177562 0.572883 -0.792919
H17   H     H_    0.331287 0.110116 0.610170 0.344879
C38   C     C_2   0.666992 0.704393 0.411426 0.838613
O19   O     O_2   0.781818 0.692047 0.355464 -0.554720
O20   O     O_R   0.605709 0.822438 0.427116 -0.792919
H18   H     H_    0.668716 0.889883 0.389828 0.344877

loop_
_geom_bond_atom_site_label_1
_geom_bond_atom_site_label_2
_geom_bond_distance
_ccdc_geom_bond_type
C15   C21   1.414427 A    
C24   C27   1.402965 A    
Cu2   N2    2.024863 S    
C16   C22   1.414427 A    
C37   O17   1.218377 D    
C31   N1    1.391348 A    
C8    C16   1.406608 A    
O7    Cu2   1.917634 S    
O5    Cu1   1.940343 S    
C23   H7    1.083393 S    
C38   O19   1.218377 D    
O5    C3    1.302641 A    
C30   C32   1.415217 A    
O1    C1    1.299386 A    
C18   C19   1.412143 A    
C14   C16   1.415908 A    
C22   C34   1.495078 S    
C33   O10   1.399050 S    
C20   H6    1.078525 S    
C36   O16   1.399192 S    
O4    Cu1   1.957143 S    
C34   O12   1.399049 S    
C3    C5    1.489753 S    
C4    C6    1.489755 S    
C35   O14   1.399239 S    
C30   H12   1.082521 S    
C13   C17   1.422589 A    
C34   O11   1.222760 D    
C6    C10   1.421544 A    
C32   C38   1.476438 S    
C24   H8    1.083393 S    
O10   H13   1.013993 S    
Cu1   Cu2   2.694436 S    
C17   C20   1.412144 A    
C37   O18   1.398759 S    
O2    C2    1.299386 A    
C26   H10   1.082726 S    
C38   O20   1.398762 S    
C1    C28   1.447860 S    
C32   N2    1.391347 A    
C2    C27   1.447860 S    
O14   H15   1.014136 S    
C10   C35   1.484174 S    
O4    C2    1.292154 A    
C23   C25   1.383671 A    
C11   H2    1.078763 S    
O6    Cu2   1.940343 S    
C29   H11   1.082521 S    
O20   H18   1.014027 S    
C5    C9    1.421535 A    
O18   H17   1.014027 S    
O7    C3    1.308860 A    
C5    C11   1.402623 A    
O6    C4    1.302638 A    
C25   H9    1.082726 S    
O3    Cu2   1.957143 S    
O8    C4    1.308863 A    
C11   C13   1.407365 A    
C12   C14   1.407365 A    
C9    C36   1.484164 S    
O1    Cu1   1.964963 S    
C12   H1    1.078763 S    
C6    C12   1.402627 A    
C31   C37   1.476437 S    
C14   C18   1.422590 A    
O3    C1    1.292155 A    
O8    Cu1   1.917636 S    
C29   N2    1.353351 A    
C30   N1    1.353350 A    
C7    C15   1.406611 A    
C21   C33   1.495075 S    
O16   H16   1.014128 S    
C19   C21   1.399072 A    
C20   C22   1.399071 A    
C33   O9    1.222758 D    
C8    H4    1.081767 S    
C29   C31   1.415216 A    
C7    C9    1.401647 A    
C8    C10   1.401649 A    
C13   C15   1.415910 A    
C36   O15   1.221617 D    
O2    Cu2   1.964963 S    
O12   H14   1.013994 S    
C24   C26   1.383671 A    
C35   O13   1.221605 D    
C19   H5    1.078526 S    
C17   C18   1.416008 A    
C7    H3    1.081767 S    
C25   C27   1.397956 A    
C26   C28   1.397956 A    
C23   C28   1.402964 A    
Cu1   N1    2.024862 S    
