data_mof_unit_45061.cif
_audit_creation_date              2012-12-11T20:10:12-0500
_audit_creation_method            fapswitch 2.2
_symmetry_space_group_name_H-M    P1
_symmetry_Int_Tables_number       1
_space_group_crystal_system       triclinic
_cell_length_a                    8.312082
_cell_length_b                    16.28808
_cell_length_c                    18.746936
_cell_angle_alpha                 111.746508
_cell_angle_beta                  91.721616
_cell_angle_gamma                 84.050601
_cell_volume                      2344.68202146

loop_
_atom_site_label
_atom_site_type_symbol
_atom_type_description
_atom_site_fract_x
_atom_site_fract_y
_atom_site_fract_z
_atom_type_partial_charge
Ba1   Ba    Ba6+2 0.333520 0.539550 0.472180 1.627637
Ba2   Ba    Ba6+2 0.856270 0.460520 0.527840 1.609024
C1    C     C_3   0.010885 0.846411 0.315742 -0.172311
C2    C     C_3   0.979614 0.752242 0.306733 0.317292
C3    C     C_3   0.042362 0.328605 0.282050 0.292440
C4    C     C_3   0.025306 0.303443 0.195593 -0.422869
C5    C     C_3   0.717436 0.273797 0.689653 0.347174
C6    C     C_3   0.756551 0.243130 0.758043 -0.056944
C7    C     C_3   0.157468 0.240555 0.650203 0.350167
C8    C     C_3   0.121796 0.148954 0.646320 -0.387930
C9    C     C_R   0.504776 0.465106 0.042654 0.006022
C10   C     C_R   0.423737 0.423334 0.082478 0.040305
C11   C     C_R   0.277832 0.387827 0.053571 -0.085684
C12   C     C_3   0.530326 0.715044 0.307540 0.405493
C13   C     C_R   0.213484 0.393141 0.985480 -0.090704
C14   C     C_R   0.294880 0.433026 0.944324 0.029836
C15   C     C_R   0.440469 0.469747 0.973099 0.013039
C16   C     C_R   0.233446 0.435577 0.874567 -0.108868
C17   C     C_R   0.317112 0.472312 0.830903 -0.053799
C18   C     C_R   0.463128 0.510018 0.859822 -0.004486
C19   C     C_R   0.523150 0.509413 0.931683 -0.008222
C20   C     C_R   0.257498 0.473782 0.759823 0.032772
C21   C     C_R   0.338365 0.516988 0.720778 -0.230867
C22   C     C_R   0.494276 0.543630 0.742923 0.048497
C23   C     C_3   0.511881 0.736455 0.235169 -0.377384
C24   C     C_R   0.551957 0.545933 0.816353 -0.052789
C25   C     C_R   0.650514 0.501240 0.071890 -0.010170
C26   C     C_R   0.711330 0.499698 0.143280 0.005039
C27   C     C_R   0.626732 0.459701 0.184965 -0.053963
C28   C     C_R   0.487639 0.418495 0.151111 -0.060721
C29   C     C_R   0.693263 0.585302 0.849109 -0.053584
C30   C     C_R   0.755068 0.582577 0.918754 0.030296
C31   C     C_R   0.670257 0.544338 0.960343 0.002480
C32   C     C_R   0.733818 0.540344 0.030232 0.014004
C33   C     C_R   0.902737 0.616363 0.946798 -0.088259
C34   C     C_3   0.702113 0.746809 0.713043 0.388382
C35   C     C_R   0.965592 0.612338 0.015599 -0.092931
C36   C     C_R   0.881550 0.574980 0.058007 0.036098
C37   C     C_R   0.855787 0.538905 0.172842 -0.044860
C38   C     C_R   0.942266 0.573036 0.128086 -0.119609
C39   C     C_R   0.907104 0.544726 0.247090 -0.028334
C40   C     C_R   0.816440 0.510788 0.289924 -0.275188
C41   C     C_R   0.681867 0.464578 0.259536 0.029087
C42   C     C_2   0.433049 0.227191 0.446882 -0.229751
C43   C     C_R   0.796100 0.752319 0.520312 -0.267800
C44   C     C_2   0.234788 0.117112 0.403833 -0.137905
C45   C     C_3   0.784234 0.769674 0.791540 -0.329513
C46   C     C_2   0.270326 0.200035 0.417581 0.032281
C47   C     C_2   0.531483 0.178166 0.478110 0.046939
C48   C     C_3   0.474577 0.092951 0.480223 -0.055139
C49   C     C_3   0.361172 0.049530 0.413959 0.011132
C50   C     C_2   0.607208 0.025183 0.485180 -0.026422
C51   C     C_2   0.586269 0.970993 0.523294 0.062652
C52   C     C_R   0.862136 0.927527 0.555780 -0.012560
C53   C     C_R   0.713430 0.900995 0.523147 -0.042341
C54   C     C_R   0.975686 0.867700 0.571703 -0.135065
C55   C     C_R   0.939276 0.781169 0.557589 0.067629
C56   C     C_3   0.497202 0.251853 0.238255 0.269273
C57   C     C_R   0.681172 0.811538 0.503358 -0.015419
C58   C     C_3   0.574805 0.204724 0.158632 -0.216683
C59   C     C_3   0.190026 0.794904 0.731848 0.250576
C60   C     C_3   0.112182 0.890702 0.761359 -0.438115
H1    H     H_    0.924558 0.755082 0.361175 -0.009033
H2    H     H_    0.878428 0.715806 0.790345 0.103067
H3    H     H_    0.843929 0.831484 0.807212 0.091159
H4    H     H_    0.694009 0.779774 0.837328 0.086899
H5    H     H_    0.386182 0.293307 0.234857 0.015737
H6    H     H_    0.454803 0.201150 0.257871 0.041097
H7    H     H_    0.638082 0.252241 0.142612 0.089103
H8    H     H_    0.478565 0.180215 0.115749 0.070465
H9    H     H_    0.300013 0.789430 0.698219 0.097483
H10   H     H_    0.235543 0.779528 0.782266 0.041631
H11   H     H_    0.063547 0.879950 0.373247 0.127262
H12   H     H_    0.204674 0.936419 0.764358 0.081253
H13   H     H_    0.894842 0.726549 0.258414 -0.002494
H14   H     H_    0.922135 0.353492 0.309740 0.038676
H15   H     H_    0.930666 0.257343 0.173568 0.123416
H16   H     H_    0.991527 0.363211 0.181573 0.068678
H17   H     H_    0.141224 0.270323 0.165934 0.106382
H18   H     H_    0.099070 0.843937 0.271369 0.125841
H19   H     H_    0.562121 0.800032 0.244265 0.109300
H20   H     H_    0.810306 0.314718 0.685124 0.115277
H21   H     H_    0.603456 0.317919 0.700242 -0.022225
H22   H     H_    0.888716 0.227055 0.760351 0.135035
H23   H     H_    0.107526 0.246307 0.596493 0.105575
H24   H     H_    0.167759 0.098725 0.591145 0.080644
H25   H     H_    0.990624 0.143698 0.645408 0.149761
H26   H     H_    0.472858 0.653081 0.297343 0.094479
H27   H     H_    0.212872 0.356209 0.083845 0.061632
H28   H     H_    0.100593 0.365230 0.964611 0.070089
H29   H     H_    0.119113 0.409114 0.855323 0.111668
H30   H     H_    0.422668 0.384867 0.178515 0.080788
H31   H     H_    0.758982 0.617555 0.820707 0.088239
H32   H     H_    0.970508 0.645301 0.915121 0.058748
H33   H     H_    0.079983 0.638732 0.035764 0.070161
H34   H     H_    0.055892 0.600182 0.147858 0.096147
H35   H     H_    0.661171 0.704101 0.318671 -0.117949
H36   H     H_    0.856156 0.516786 0.346972 0.067563
H37   H     H_    0.118624 0.096190 0.379959 0.084743
H38   H     H_    0.088158 0.890427 0.598524 0.088742
H39   H     H_    0.770730 0.684584 0.507865 0.076069
H40   H     H_    0.718324 0.016631 0.453262 0.061798
H41   H     H_    0.577648 0.682950 0.186673 0.072123
H42   H     H_    0.382083 0.742266 0.220135 0.136496
O1    O     O_2   0.402610 0.439360 0.314250 -0.488257
O2    O     O_3   0.077777 0.733258 0.693677 -0.656060
O3    O     O_3   0.454043 0.785914 0.369183 -0.585487
O4    O     O_2   0.787080 0.560670 0.685800 -0.482881
O5    O     O_3   0.541120 0.553770 0.595290 -0.477363
O6    O     O_3   0.080800 0.396070 0.612520 -0.490930
O7    O     O_3   0.566812 0.702239 0.711908 -0.654450
O8    O     O_3   0.164600 0.390590 0.443970 -0.497138
O9    O     O_3   0.682580 0.347920 0.567870 -0.504289
O10   O     O_2   0.864606 0.192116 0.500268 -0.490904
O11   O     O_3   0.711339 0.199686 0.621057 -0.635095
O12   O     O_3   0.648560 0.446300 0.404730 -0.473635
O13   O     O_3   0.025080 0.609480 0.556050 -0.478505
O14   O     O_2   0.948320 0.280590 0.426090 -0.441759
O15   O     O_3   0.103947 0.252978 0.296281 -0.648307
O16   O     O_2   0.922333 0.460282 0.746379 -0.502097
O17   O     O_3   0.084846 0.306382 0.716432 -0.630202
O18   O     O_3   0.108870 0.604000 0.387500 -0.455701
O19   O     O_2   0.244260 0.533665 0.250918 -0.488329
O20   O     O_3   0.612294 0.296907 0.291317 -0.639682
O21   O     O_3   0.126537 0.697850 0.290493 -0.590092
O22   O     O_2   0.241370 0.719440 0.573960 -0.462421
O23   O     O_3   0.507090 0.652150 0.432150 -0.477202
O24   O     O_2   0.340299 0.806671 0.502959 -0.475723
P1    P     P_3+3 0.582960 0.413890 0.320860 0.954563
P2    P     P_3+3 0.071690 0.707860 0.593450 0.961961
P3    P     P_3+3 0.495114 0.766262 0.453939 0.978559
P4    P     P_3+3 0.606720 0.586180 0.679160 0.971659
P5    P     P_3+3 0.699371 0.230981 0.540858 0.925222
P6    P     P_3+3 0.093904 0.594215 0.292103 0.950472
P7    P     P_3+3 0.122685 0.279714 0.395354 0.939885
P8    P     P_3+3 0.085530 0.411197 0.710048 0.909609
C61   C     C_3   0.694933 0.125999 0.156008 -0.396155
H43   H     H_    0.789794 0.147769 0.200144 0.161920
H44   H     H_    0.631208 0.074750 0.166411 0.114687
H45   H     H_    0.753922 0.095892 0.098521 0.113965
H46   H     H_    0.013674 0.900279 0.723467 0.108346
H47   H     H_    0.062314 0.909176 0.820087 0.104792
C62   C     C_3   0.855073 0.900136 0.307129 -0.517747
H48   H     H_    0.816703 0.875946 0.246164 0.136269
H49   H     H_    0.757050 0.893193 0.342782 0.137020
H50   H     H_    0.875377 0.971312 0.325214 0.144104
H51   H     H_    0.125391 0.381521 0.303697 0.064796
C63   C     C_3   0.709434 0.317893 0.834177 -0.452959
H52   H     H_    0.576023 0.332236 0.837929 0.134523
H53   H     H_    0.751674 0.298657 0.883129 0.129136
H54   H     H_    0.766504 0.378223 0.838537 0.141964
C64   C     C_3   0.677732 0.159222 0.751446 -0.362859
H55   H     H_    0.719497 0.102605 0.698451 0.146894
H56   H     H_    0.713219 0.139614 0.800961 0.103841
H57   H     H_    0.544087 0.170449 0.751046 0.118577
C65   C     C_3   0.338186 0.247237 0.653702 -0.349272
H58   H     H_    0.366740 0.298998 0.632070 0.034929
H59   H     H_    0.376713 0.265257 0.714250 0.111645
H60   H     H_    0.405983 0.184544 0.618903 0.101681
H61   H     H_    0.176654 0.133675 0.695330 0.108758
C66   C     C_3   0.248984 0.544487 0.660975 -0.223659
H62   H     H_    0.284157 0.608624 0.663189 0.113110
H63   H     H_    0.275235 0.493639 0.602898 0.135479
H64   H     H_    0.117047 0.557428 0.672820 0.143893
C67   C     C_3   0.484754 0.310288 0.441710 -0.219501
H65   H     H_    0.450029 0.368146 0.494845 0.120132
H66   H     H_    0.425250 0.322762 0.393269 0.102081
H67   H     H_    0.616257 0.302950 0.429718 0.162729
C68   C     C_3   0.440691 0.985026 0.573692 -0.362703
H68   H     H_    0.329988 0.976005 0.538297 0.137307
H69   H     H_    0.449141 0.937691 0.603911 0.110841
H70   H     H_    0.435105 0.051419 0.619594 0.098638
H71   H     H_    0.786540 0.707195 0.665552 0.059305
C69   C     C_3   0.641059 0.832302 0.700523 -0.400490
H72   H     H_    0.570404 0.815968 0.646734 0.099752
H73   H     H_    0.560755 0.876415 0.748774 0.106347
H74   H     H_    0.743429 0.868623 0.695960 0.062564

loop_
_geom_bond_atom_site_label_1
_geom_bond_atom_site_label_2
_ccdc_geom_bond_type
C42   C47   D    
O21   P6    S    
C62   H50   S    
C5    H21   S    
C44   H37   S    
Ba2   O5    S    
C34   C69   S    
C67   H65   S    
C3    H51   S    
C53   C57   A    
C39   C40   A    
C46   P7    S    
O6    P8    S    
C17   C18   A    
C63   H54   S    
C66   H62   S    
Ba2   O14   S    
C5    C6    S    
C37   C39   A    
C61   H44   S    
C2    H1    S    
C57   P3    S    
C35   C36   A    
C2    O21   S    
C3    O15   S    
C16   H29   S    
C65   H58   S    
C33   C35   A    
C22   C24   A    
Ba1   Ba2   S    
Ba1   P1    S    
C40   H36   S    
Ba1   O8    S    
C3    C4    S    
Ba2   O9    S    
C4    H16   S    
C19   C31   A    
O22   P2    D    
C56   C58   S    
C62   H48   S    
O23   P3    S    
C54   C55   A    
C35   H33   S    
C34   C45   S    
O2    P2    S    
C16   C17   A    
C68   H68   S    
C5    O11   S    
C48   C50   S    
C69   H72   S    
O18   P6    S    
C2    H13   S    
C7    H23   S    
Ba1   O18   S    
Ba2   O12   S    
Ba2   O6    S    
O12   P1    S    
C7    C65   S    
C14   C15   A    
Ba2   P4    S    
C21   C22   A    
Ba1   O12   S    
C58   H8    S    
C7    C8    S    
C45   H4    S    
C51   C68   S    
C58   C61   S    
C10   C28   A    
C59   H9    S    
C24   C29   A    
C67   H66   S    
O9    P5    S    
C27   C41   A    
C23   H19   S    
C68   H69   S    
C6    C63   S    
C60   H47   S    
C1    H18   S    
C39   P6    S    
C66   H63   S    
Ba2   O13   S    
C31   C32   A    
C44   C46   D    
C51   C53   S    
C25   C32   A    
C61   H45   S    
C52   C54   A    
C8    H25   S    
O19   P6    D    
C30   C33   A    
C55   P2    S    
C41   P1    S    
C17   C20   A    
C1    C62   S    
Ba1   O22   S    
O3    P3    S    
Ba1   P2    S    
C45   H2    S    
Ba2   O8    S    
C4    H15   S    
O1    P1    D    
O11   P5    S    
C26   C37   A    
C29   H31   S    
C44   C49   S    
O15   P7    S    
C20   P8    S    
O16   P8    D    
C32   C36   A    
O17   P8    S    
C27   C28   A    
C59   O2    S    
C22   P4    S    
C7    O17   S    
C29   C30   A    
C64   H57   S    
C9    C25   A    
C43   C55   A    
C34   O7    S    
C48   C49   S    
C14   C16   A    
Ba1   O13   S    
C10   C11   A    
O13   P2    S    
C69   H74   S    
C43   H39   S    
C59   H10   S    
C56   H6    S    
C12   O3    S    
C64   H56   S    
C67   H67   S    
C11   C13   A    
C68   H70   S    
C40   C41   A    
C54   H38   S    
C60   H46   S    
C1    C2    S    
C26   C27   A    
O24   P3    D    
C8    H61   S    
C37   C38   A    
C66   H64   S    
C50   C51   D    
C12   H35   S    
C33   H32   S    
C62   H49   S    
C47   P5    S    
C52   C53   A    
C8    H24   S    
C11   H27   S    
C6    H22   S    
C65   H60   S    
C23   H41   S    
Ba1   O23   S    
C63   H53   S    
C6    C64   S    
C9    C15   A    
C9    C10   A    
C23   H42   S    
C61   H43   S    
O5    P4    S    
C56   O20   S    
C50   H40   S    
C30   C31   A    
C3    H14   S    
C65   H59   S    
C38   H34   S    
C12   H26   S    
C56   H5    S    
C13   H28   S    
C36   C38   A    
C4    H17   S    
C18   C24   A    
C58   H7    S    
Ba1   O5    S    
Ba2   O4    S    
O10   P5    D    
O20   P1    S    
C42   C67   S    
C12   C23   S    
C59   C60   S    
C1    H11   S    
C69   H73   S    
O4    P4    D    
C42   C46   S    
O7    P4    S    
C34   H71   S    
C5    H20   S    
C18   C19   A    
C43   C57   A    
C47   C48   S    
C25   C26   A    
C20   C21   A    
C60   H12   S    
C64   H55   S    
O8    P7    S    
C63   H52   S    
C45   H3    S    
O14   P7    D    
C13   C14   A    
Ba1   O1    S    
C21   C66   S    
C28   H30   S    
C15   C19   A    
