data_mof_unit_17473.cif
_audit_creation_date              2012-12-11T14:36:06-0500
_audit_creation_method            fapswitch 2.2
_symmetry_space_group_name_H-M    P1
_symmetry_Int_Tables_number       1
_space_group_crystal_system       monoclinic
_cell_length_a                    14.517416
_cell_length_b                    15.995919
_cell_length_c                    6.925928
_cell_angle_alpha                 90.0
_cell_angle_beta                  80.654598
_cell_angle_gamma                 90.0
_cell_volume                      1586.9880494

loop_
_atom_site_label
_atom_site_type_symbol
_atom_type_description
_atom_site_fract_x
_atom_site_fract_y
_atom_site_fract_z
_atom_type_partial_charge
O1    O     O_R   0.337460 0.413110 0.524760 -0.549882
O2    O     O_R   0.662540 0.913110 0.475240 -0.549882
O3    O     O_R   0.348690 0.587910 0.191230 -0.546544
O4    O     O_R   0.651310 0.087910 0.808770 -0.546544
O5    O     O_R   0.166530 0.586890 0.082470 -0.539225
O6    O     O_R   0.833470 0.086890 0.917530 -0.539225
C1    C     C_R   0.371877 0.615727 0.352831 0.751238
C2    C     C_R   0.628123 0.115727 0.647169 0.751237
O7    O     O_R   0.348700 0.413830 0.191250 -0.536746
O8    O     O_R   0.651300 0.913830 0.808750 -0.536746
O9    O     O_R   0.166530 0.411570 0.082490 -0.540800
O10   O     O_R   0.833470 0.911570 0.917510 -0.540800
C3    C     C_R   0.375432 0.388728 0.351249 0.741620
C4    C     C_R   0.624568 0.888728 0.648751 0.741620
O11   O     O_R   0.337460 0.588430 0.524740 -0.538865
O12   O     O_R   0.662540 0.088430 0.475260 -0.538865
O13   O     O_3   0.192230 0.499460 0.407330 -0.372643
O14   O     O_3   0.807770 0.999460 0.592670 -0.372643
V1    V     V_3+5 0.263080 0.500100 0.108540 1.375253
V2    V     V_3+5 0.736920 0.000100 0.891460 1.375253
O15   O     O_R   0.155290 0.412090 0.756570 -0.543616
O16   O     O_R   0.844710 0.912090 0.243430 -0.543616
C5    C     C_R   0.132751 0.382830 0.933511 0.651461
C6    C     C_R   0.867249 0.882830 0.066489 0.651461
O17   O     O_R   0.155290 0.586170 0.756550 -0.543770
O18   O     O_R   0.844710 0.086170 0.243450 -0.543770
C7    C     C_R   0.132590 0.615374 0.933083 0.652571
C8    C     C_R   0.867410 0.115374 0.066917 0.652572
V3    V     V_3+5 0.240910 0.499900 0.616030 1.372260
V4    V     V_3+5 0.759090 0.999900 0.383970 1.372260
O19   O     O_3   0.311760 0.500540 0.867100 -0.366388
O20   O     O_3   0.688240 0.000540 0.132900 -0.366388
C9    C     C_3   0.105241 0.765007 0.049735 -0.316570
C10   C     C_3   0.894759 0.265007 0.950263 -0.316570
H1    H     H_    0.129739 0.749142 0.189426 0.136039
H2    H     H_    0.870261 0.249141 0.810572 0.136038
H3    H     H_    0.167363 0.785838 0.944954 0.118767
H4    H     H_    0.832636 0.285838 0.055043 0.118767
C11   C     C_3   0.033300 0.837747 0.086442 -0.323586
C12   C     C_3   0.966700 0.337746 0.913557 -0.323585
H5    H     H_    0.061009 0.893315 0.999166 0.117046
H6    H     H_    0.938991 0.393315 0.000832 0.117045
H7    H     H_    0.023758 0.856102 0.243423 0.136807
H8    H     H_    0.976242 0.356102 0.756575 0.136807
H9    H     H_    0.996157 0.642298 0.258086 0.139379
H10   H     H_    0.003844 0.142298 0.741915 0.139379
H11   H     H_    0.890438 0.749434 0.312038 0.136509
H12   H     H_    0.109562 0.249433 0.687963 0.136509
C13   C     C_3   0.974619 0.660541 0.116879 -0.320072
C14   C     C_3   0.025382 0.160540 0.883122 -0.320073
C15   C     C_3   0.027406 0.712611 0.774736 -0.315697
C16   C     C_3   0.972593 0.212611 0.225265 -0.315697
C17   C     C_3   0.061647 0.686531 0.967531 0.116639
C18   C     C_3   0.938353 0.186531 0.032469 0.116639
H13   H     H_    0.994540 0.658218 0.712222 0.133602
H14   H     H_    0.005459 0.158218 0.287780 0.133602
H15   H     H_    0.087802 0.732680 0.664256 0.133486
H16   H     H_    0.912196 0.232681 0.335743 0.133485
C19   C     C_3   0.938082 0.811549 0.030457 0.117920
C20   C     C_3   0.061918 0.311549 0.969543 0.117919
C21   C     C_3   0.902737 0.733330 0.153593 -0.321435
C22   C     C_3   0.097263 0.233330 0.846409 -0.321434
C23   C     C_3   0.955934 0.784933 0.811093 -0.305234
C24   C     C_3   0.044065 0.284934 0.188908 -0.305233
H17   H     H_    0.982573 0.839149 0.717623 0.136158
H18   H     H_    0.017426 0.339150 0.282376 0.136157
H19   H     H_    0.889284 0.764728 0.765547 0.132253
H20   H     H_    0.110715 0.264728 0.234454 0.132253
H21   H     H_    0.941045 0.604937 0.061217 0.116445
H22   H     H_    0.058955 0.104937 0.938786 0.116445
H23   H     H_    0.834781 0.712490 0.115567 0.120201
H24   H     H_    0.165219 0.212490 0.884435 0.120200
H25   H     H_    0.587427 0.786705 0.372458 0.134950
H26   H     H_    0.412573 0.286705 0.627542 0.134950
H27   H     H_    0.419151 0.701717 0.644298 0.152175
H28   H     H_    0.580849 0.201717 0.355701 0.152175
C25   C     C_2   0.444830 0.680529 0.342414 -0.343017
C26   C     C_2   0.555170 0.180529 0.657586 -0.343017
C27   C     C_2   0.461735 0.718261 0.506234 -0.135442
C28   C     C_2   0.538265 0.218261 0.493766 -0.135442
C29   C     C_2   0.545387 0.828492 0.664384 -0.025764
C30   C     C_2   0.454613 0.328492 0.335616 -0.025764
C31   C     C_2   0.536927 0.780726 0.506012 -0.196520
C32   C     C_2   0.463073 0.280726 0.493987 -0.196520
H29   H     H_    0.485887 0.696252 0.202140 0.130333
H30   H     H_    0.514113 0.196252 0.797860 0.130333
C33   C     C_3   0.470608 0.822667 0.848130 -0.379227
C34   C     C_3   0.475444 0.885772 0.012153 -0.704042
H31   H     H_    0.535428 0.871965 0.088006 0.237844
H32   H     H_    0.479669 0.950662 0.954234 0.217451
H33   H     H_    0.411131 0.880579 0.122843 0.198667
H34   H     H_    0.401124 0.831551 0.803070 0.181742
H35   H     H_    0.472495 0.758997 0.910548 0.176271
C35   C     C_3   0.529392 0.322667 0.151870 -0.379226
C36   C     C_3   0.524555 0.385772 0.987847 -0.704042
H36   H     H_    0.464572 0.371965 0.911994 0.237844
H37   H     H_    0.520331 0.450662 0.045766 0.217451
H38   H     H_    0.588869 0.380579 0.877157 0.198667
H39   H     H_    0.598876 0.331551 0.196930 0.181741
H40   H     H_    0.527505 0.258997 0.089452 0.176271

loop_
_geom_bond_atom_site_label_1
_geom_bond_atom_site_label_2
_ccdc_geom_bond_type
C7    C17   S    
V4    O20   S    
C33   C34   S    
C23   H17   S    
C12   C20   S    
O13   V3    S    
C36   H36   S    
C28   C32   S    
V1    O19   S    
C36   H38   S    
C11   H5    S    
O9    V1    S    
C9    C11   S    
C30   C35   S    
C24   H20   S    
O16   C6    A    
O3    C1    A    
C26   C28   D    
O12   V4    S    
O17   V3    S    
C20   C22   S    
O7    C3    A    
O13   V1    S    
O5    C7    A    
O7    V1    S    
O6    C8    A    
O8    V2    S    
O3    V1    S    
O14   V4    S    
H9    C13   S    
O14   V2    S    
O4    C2    A    
C1    C25   S    
C26   H30   S    
C12   H6    S    
C25   H29   S    
C2    O12   A    
C13   H21   S    
C33   H34   S    
C2    C26   S    
C29   C31   D    
C16   C18   S    
O11   V3    S    
C25   C27   D    
C9    C17   S    
C5    C20   S    
C23   H19   S    
C19   C21   S    
C13   C21   S    
C15   C23   S    
C16   C24   S    
C8    C18   S    
C11   H7    S    
C1    O11   A    
O15   V3    S    
C3    C30   S    
C9    H3    S    
C15   C17   S    
C24   H18   S    
H12   C22   S    
C34   H33   S    
C35   H40   S    
C11   C19   S    
O10   V2    S    
O1    V3    S    
C22   H24   S    
C14   C18   S    
C29   C33   S    
C16   H16   S    
C15   H15   S    
C34   H32   S    
C10   C18   S    
C30   C32   D    
O15   C5    A    
O8    C4    A    
C14   C22   S    
C10   C12   S    
O1    C3    A    
V2    O20   S    
O10   C6    A    
O16   V4    S    
C10   H4    S    
C19   C23   S    
H28   C28   S    
H26   C32   S    
H11   C21   S    
C36   H37   S    
O18   V4    S    
O5    V1    S    
O17   C7    A    
O6    V2    S    
H10   C14   S    
O18   C8    A    
O2    V4    S    
C20   C24   S    
C14   H22   S    
V3    O19   S    
C27   C31   S    
C21   H23   S    
C35   H39   S    
C6    C19   S    
C13   C17   S    
C33   H35   S    
O9    C5    A    
C9    H1    S    
C10   H2    S    
C15   H13   S    
C35   C36   S    
O2    C4    A    
O4    V2    S    
C12   H8    S    
C34   H31   S    
C4    C29   S    
H27   C27   S    
H25   C31   S    
C16   H14   S    
