data_mof_unit_40929.cif
_audit_creation_date              2012-10-26T19:59:15-0400
_audit_creation_method            fapswitch 2.2
_symmetry_space_group_name_H-M    P1
_symmetry_Int_Tables_number       1
_space_group_crystal_system       triclinic
_cell_length_a                    7.429635
_cell_length_b                    8.737841
_cell_length_c                    15.830179
_cell_angle_alpha                 94.319535
_cell_angle_beta                  75.072168
_cell_angle_gamma                 103.069367
_cell_volume                      967.115234855

loop_
_atom_site_label
_atom_site_type_symbol
_atom_type_description
_atom_site_fract_x
_atom_site_fract_y
_atom_site_fract_z
_atom_type_partial_charge
C1    C     C_R   0.544716 0.799772 0.502571 0.584310
C2    C     C_R   0.615929 0.511013 0.333698 0.529739
C3    C     C_R   0.313808 0.466532 0.760996 -0.000741
C4    C     C_R   0.686087 0.524289 0.238324 0.000532
C5    C     C_R   0.077521 0.342905 0.885732 -0.130206
C6    C     C_R   0.931890 0.621015 0.109903 -0.129705
C7    C     C_R   0.128996 0.383677 0.798034 -0.135801
C8    C     C_R   0.876293 0.591565 0.199179 -0.134435
C9    C     C_R   0.443360 0.514434 0.813157 -0.127766
C10   C     C_R   0.554853 0.479036 0.186706 -0.128543
C11   C     C_R   0.397763 0.470234 0.901028 0.027510
C12   C     C_R   0.455270 0.200228 0.497447 0.584162
C13   C     C_R   0.607571 0.504981 0.096208 0.027604
C14   C     C_R   0.210541 0.383781 0.937038 0.043552
C15   C     C_R   0.798640 0.581279 0.058690 0.045123
C16   C     C_R   0.533019 0.506891 0.953402 0.029266
C17   C     C_R   0.474786 0.462403 0.042821 0.027729
C18   C     C_R   0.286711 0.375032 0.075502 -0.140741
C19   C     C_R   0.725363 0.583631 0.919041 -0.139155
C20   C     C_R   0.158113 0.336692 0.023474 -0.130336
C21   C     C_R   0.854850 0.619125 0.970717 -0.130567
C22   C     C_2   0.570394 0.966815 0.503712 0.322867
C23   C     C_2   0.429572 0.033186 0.496333 0.322875
C24   C     C_R   0.383996 0.488023 0.666220 0.529058
Cu1   Cu    Cu3+1 0.322120 0.483240 0.490330 1.046242
Cu2   Cu    Cu3+1 0.677880 0.516760 0.509670 1.047276
F1    F     F_    0.742492 0.052979 0.512378 -0.617553
F2    F     F_    0.257464 0.947023 0.487679 -0.617504
H1    H     H_    0.015794 0.269402 0.051367 0.121295
H2    H     H_    0.783397 0.615922 0.851671 0.110744
H3    H     H_    0.004116 0.614856 0.568776 0.258967
H4    H     H_    0.995885 0.385147 0.431222 0.258739
H5    H     H_    0.000791 0.677221 0.941364 0.122383
H6    H     H_    0.409993 0.429092 0.219764 0.125735
H7    H     H_    0.580470 0.584258 0.782410 0.122948
H8    H     H_    0.979940 0.626968 0.237971 0.144976
H9    H     H_    0.026939 0.345607 0.758629 0.147088
H10   H     H_    0.934369 0.276852 0.913181 0.123504
H11   H     H_    0.078712 0.677341 0.081030 0.123079
H12   H     H_    0.234088 0.330395 0.140805 0.110845
N1    N     N_2   0.945180 0.542040 0.524240 -0.228577
N2    N     N_2   0.054820 0.457960 0.475760 -0.228848
O1    O     O_R   0.384450 0.714270 0.493720 -0.478594
O2    O     O_R   0.615550 0.285730 0.506280 -0.478686
O3    O     O_R   0.684880 0.742590 0.510050 -0.447207
O4    O     O_R   0.315120 0.257410 0.489950 -0.447431
O5    O     O_R   0.265540 0.477900 0.617090 -0.518890
O6    O     O_R   0.734460 0.522100 0.382910 -0.518350
O7    O     O_R   0.565970 0.506210 0.633420 -0.513420
O8    O     O_R   0.434030 0.493790 0.366580 -0.515094

loop_
_geom_bond_atom_site_label_1
_geom_bond_atom_site_label_2
_ccdc_geom_bond_type
Cu1   N2    S    
C2    C4    S    
C3    C9    A    
Cu2   O6    S    
C5    C7    A    
N1    N2    D    
Cu1   O5    S    
C18   C20   A    
C13   C17   A    
C4    C8    A    
C6    H11   S    
Cu1   O1    S    
C17   C18   A    
C7    H9    S    
Cu2   O2    S    
C1    C22   S    
C10   H6    S    
Cu1   Cu2   S    
H3    N1    S    
C5    H10   S    
C9    C11   A    
C12   C23   S    
C1    O3    A    
C5    C14   A    
C19   H2    S    
C16   C19   A    
C6    C8    A    
C19   C21   A    
C3    C7    A    
C20   H1    S    
C13   C15   A    
C22   F1    S    
C11   C14   A    
C11   C16   A    
C21   H5    S    
C4    C10   A    
C14   C20   A    
C15   C21   A    
C12   O4    A    
C8    H8    S    
Cu2   O7    S    
C24   O7    A    
C9    H7    S    
C18   H12   S    
C22   C23   D    
C12   O2    A    
H4    N2    S    
C2    O8    A    
Cu2   O3    S    
C2    O6    A    
C6    C15   A    
C23   F2    S    
C24   O5    A    
Cu1   O4    S    
C1    O1    A    
Cu1   O8    S    
Cu2   N1    S    
C3    C24   S    
C16   C17   A    
C10   C13   A    
