data_mof_unit_35251.cif
_audit_creation_date              2012-12-11T15:14:53-0500
_audit_creation_method            fapswitch 2.2
_symmetry_space_group_name_H-M    P1
_symmetry_Int_Tables_number       1
_space_group_crystal_system       triclinic
_cell_length_a                    11.199531
_cell_length_b                    11.1452
_cell_length_c                    18.450897
_cell_angle_alpha                 89.953077
_cell_angle_beta                  89.411815
_cell_angle_gamma                 120.441705
_cell_volume                      1985.41856892

loop_
_atom_site_label
_atom_site_type_symbol
_atom_type_description
_atom_site_fract_x
_atom_site_fract_y
_atom_site_fract_z
_atom_type_partial_charge
C1    C     C_R   0.544105 0.425182 0.636785 0.562467
C2    C     C_R   0.428250 0.541305 0.363142 0.522630
C3    C     C_R   0.460678 0.887798 0.137809 0.516189
C4    C     C_R   0.060747 0.540522 0.354343 0.559751
C5    C     C_3   0.377512 0.981620 0.482476 -0.010471
C6    C     C_3   0.616106 0.515779 0.041907 -0.002466
C7    C     C_3   0.966646 0.372074 0.474782 -0.025318
C8    C     C_3   0.474889 0.065141 0.037879 0.013456
C9    C     C_3   0.616534 0.596364 0.467604 -0.018367
C10   C     C_3   0.912234 0.388581 0.036283 -0.006156
C11   C     C_3   0.005780 0.385250 0.975858 0.036933
C12   C     C_R   0.935228 0.477916 0.854908 0.547770
C13   C     C_3   0.552265 0.604448 0.540235 0.005497
C14   C     C_3   0.377909 0.977209 0.977161 0.029863
C15   C     C_3   0.073103 0.455217 0.533074 -0.013273
C16   C     C_3   0.617338 0.606688 0.979166 0.032408
C17   C     C_3   0.403496 0.898025 0.539853 -0.023377
C18   C     C_3   0.495958 0.117210 0.512709 -0.193369
C19   C     C_3   0.526330 0.382767 0.997061 -0.184912
C20   C     C_3   0.861530 0.401592 0.512368 -0.183275
C21   C     C_3   0.602834 0.103173 0.988766 -0.149245
C22   C     C_3   0.595225 0.453416 0.490119 -0.191543
C23   C     C_R   0.549461 0.072513 0.643003 0.571317
C24   C     C_3   0.880095 0.483251 0.988514 -0.162106
C25   C     C_3   0.130109 0.514066 0.007529 -0.171020
C26   C     C_3   0.407699 0.533741 0.506207 -0.122757
C27   C     C_3   0.381604 0.849541 0.005060 -0.188006
C28   C     C_3   0.127826 0.590397 0.486615 -0.113697
C29   C     C_3   0.484742 0.597399 0.009239 -0.174136
C30   C     C_3   0.507749 0.887049 0.488361 -0.113244
C31   C     C_3   0.522640 0.031752 0.568056 0.036258
C32   C     C_3   0.525667 0.473905 0.935069 0.011676
C33   C     C_3   0.971289 0.489987 0.568146 0.054976
C34   C     C_R   0.538583 0.432519 0.862405 0.557012
C35   C     C_3   0.504224 0.011610 0.928671 0.008601
C36   C     C_3   0.528546 0.461464 0.562124 0.035224
C37   C     C_3   0.977223 0.482781 0.929246 0.011537
C38   C     C_3   0.034404 0.519786 0.066133 0.019659
C39   C     C_3   0.471636 0.523449 0.434515 0.026392
C40   C     C_3   0.481164 0.939283 0.063807 0.017622
C41   C     C_3   0.017664 0.505577 0.429593 0.055086
C42   C     C_3   0.483518 0.503703 0.070135 0.022303
C43   C     C_3   0.483533 0.973955 0.431153 0.056661
C44   C     C_3   0.627705 0.023885 0.517544 -0.098838
C45   C     C_R   0.933240 0.479078 0.644009 0.590858
C46   C     C_3   0.393915 0.465202 0.964066 -0.133823
C47   C     C_3   0.022131 0.622178 0.522584 -0.098630
C48   C     C_3   0.508222 0.884955 0.955688 -0.159676
C49   C     C_3   0.384810 0.389760 0.527921 -0.086541
C50   C     C_3   0.100288 0.610154 0.959327 -0.158979
C51   C     C_3   0.005386 0.615104 0.018761 -0.078395
C52   C     C_3   0.449979 0.381592 0.456132 -0.135253
C53   C     C_3   0.607436 0.974694 0.015828 -0.074065
C54   C     C_3   0.913590 0.535561 0.465842 -0.140019
C55   C     C_3   0.392154 0.372432 0.026110 -0.076497
C56   C     C_R   0.542125 0.063256 0.854930 0.546804
C57   C     C_3   0.601128 0.109129 0.460579 -0.135620
C58   C     C_2   0.239746 0.967740 0.467331 0.204430
C59   C     C_2   0.725063 0.549161 0.097637 0.251096
C60   C     C_2   0.939771 0.235775 0.444273 0.220865
C61   C     C_2   0.446801 0.144801 0.094746 0.266483
C62   C     C_2   0.745565 0.718508 0.436024 0.231163
C63   C     C_2   0.830568 0.275932 0.091167 0.252025
C64   C     C_2   0.011280 0.263358 0.945488 0.291540
C65   C     C_2   0.612923 0.728619 0.589451 0.278073
C66   C     C_2   0.251011 0.974365 0.949516 0.284156
C67   C     C_R   0.453572 0.521423 0.143988 0.545863
C68   C     C_2   0.125535 0.385701 0.582770 0.234836
C69   C     C_2   0.736364 0.737578 0.948077 0.287059
C70   C     C_2   0.304550 0.806342 0.597614 0.227328
C71   C     C_R   0.476880 0.932702 0.355989 0.546249
C72   C     C_R   0.074190 0.549380 0.141990 0.533035
Cr1   Cr    Cr6+3 0.769930 0.543130 0.750000 1.047164
Cr2   Cr    Cr6+3 0.773200 0.230070 0.750000 1.046519
Cr3   Cr    Cr6+3 0.456870 0.226800 0.750000 1.032820
Cr4   Cr    Cr6+3 0.543130 0.769930 0.250000 1.142873
Cr5   Cr    Cr6+3 0.230070 0.773200 0.250000 1.152299
Cr6   Cr    Cr6+3 0.226800 0.456870 0.250000 1.123606
H1    H     H_    0.728882 0.040313 0.535551 0.114147
H2    H     H_    0.855266 0.566460 0.430840 0.182479
H3    H     H_    0.297312 0.279413 0.046994 0.239440
H4    H     H_    0.674816 0.194019 0.424051 0.163451
H5    H     H_    0.483879 0.202834 0.532703 0.106181
H6    H     H_    0.548137 0.301072 0.981666 0.086148
H7    H     H_    0.759217 0.325465 0.535128 0.101723
H8    H     H_    0.689743 0.205997 0.972740 0.112392
H9    H     H_    0.651441 0.402491 0.473127 0.115452
H10   H     H_    0.781036 0.467925 0.969818 0.109766
H11   H     H_    0.227300 0.523674 0.025496 0.112066
H12   H     H_    0.308209 0.447890 0.928040 0.131660
H13   H     H_    0.342534 0.578645 0.514688 0.154623
H14   H     H_    0.301232 0.755151 0.030478 0.109937
H15   H     H_    0.232586 0.669126 0.467393 0.095434
H16   H     H_    0.466716 0.679927 0.027363 0.104197
H17   H     H_    0.514664 0.796322 0.471236 0.090692
H18   H     H_    0.181759 0.979451 0.511432 0.069902
H19   H     H_    0.733793 0.466828 0.123117 0.064577
H20   H     H_    0.946374 0.160669 0.478700 0.075823
H21   H     H_    0.530301 0.238216 0.117936 0.060076
H22   H     H_    0.810022 0.808245 0.469120 0.082886
H23   H     H_    0.038116 0.722598 0.543030 0.111330
H24   H     H_    0.738834 0.266177 0.116042 0.061385
H25   H     H_    0.078094 0.278197 0.899309 0.109377
H26   H     H_    0.707056 0.823161 0.574098 0.046412
H27   H     H_    0.199408 0.913448 0.902085 0.108912
H28   H     H_    0.089217 0.276007 0.576302 0.059661
H29   H     H_    0.720273 0.787041 0.901596 0.118056
H30   H     H_    0.224832 0.826206 0.617410 0.091334
H31   H     H_    0.517828 0.812576 0.918131 0.129531
H32   H     H_    0.293198 0.295321 0.549967 0.130698
H33   H     H_    0.173117 0.692668 0.921497 0.122351
H34   H     H_    0.009647 0.711534 0.037640 0.240153
H35   H     H_    0.407331 0.288126 0.421089 0.171424
H36   H     H_    0.699418 0.970663 0.033982 0.234006
O1    O     O_R   0.913270 0.574260 0.668550 -0.536783
O2    O     O_R   0.574260 0.913270 0.331450 -0.485987
O3    O     O_R   0.086730 0.660990 0.168550 -0.484481
O4    O     O_R   0.339010 0.425740 0.331450 -0.490625
O5    O     O_R   0.640160 0.530400 0.673300 -0.464489
O6    O     O_R   0.890240 0.359840 0.826700 -0.512544
O7    O     O_R   0.469600 0.109760 0.673300 -0.541902
O8    O     O_R   0.640160 0.530400 0.826700 -0.503471
O9    O     O_R   0.890240 0.359840 0.673300 -0.502445
O10   O     O_R   0.469600 0.109760 0.826700 -0.525730
O11   O     O_R   0.530400 0.640160 0.173300 -0.472373
O12   O     O_R   0.660990 0.086730 0.831450 -0.486223
O13   O     O_R   0.359840 0.890240 0.326700 -0.458280
O14   O     O_R   0.109760 0.469600 0.173300 -0.471794
O15   O     O_R   0.530400 0.640160 0.326700 -0.447891
O16   O     O_R   0.359840 0.890240 0.173300 -0.455903
O17   O     O_R   0.109760 0.469600 0.326700 -0.481816
O18   O     O_3   0.666667 0.333333 0.750000 -0.329453
O19   O     O_3   0.333333 0.666667 0.250000 -0.373775
O20   O     O_2   0.192663 0.945380 0.406364 -0.435224
O21   O     O_2   0.798118 0.668524 0.118299 -0.406395
O22   O     O_2   0.908621 0.207415 0.380848 -0.452307
O23   O     O_R   0.425740 0.339010 0.668550 -0.478234
O24   O     O_2   0.329272 0.101103 0.117795 -0.413962
O25   O     O_2   0.781953 0.716186 0.373732 -0.430838
O26   O     O_2   0.872535 0.199931 0.111719 -0.402741
O27   O     O_2   0.940194 0.147214 0.971413 -0.430021
O28   O     O_2   0.558399 0.723226 0.647838 -0.385456
O29   O     O_2   0.205800 0.041103 0.979143 -0.426823
O30   O     O_2   0.198518 0.446812 0.634221 -0.405611
O31   O     O_2   0.851306 0.789127 0.974299 -0.430703
O32   O     O_2   0.320354 0.718171 0.627279 -0.402594
O33   O     O_R   0.913270 0.574260 0.831450 -0.502736
O34   O     O_R   0.660990 0.086730 0.668550 -0.502174
O35   O     O_R   0.425740 0.339010 0.831450 -0.480966
O36   O     O_R   0.574260 0.913270 0.168550 -0.476725
O37   O     O_R   0.086730 0.660990 0.331450 -0.459092
O38   O     O_R   0.339010 0.425740 0.168550 -0.494477

loop_
_geom_bond_atom_site_label_1
_geom_bond_atom_site_label_2
_ccdc_geom_bond_type
C27   C48   S    
C64   H25   S    
C28   C47   S    
C51   H34   S    
Cr1   O5    S    
Cr2   O18   S    
C29   C42   S    
C3    O16   A    
C69   O31   D    
C63   O26   D    
C10   C63   S    
Cr6   O14   S    
Cr5   O37   S    
C25   H11   S    
C2    O4    A    
Cr6   O38   S    
C23   O7    A    
C13   C65   S    
C52   H35   S    
C45   O9    A    
C6    C19   S    
Cr5   O19   S    
C5    C58   S    
C72   O14   A    
C47   H23   S    
C56   O10   A    
C12   O33   A    
Cr2   O34   S    
Cr6   O4    S    
Cr3   O35   S    
C60   H20   S    
C67   O11   A    
C29   H16   S    
C25   C38   S    
C9    C22   S    
C5    C17   S    
C4    C41   S    
C19   C32   S    
C28   C41   S    
C9    C39   S    
C2    O15   A    
C33   C45   S    
C1    O5    A    
C12   C37   S    
C11   C37   S    
C9    C13   S    
C25   C50   S    
C58   H18   S    
C12   O6    A    
C2    C39   S    
C46   C55   S    
C65   O28   D    
C8    C14   S    
C68   O30   D    
C70   O32   D    
C56   O12   A    
C14   C27   S    
C55   H3    S    
C60   O22   D    
C64   O27   D    
Cr5   O13   S    
C8    C61   S    
C30   C43   S    
C24   C51   S    
C7    C15   S    
Cr2   O9    S    
C5    C43   S    
Cr1   O18   S    
C17   C70   S    
C34   O8    A    
C32   C46   S    
C17   C30   S    
C30   C44   S    
C61   H21   S    
C62   O25   D    
C68   H28   S    
C63   H24   S    
C35   C48   S    
C34   O35   A    
C24   C37   S    
C4    O17   A    
C54   H2    S    
C46   H12   S    
C69   H29   S    
C48   C53   S    
C38   C72   S    
C31   C44   S    
Cr3   O10   S    
C13   C36   S    
C20   C54   S    
C11   C64   S    
Cr3   O23   S    
C26   C49   S    
C14   C35   S    
C38   C51   S    
C71   O13   A    
C10   C24   S    
C16   C29   S    
C58   O20   D    
C53   H36   S    
C9    C62   S    
C39   C52   S    
C28   H15   S    
C32   C34   S    
C72   O3    A    
Cr6   O17   S    
C36   C49   S    
C30   H17   S    
C42   C55   S    
Cr4   O15   S    
C45   O1    A    
C18   C57   S    
Cr4   O36   S    
C44   C57   S    
C49   C52   S    
C20   H7    S    
C18   H5    S    
C14   C66   S    
C27   H14   S    
C50   C51   S    
C22   H9    S    
C24   H10   S    
C47   C54   S    
C62   H22   S    
C20   C33   S    
Cr1   O33   S    
C3    C40   S    
C40   C53   S    
C42   C67   S    
C33   C47   S    
C13   C26   S    
C66   H27   S    
C19   H6    S    
C7    C60   S    
C1    O23   A    
Cr3   O18   S    
C22   C52   S    
C19   C55   S    
C4    O37   A    
C21   H8    S    
C3    O36   A    
C43   C71   S    
C27   C40   S    
C67   O38   A    
Cr3   O7    S    
Cr4   O11   S    
C6    C59   S    
Cr1   O8    S    
C44   H1    S    
C16   C69   S    
C8    C21   S    
C35   C56   S    
Cr4   O19   S    
C66   O29   D    
C16   C32   S    
C22   C36   S    
C23   O34   A    
Cr5   O3    S    
Cr1   O1    S    
C29   C46   S    
C10   C38   S    
C21   C35   S    
C26   H13   S    
C70   H30   S    
C21   C53   S    
C37   C50   S    
C15   C28   S    
Cr2   O12   S    
C61   O24   D    
C5    C18   S    
C59   H19   S    
C15   C68   S    
C59   O21   D    
C50   H33   S    
Cr4   O2    S    
C71   O2    A    
C48   H31   S    
Cr5   O16   S    
C7    C41   S    
C26   C39   S    
Cr6   O19   S    
C41   C54   S    
C10   C11   S    
C43   C57   S    
C6    C16   S    
Cr2   O6    S    
C7    C20   S    
C6    C42   S    
C11   C25   S    
C57   H4    S    
C18   C31   S    
C8    C40   S    
C65   H26   S    
C15   C33   S    
C17   C31   S    
C1    C36   S    
C23   C31   S    
C49   H32   S    
