data_mof_unit_45020.cif
_audit_creation_date              2012-12-11T14:03:24-0500
_audit_creation_method            fapswitch 2.2
_symmetry_space_group_name_H-M    P1
_symmetry_Int_Tables_number       1
_space_group_crystal_system       triclinic
_cell_length_a                    6.955608
_cell_length_b                    11.378969
_cell_length_c                    18.836399
_cell_angle_alpha                 89.961788
_cell_angle_beta                  92.519586
_cell_angle_gamma                 90.087256
_cell_volume                      1489.41339609

loop_
_atom_site_label
_atom_site_type_symbol
_atom_type_description
_atom_site_fract_x
_atom_site_fract_y
_atom_site_fract_z
_atom_type_partial_charge
O1    O     O_R   0.330540 0.606360 0.598870 -0.518448
O2    O     O_R   0.669460 0.106360 0.401130 -0.516047
O3    O     O_R   0.026770 0.620470 0.750430 -0.520426
O4    O     O_R   0.973230 0.120470 0.249570 -0.545815
O5    O     O_R   0.856460 0.393640 0.750930 -0.535069
O6    O     O_R   0.143540 0.893640 0.249070 -0.552662
C1    C     C_R   0.198296 0.648878 0.773995 0.694902
C2    C     C_R   0.802336 0.147433 0.225279 0.675690
O7    O     O_R   0.000920 0.620350 0.599420 -0.555939
O8    O     O_R   0.999080 0.120350 0.400580 -0.551920
O9    O     O_R   0.830430 0.393520 0.598850 -0.545603
O10   O     O_R   0.169570 0.893520 0.401150 -0.540870
C3    C     C_R   0.167188 0.645248 0.573395 0.789369
C4    C     C_R   0.832876 0.145268 0.426622 0.799462
O11   O     O_R   0.356570 0.606480 0.750960 -0.536604
O12   O     O_R   0.643430 0.106480 0.249040 -0.533913
O13   O     O_3   0.176990 0.425580 0.674890 -0.390603
O14   O     O_3   0.823010 0.925580 0.325110 -0.384073
V1    V     V_3+5 0.902170 0.513810 0.674910 1.495624
V2    V     V_3+5 0.097830 0.013810 0.325090 1.444150
O15   O     O_R   0.500800 0.379530 0.599380 -0.546459
O16   O     O_R   0.499200 0.879530 0.400620 -0.543600
C5    C     C_R   0.667132 0.349187 0.576272 0.728998
C6    C     C_R   0.332739 0.849102 0.423654 0.744829
O17   O     O_R   0.526650 0.379650 0.750390 -0.552642
O18   O     O_R   0.473350 0.879650 0.249610 -0.544394
C7    C     C_R   0.697392 0.351922 0.774432 0.772274
C8    C     C_R   0.301697 0.852052 0.225788 0.687059
V3    V     V_3+5 0.402160 0.486190 0.674900 1.480028
V4    V     V_3+5 0.597840 0.986190 0.325100 1.470785
O19   O     O_3   0.677210 0.574420 0.674910 -0.363199
O20   O     O_3   0.322790 0.074420 0.325090 -0.367943
C9    C     C_R   0.642028 0.081436 0.883588 -0.110022
C10   C     C_R   0.333394 0.582378 0.116359 -0.124630
C11   C     C_R   0.706752 0.273517 0.836422 -0.066851
C12   C     C_R   0.286870 0.775247 0.163405 -0.088562
C13   C     C_R   0.797488 0.350364 0.182454 -0.153695
C14   C     C_R   0.152766 0.849281 0.815899 -0.173790
C15   C     C_R   0.777616 0.433241 0.128870 -0.099858
C16   C     C_R   0.118374 0.927748 0.869800 -0.098868
C17   C     C_R   0.754582 0.397951 0.058324 -0.132730
C18   C     C_R   0.142130 0.893153 0.940435 -0.030425
C19   C     C_R   0.764278 0.277782 0.038203 0.110298
C20   C     C_R   0.218004 0.781613 0.960369 0.086091
C21   C     C_R   0.773393 0.193498 0.094092 0.112893
C22   C     C_R   0.247086 0.700515 0.904038 0.108251
C23   C     C_R   0.748577 0.238158 0.965439 -0.035260
C24   C     C_R   0.255158 0.744804 0.033256 0.014696
C25   C     C_R   0.706714 0.116271 0.952321 0.119926
C26   C     C_R   0.297183 0.622466 0.046314 0.107247
C27   C     C_R   0.722779 0.033447 0.008788 0.021289
C28   C     C_R   0.309617 0.542519 0.989095 -0.055152
C29   C     C_R   0.760280 0.073570 0.077904 -0.230185
C30   C     C_R   0.297523 0.584165 0.919821 -0.208586
C31   C     C_R   0.764913 0.314428 0.904957 -0.082782
C32   C     C_R   0.254448 0.821953 0.094303 -0.084979
C33   C     C_R   0.638651 0.159467 0.827215 -0.257987
C34   C     C_R   0.326175 0.657157 0.173625 -0.221179
C35   C     C_R   0.789951 0.230948 0.166039 -0.052570
C36   C     C_R   0.210330 0.734744 0.832143 -0.041333
H1    H     H_    0.772969 0.525730 0.142210 0.123741
H2    H     H_    0.061972 0.014167 0.856829 0.129842
C37   C     C_2   0.826783 0.231952 0.485255 -0.352256
C38   C     C_2   0.173305 0.731982 0.514804 -0.348773
H3    H     H_    0.953706 0.286771 0.493898 0.130559
H4    H     H_    0.046882 0.787104 0.506429 0.130152
C39   C     C_2   0.669624 0.251387 0.524459 -0.174012
C40   C     C_2   0.330004 0.751123 0.475338 -0.178328
H5    H     H_    0.585801 0.129659 0.775282 0.123763
H6    H     H_    0.357484 0.623026 0.226634 0.120987
C41   C     C_2   0.498627 0.172439 0.522378 0.401992
H7    H     H_    0.355002 0.209466 0.523083 0.043966
O21   O     O_2   0.517448 0.065815 0.524819 -0.541829
C42   C     C_2   0.500050 0.671711 0.477014 0.401639
H8    H     H_    0.644052 0.708337 0.475813 0.043393
O22   O     O_2   0.479920 0.565131 0.474810 -0.541268
C43   C     C_2   0.698877 0.903298 0.000910 0.360368
H9    H     H_    0.671164 0.850525 0.047429 0.074508
O23   O     O_2   0.717745 0.852209 0.944761 -0.536612
C44   C     C_2   0.324974 0.412413 0.997112 0.308709
H10   H     H_    0.391152 0.361443 0.956182 0.081155
O24   O     O_2   0.250274 0.359772 0.045233 -0.523852
H11   H     H_    0.585467 0.994997 0.872219 0.188594
H12   H     H_    0.375474 0.493224 0.128416 0.183130
C45   C     C_2   0.855591 0.432330 0.911141 0.299769
H13   H     H_    0.974448 0.445316 0.948604 0.093714
O25   O     O_2   0.791633 0.517021 0.878032 -0.515891
C46   C     C_2   0.235947 0.951939 0.091178 0.293832
H14   H     H_    0.133441 0.995963 0.123676 0.073723
O26   O     O_2   0.341895 0.011613 0.056104 -0.532463
H15   H     H_    0.812159 0.379360 0.237223 0.101924
H16   H     H_    0.122832 0.875729 0.761239 0.105313
H17   H     H_    0.715951 0.467263 0.021774 0.119501
H18   H     H_    0.083706 0.953531 0.976967 0.134708
H19   H     H_    0.770572 0.009027 0.120222 0.090165
H20   H     H_    0.314549 0.521303 0.877410 0.117949

loop_
_geom_bond_atom_site_label_1
_geom_bond_atom_site_label_2
_ccdc_geom_bond_type
C14   C16   A    
C37   H3    S    
O6    C8    A    
C29   H19   S    
O13   V3    S    
O4    C2    A    
V1    O19   S    
C23   C25   A    
C43   H9    S    
O9    V1    S    
C42   O22   D    
C38   C40   D    
O3    C1    A    
C12   C34   A    
C2    C35   S    
C32   C46   S    
C39   C41   S    
O12   V4    S    
C10   H12   S    
C14   H16   S    
C16   H2    S    
C5    C39   S    
O7    C3    A    
O5    C7    A    
O7    V1    S    
C17   H17   S    
O8    V2    S    
C25   C27   A    
C26   C28   A    
O3    V1    S    
O14   V4    S    
C30   H20   S    
C28   C30   A    
C16   C18   A    
C21   C29   A    
C2    O12   A    
C17   C19   A    
O10   V2    S    
C18   C20   A    
C20   C22   A    
O11   V3    S    
C45   O25   D    
O17   V3    S    
C15   H1    S    
C37   C39   D    
C10   C26   A    
C42   H8    S    
C13   H15   S    
C11   C31   A    
C44   O24   D    
O8    C4    A    
C41   O21   D    
C34   H6    S    
C1    O11   A    
C7    C11   S    
C45   H13   S    
O15   V3    S    
C27   C29   A    
C38   H4    S    
C31   C45   S    
C27   C43   S    
C12   C32   A    
C9    H11   S    
C22   C30   A    
O1    V3    S    
C43   O23   D    
C24   C26   A    
C19   C21   A    
C8    C12   S    
C13   C35   A    
C14   C36   A    
C46   O26   D    
O18   V4    S    
O15   C5    A    
O16   C6    A    
O1    C3    A    
C1    C36   S    
C23   C31   A    
V2    O20   S    
C24   C32   A    
C21   C35   A    
C9    C33   A    
O16   V4    S    
C22   C36   A    
C18   H18   S    
C44   H10   S    
O5    V1    S    
O17   C7    A    
O6    V2    S    
O10   C6    A    
O18   C8    A    
O2    V4    S    
C11   C33   A    
C41   H7    S    
V3    O19   S    
V4    O20   S    
C3    C38   S    
C19   C23   A    
C4    C37   S    
O9    C5    A    
O13   V1    S    
O14   V2    S    
O2    C4    A    
C6    C40   S    
O4    V2    S    
C46   H14   S    
C15   C17   A    
C13   C15   A    
C9    C25   A    
C10   C34   A    
C33   H5    S    
C28   C44   S    
C40   C42   S    
C20   C24   A    
