data_mof_unit_30167.cif
_audit_creation_date              2012-10-26T18:54:14-0400
_audit_creation_method            fapswitch 2.2
_symmetry_space_group_name_H-M    P1
_symmetry_Int_Tables_number       1
_space_group_crystal_system       triclinic
_cell_length_a                    14.6861
_cell_length_b                    14.697936
_cell_length_c                    23.524363
_cell_angle_alpha                 76.946632
_cell_angle_beta                  102.749668
_cell_angle_gamma                 114.738814
_cell_volume                      4446.75036625

loop_
_atom_site_label
_atom_site_type_symbol
_atom_type_description
_atom_site_fract_x
_atom_site_fract_y
_atom_site_fract_z
_atom_type_partial_charge
C1    C     C_R   0.880341 0.312270 0.509364 0.549473
C2    C     C_R   0.076099 0.478920 0.312037 -0.146854
C3    C     C_R   0.923618 0.521494 0.747157 -0.061171
C4    C     C_R   0.076355 0.478384 0.252871 -0.061390
C5    C     C_R   0.997820 0.500988 0.790407 0.238900
C6    C     C_R   0.002094 0.498775 0.209619 0.238936
C7    C     C_R   0.812777 0.205039 0.510374 -0.000966
C8    C     C_R   0.187182 0.795344 0.481851 -0.001089
C9    C     C_R   0.783232 0.030597 0.509758 -0.131452
C10   C     C_R   0.215504 0.973125 0.462616 -0.131629
C11   C     C_R   0.850203 0.130288 0.513982 -0.135346
C12   C     C_R   0.119675 0.687742 0.489707 0.550533
C13   C     C_R   0.149194 0.871774 0.468516 -0.136103
C14   C     C_R   0.708283 0.178864 0.503596 -0.127613
C15   C     C_R   0.291594 0.821251 0.487727 -0.131270
C16   C     C_R   0.999481 0.499904 0.608974 0.554341
C17   C     C_R   0.000509 0.500075 0.391028 0.553779
C18   C     C_R   0.639051 0.080074 0.496361 0.035012
C19   C     C_R   0.359853 0.922797 0.480100 0.033846
C20   C     C_R   0.678228 0.005021 0.500786 0.051703
C21   C     C_R   0.320328 0.999140 0.469084 0.052039
C22   C     C_R   0.532378 0.053820 0.485480 0.033766
C23   C     C_R   0.072120 0.479602 0.774211 -0.058826
C24   C     C_R   0.466227 0.950306 0.485054 0.034539
C25   C     C_R   0.508461 0.878108 0.488481 -0.133626
C26   C     C_R   0.489675 0.127756 0.473666 -0.135413
C27   C     C_R   0.612420 0.905389 0.495827 -0.132302
C28   C     C_R   0.385669 0.100638 0.465034 -0.131306
C29   C     C_R   0.719779 0.675144 0.404306 0.112540
C30   C     C_R   0.281336 0.326506 0.596729 0.113055
C31   C     C_R   0.799776 0.641553 0.419316 0.064760
C32   C     C_R   0.200888 0.359417 0.581309 0.064556
C33   C     C_R   0.714037 0.508753 0.490770 0.017962
C34   C     C_R   0.927751 0.520106 0.225807 -0.058746
C35   C     C_R   0.285740 0.490961 0.509017 0.018557
C36   C     C_R   0.629302 0.536672 0.478013 -0.022060
C37   C     C_R   0.370875 0.463636 0.522141 -0.022113
C38   C     C_R   0.633661 0.621724 0.433927 0.048679
C39   C     C_R   0.367008 0.379298 0.566697 0.049481
C40   C     C_R   0.076358 0.573605 0.119817 0.397350
C41   C     C_R   0.923566 0.426137 0.880211 0.397355
C42   C     C_R   0.541441 0.483826 0.507659 0.025335
C43   C     C_R   0.458745 0.516500 0.492504 0.026706
C44   C     C_R   0.466707 0.601032 0.448254 -0.150437
C45   C     C_R   0.072567 0.479027 0.715125 -0.145332
C46   C     C_R   0.533671 0.399575 0.552103 -0.149464
C47   C     C_R   0.551524 0.651752 0.419712 -0.125276
C48   C     C_R   0.449211 0.349385 0.580987 -0.120330
C49   C     C_R   0.926746 0.421844 0.121035 0.407048
C50   C     C_R   0.073182 0.577895 0.878996 0.407153
C51   C     C_R   0.924586 0.419180 0.061036 0.053117
C52   C     C_R   0.075343 0.580558 0.938995 0.053114
C53   C     C_R   0.000252 0.498642 0.030289 -0.069203
C54   C     C_R   0.999680 0.501094 0.969742 -0.069196
C55   C     C_R   0.076687 0.575857 0.060020 0.003068
C56   C     C_R   0.927327 0.520752 0.284886 -0.145149
C57   C     C_R   0.923243 0.423880 0.940010 0.003110
C58   C     C_R   0.849270 0.341043 0.030578 0.127210
C59   C     C_R   0.150656 0.658699 0.969451 0.127211
C60   C     C_R   0.848793 0.345199 0.970538 -0.117619
C61   C     C_R   0.151134 0.654540 0.029492 -0.117616
C62   C     C_3   0.803672 0.172259 0.084623 -0.261711
C63   C     C_3   0.196218 0.827470 0.915386 -0.261660
C64   C     C_3   0.798063 0.800982 0.320398 -0.312286
C65   C     C_3   0.206039 0.204643 0.682609 -0.312020
C66   C     C_R   0.998555 0.499961 0.671420 0.002823
C67   C     C_R   0.001408 0.499949 0.328590 0.003179
C68   C     C_R   0.923899 0.521032 0.687983 -0.146695
Cu1   Cu    Cu3+1 0.081740 0.475680 0.515360 0.929460
Cu2   Cu    Cu3+1 0.918260 0.524320 0.484640 0.929814
H1    H     H_    0.813504 0.973638 0.512711 0.106473
H2    H     H_    0.867618 0.680874 0.398724 0.129630
H3    H     H_    0.408355 0.630756 0.434248 0.092068
H4    H     H_    0.592100 0.369963 0.566204 0.094678
H5    H     H_    0.790384 0.284878 0.948133 0.159793
H6    H     H_    0.209539 0.714863 0.051897 0.159828
H7    H     H_    0.129448 0.463331 0.807518 0.129756
H8    H     H_    0.870377 0.536290 0.192499 0.129889
H9    H     H_    0.130893 0.462306 0.703744 0.130126
H10   H     H_    0.868967 0.537425 0.296263 0.130485
H11   H     H_    0.865847 0.537272 0.655305 0.130425
H12   H     H_    0.184893 0.031280 0.453475 0.106504
H13   H     H_    0.134203 0.462775 0.344715 0.129714
H14   H     H_    0.866032 0.538166 0.759459 0.128501
H15   H     H_    0.133976 0.461754 0.240576 0.128060
H16   H     H_    0.641476 0.847736 0.497985 0.111952
H17   H     H_    0.356254 0.159726 0.455984 0.112728
H18   H     H_    0.318226 0.760601 0.500094 0.121331
H19   H     H_    0.682889 0.237208 0.504681 0.115464
H20   H     H_    0.068587 0.853328 0.463550 0.125634
H21   H     H_    0.930898 0.149028 0.519245 0.127538
H22   H     H_    0.703467 0.234566 0.034521 0.245428
H23   H     H_    0.463165 0.799951 0.483751 0.101726
H24   H     H_    0.813025 0.139708 0.049024 0.122114
H25   H     H_    0.744177 0.112666 0.109721 0.153037
H26   H     H_    0.875898 0.196573 0.115302 0.178883
H27   H     H_    0.296447 0.765213 0.965510 0.245418
H28   H     H_    0.186831 0.860021 0.950975 0.122120
H29   H     H_    0.124004 0.803131 0.884700 0.179090
H30   H     H_    0.255715 0.887071 0.890294 0.152917
H31   H     H_    0.717473 0.819357 0.377114 0.246866
H32   H     H_    0.780935 0.858701 0.285398 0.156130
H33   H     H_    0.792731 0.738411 0.299059 0.154731
H34   H     H_    0.534322 0.208017 0.468979 0.108053
H35   H     H_    0.876074 0.837347 0.343329 0.128801
H36   H     H_    0.283332 0.182392 0.625460 0.248776
H37   H     H_    0.224393 0.148485 0.718312 0.156084
H38   H     H_    0.127323 0.167144 0.660915 0.130627
H39   H     H_    0.212455 0.268880 0.702820 0.154623
H40   H     H_    0.551435 0.715194 0.385772 0.137757
H41   H     H_    0.449574 0.286395 0.615224 0.138339
H42   H     H_    0.280811 0.552049 0.475066 0.125046
H43   H     H_    0.718463 0.446929 0.524257 0.124892
H44   H     H_    0.133319 0.320405 0.602176 0.130333
N1    N     N_R   0.002025 0.497791 0.148793 -0.405591
N2    N     N_R   0.997898 0.501953 0.851235 -0.405571
N3    N     N_R   0.795430 0.560810 0.461550 -0.257104
N4    N     N_R   0.204570 0.439190 0.538450 -0.257341
N5    N     N_2   0.774062 0.256951 0.059669 -0.455192
N6    N     N_2   0.225856 0.742801 0.940359 -0.455241
N7    N     N_2   0.725650 0.763329 0.361591 -0.535712
N8    N     N_2   0.276423 0.239682 0.640397 -0.535974
O1    O     O_R   0.977900 0.338110 0.520250 -0.508943
O2    O     O_2   0.850904 0.352326 0.851294 -0.503300
O3    O     O_2   0.854419 0.349869 0.151648 -0.465002
O4    O     O_2   0.145513 0.649866 0.848383 -0.464931
O5    O     O_R   0.022100 0.661890 0.479750 -0.508844
O6    O     O_R   0.839850 0.379180 0.494310 -0.507302
O7    O     O_R   0.160150 0.620820 0.505690 -0.507508
O8    O     O_R   0.069020 0.479430 0.595090 -0.502815
O9    O     O_R   0.930980 0.520570 0.404910 -0.502996
O10   O     O_R   0.930970 0.520500 0.569150 -0.502576
O11   O     O_R   0.069030 0.479500 0.430850 -0.503559
O12   O     O_2   0.149012 0.647424 0.148732 -0.503112

loop_
_geom_bond_atom_site_label_1
_geom_bond_atom_site_label_2
_ccdc_geom_bond_type
Cu2   O5    S    
C64   H33   S    
C66   C68   A    
C34   C56   A    
C59   N6    S    
C23   C45   A    
C62   H26   S    
C13   H20   S    
C17   O9    A    
C14   C18   A    
C36   C42   A    
C3    C68   A    
C1    O6    A    
C64   H35   S    
C12   O5    A    
C53   C54   A    
C25   H23   S    
C8    C13   A    
C68   H11   S    
C41   O2    S    
C19   C21   A    
H22   N5    S    
C63   H28   S    
C42   C46   A    
C40   N1    A    
Cu1   O1    S    
Cu2   N3    S    
C58   C60   A    
C64   N7    S    
Cu1   N4    S    
C33   C36   A    
C64   H32   S    
C31   N3    A    
C63   H29   S    
C26   H34   S    
C15   C19   A    
C45   C66   A    
C7    C14   A    
C30   N8    S    
Cu1   O8    S    
C49   C51   A    
C29   N7    S    
C29   C38   A    
C50   C52   A    
C50   O4    S    
C16   O8    A    
C65   H38   S    
C50   N2    A    
C44   C47   A    
C10   C21   A    
C1    C7    S    
C62   H25   S    
C2    H13   S    
Cu1   Cu2   S    
C52   C54   A    
C53   C55   A    
C61   H6    S    
C33   N3    A    
C46   C48   A    
C59   C61   A    
C17   C67   S    
C12   O7    A    
C24   C25   A    
C4    C6    A    
C2    C67   A    
C57   C60   A    
C4    H15   S    
C40   O12   S    
C10   H12   S    
H31   N7    S    
C6    C34   A    
C51   C53   A    
C37   C43   A    
C27   H16   S    
C7    C11   A    
C43   C44   A    
C1    O1    A    
C14   H19   S    
C63   H30   S    
C52   C59   A    
C9    C20   A    
C5    C23   A    
C8    C12   S    
C40   C55   A    
H36   N8    S    
C28   H17   S    
Cu2   O10   S    
C62   N5    S    
C45   H9    S    
C51   C58   A    
C65   N8    S    
C23   H7    S    
C9    C11   A    
C65   H39   S    
C38   C47   A    
Cu1   O7    S    
C31   H2    S    
C49   N1    A    
C21   C28   A    
C8    C15   A    
C62   H24   S    
C5    N2    S    
C17   O11   A    
C22   C24   A    
C16   C66   S    
C42   C43   A    
C41   N2    A    
C47   H40   S    
C46   H4    S    
Cu2   O6    S    
Cu1   O11   S    
C35   C37   A    
C18   C22   A    
C33   H43   S    
C9    H1    S    
C32   N4    A    
C3    C5    A    
C10   C13   A    
C20   C27   A    
C25   C27   A    
C56   C67   A    
C49   O3    S    
C60   H5    S    
C26   C28   A    
C56   H10   S    
H27   N6    S    
C36   C38   A    
C19   C24   A    
C41   C57   A    
C29   C31   A    
C34   H8    S    
C30   C32   A    
C63   N6    S    
C2    C4    A    
C55   C61   A    
Cu2   O9    S    
C30   C39   A    
C18   C20   A    
C44   H3    S    
C16   O10   A    
C6    N1    S    
C11   H21   S    
C48   H41   S    
C58   N5    S    
C37   C39   A    
C22   C26   A    
C3    H14   S    
C39   C48   A    
C35   N4    A    
C32   H44   S    
C65   H37   S    
C35   H42   S    
C15   H18   S    
C54   C57   A    
