data_mof_unit_41583.cif
_audit_creation_date              2012-12-11T14:17:37-0500
_audit_creation_method            fapswitch 2.2
_symmetry_space_group_name_H-M    P1
_symmetry_Int_Tables_number       1
_space_group_crystal_system       triclinic
_cell_length_a                    6.959857
_cell_length_b                    13.764186
_cell_length_c                    20.399154
_cell_angle_alpha                 102.557508
_cell_angle_beta                  90.017219
_cell_angle_gamma                 89.750478
_cell_volume                      1907.40729135

loop_
_atom_site_label
_atom_site_type_symbol
_atom_type_description
_atom_site_fract_x
_atom_site_fract_y
_atom_site_fract_z
_atom_type_partial_charge
O1    O     O_R   0.506860 0.599390 0.449240 -0.541042
O2    O     O_R   0.180220 0.594600 0.586780 -0.537379
O3    O     O_R   0.004500 0.400610 0.550760 -0.523703
C1    C     C_R   0.347749 0.616086 0.613831 0.763173
O4    O     O_R   0.177490 0.611290 0.451970 -0.546160
O5    O     O_R   0.001750 0.417420 0.414990 -0.537095
C2    C     C_R   0.345114 0.636693 0.434303 0.698839
O6    O     O_R   0.509610 0.582580 0.585010 -0.546507
O7    O     O_3   0.337420 0.436370 0.488020 -0.371164
V1    V     V_3+5 0.064680 0.511800 0.502220 1.524218
O8    O     O_R   0.671710 0.405400 0.413220 -0.537612
C3    C     C_R   0.841349 0.383719 0.386848 0.821492
O9    O     O_R   0.674440 0.388710 0.548030 -0.548983
C4    C     C_R   0.843579 0.362170 0.563952 0.750030
V2    V     V_3+5 0.564010 0.488200 0.497780 1.502664
O10   O     O_3   0.841140 0.563630 0.511980 -0.384219
C5    C     C_R   0.755106 0.113266 0.605106 -0.054990
C6    C     C_R   0.848981 0.281070 0.599689 -0.169281
C7    C     C_R   0.868208 0.311146 0.923500 -0.037406
C8    C     C_R   0.857493 0.383872 0.885558 -0.109392
C9    C     C_R   0.845793 0.358291 0.816215 -0.103349
C10   C     C_R   0.853994 0.258433 0.780579 0.091633
C11   C     C_R   0.844409 0.182087 0.818042 -0.013396
C12   C     C_R   0.851877 0.233408 0.708330 0.055385
C13   C     C_R   0.796548 0.136351 0.674943 0.047308
C14   C     C_R   0.787863 0.062685 0.711640 -0.152310
C15   C     C_R   0.813219 0.083135 0.780785 -0.050001
C16   C     C_R   0.901998 0.301383 0.667961 -0.185729
C17   C     C_R   0.775002 0.187466 0.567904 -0.109632
C18   C     C_R   0.858700 0.209255 0.890411 -0.167847
C19   C     C_2   0.007108 0.271937 0.288494 0.040949
C20   C     C_2   0.849324 0.321095 0.318144 -0.317036
C21   C     C_2   0.002770 0.221038 0.216223 -0.259019
C22   C     C_2   0.860181 0.160303 0.186909 -0.194616
C23   C     C_2   0.205464 0.744126 0.799695 -0.055002
C24   C     C_2   0.365100 0.789611 0.829365 -0.186670
C25   C     C_2   0.203857 0.693417 0.725499 -0.063922
C26   C     C_2   0.355056 0.682401 0.682103 -0.300066
C27   C     C_R   0.263591 0.883993 0.389059 -0.036213
C28   C     C_R   0.348282 0.715051 0.395671 -0.070789
C29   C     C_R   0.423866 0.690619 0.073713 -0.165262
C30   C     C_R   0.486969 0.622822 0.110442 -0.113496
C31   C     C_R   0.494294 0.648685 0.180753 -0.022811
C32   C     C_R   0.405786 0.739502 0.215750 0.030208
C33   C     C_R   0.355445 0.811208 0.177308 0.050460
C34   C     C_R   0.367943 0.762971 0.286862 0.095651
C35   C     C_R   0.305791 0.860979 0.318885 0.057864
C36   C     C_R   0.285082 0.932940 0.279958 -0.150426
C37   C     C_R   0.301951 0.907667 0.210649 -0.160384
C38   C     C_R   0.375224 0.690095 0.326227 -0.128322
C39   C     C_R   0.294037 0.811517 0.426677 -0.195014
C40   C     C_R   0.368799 0.786567 0.106189 -0.078635
O11   O     O_R   0.203230 0.917310 0.915020 -0.511875
O12   O     O_R   0.535500 0.888690 0.048040 -0.551773
O13   O     O_R   0.711080 0.082610 0.085000 -0.514942
C41   C     C_R   0.368075 0.863405 0.065875 0.682720
O14   O     O_R   0.532630 0.905370 0.913230 -0.537926
O15   O     O_R   0.708190 0.099410 0.949230 -0.528718
C42   C     C_R   0.364142 0.874822 0.890206 0.792385
O16   O     O_R   0.206120 0.900510 0.050790 -0.541343
O17   O     O_3   0.375360 0.063570 0.011990 -0.363633
V3    V     V_3+5 0.648170 0.988200 0.997780 1.546662
O18   O     O_R   0.038240 0.111390 0.951940 -0.530403
C43   C     C_R   0.869334 0.133927 0.932056 0.783241
O19   O     O_R   0.041120 0.094710 0.086750 -0.543828
C44   C     C_R   0.872156 0.110998 0.114782 0.728018
V4    V     V_3+5 0.148810 0.011930 0.002180 1.550058
O20   O     O_3   0.871750 0.936430 0.988010 -0.379217
C45   C     C_2   0.720339 0.167139 0.495444 0.829108
O21   O     O_2   0.823572 0.194984 0.454728 -0.526429
O22   O     O_R   0.550439 0.116563 0.474020 -0.643559
H1    H     H_    0.531322 0.105141 0.423732 0.286509
H2    H     H_    0.719099 0.319906 0.288720 0.166091
H3    H     H_    0.125974 0.232663 0.186156 0.191611
C46   C     C_2   0.701948 0.128957 0.226912 0.809473
O23   O     O_2   0.538506 0.119908 0.204484 -0.555688
O24   O     O_R   0.741446 0.106342 0.289134 -0.621499
H4    H     H_    0.623174 0.083274 0.310243 0.298084
C47   C     C_2   0.070489 0.701995 0.843233 0.830758
O25   O     O_2   0.985201 0.624976 0.819682 -0.546212
O26   O     O_R   0.051271 0.744056 0.911739 -0.668911
H5    H     H_    0.957991 0.706372 0.935106 0.289038
C48   C     C_2   0.538636 0.725463 0.819826 0.746608
O27   O     O_2   0.691764 0.758139 0.805762 -0.555371
O28   O     O_R   0.521509 0.625189 0.822806 -0.654467
H6    H     H_    0.643345 0.585483 0.809892 0.325976
H7    H     H_    0.069024 0.659721 0.706369 0.201207
H8    H     H_    0.491712 0.717084 0.697117 0.167060
H9    H     H_    0.261833 0.827966 0.479987 0.164520
H10   H     H_    0.252501 0.009826 0.302134 0.175297
C49   C     C_2   0.171173 0.978523 0.424631 0.840823
O29   O     O_2   0.051893 0.020123 0.396196 -0.513908
O30   O     O_R   0.210376 0.016066 0.492659 -0.617284
H11   H     H_    0.138065 0.080072 0.511672 0.329039
H12   H     H_    0.761884 0.986119 0.686357 0.154560
H13   H     H_    0.390245 0.612004 0.303578 0.109941
H14   H     H_    0.435423 0.671147 0.019422 0.133486
C50   C     C_2   0.626603 0.587980 0.212801 0.740602
O31   O     O_2   0.734457 0.628533 0.257765 -0.555045
O32   O     O_R   0.634160 0.484683 0.189429 -0.656879
H15   H     H_    0.732602 0.451799 0.214265 0.292707
H16   H     H_    0.548096 0.553073 0.083269 0.172228
H17   H     H_    0.272769 0.965224 0.183277 0.149848
C51   C     C_2   0.685268 0.012810 0.570862 0.818040
O33   O     O_2   0.540136 0.978723 0.590948 -0.535748
O34   O     O_R   0.783101 0.958769 0.514725 -0.649599
H18   H     H_    0.720293 0.892447 0.495230 0.302724
C52   C     C_2   0.032530 0.386478 0.693383 0.822955
O35   O     O_2   0.191182 0.370917 0.714596 -0.511360
O36   O     O_R   0.976261 0.484207 0.694356 -0.643036
H19   H     H_    0.835778 0.490472 0.682846 0.243503
C53   C     C_2   0.881145 0.345385 0.997983 0.747235
O37   O     O_2   0.960907 0.424038 0.022276 -0.548742
O38   O     O_R   0.798042 0.290260 0.040525 -0.664144
H20   H     H_    0.816205 0.322274 0.089792 0.303179
H21   H     H_    0.819428 0.418581 0.791432 0.138624
H22   H     H_    0.852938 0.462109 0.909989 0.160992
C54   C     C_2   0.779820 0.997036 0.809600 0.757767
O39   O     O_2   0.621910 0.958115 0.802866 -0.542616
O40   O     O_R   0.932319 0.953171 0.836305 -0.652764
H23   H     H_    0.889801 0.895540 0.855936 0.336153
C55   C     C_2   0.190329 0.267042 0.324680 0.831054
O41   O     O_2   0.342166 0.281566 0.298418 -0.570346
O42   O     O_R   0.190058 0.242200 0.387573 -0.615091
H24   H     H_    0.323941 0.241365 0.406957 0.297475

loop_
_geom_bond_atom_site_label_1
_geom_bond_atom_site_label_2
_ccdc_geom_bond_type
O15   V3    S    
C27   C39   A    
O30   H11   S    
C18   C43   S    
C5    C17   A    
C29   C30   A    
C4    C6    S    
C7    C8    A    
C31   C50   S    
C1    O6    A    
C24   C42   S    
C22   C44   S    
C51   O34   S    
O38   H20   S    
O11   C42   A    
O14   V3    S    
O24   H4    S    
O40   H23   S    
C14   C15   A    
C27   C35   A    
C23   C25   S    
C5    C51   S    
O5    C3    A    
O14   C42   A    
O34   H18   S    
C24   C48   S    
V2    O10   S    
O13   V3    S    
C52   O35   D    
C45   O22   S    
O36   H19   S    
C53   O37   D    
C54   O39   D    
O8    V2    S    
C48   O27   D    
O16   V4    S    
O19   V4    S    
C2    C28   S    
C19   C21   S    
O1    V2    S    
C11   C15   A    
O7    V1    S    
C29   C40   A    
C22   C46   S    
C36   H10   S    
O9    C4    A    
C3    C20   S    
O17   V3    S    
C9    H21   S    
C30   H16   S    
C27   C49   S    
C51   O33   D    
C32   C34   A    
O26   H5    S    
C17   C45   S    
O15   C43   A    
O12   C41   A    
V4    O20   S    
C11   C18   A    
C6    C16   A    
C12   C13   A    
C20   H2    S    
O4    C2    A    
O12   V3    S    
C33   C40   A    
C13   C14   A    
O28   H6    S    
C41   O16   A    
C26   H8    S    
C23   C24   D    
O2    C1    A    
C46   O23   D    
O18   V4    S    
C37   H17   S    
C25   C26   D    
C49   O30   S    
O17   V4    S    
C35   C36   A    
C33   C37   A    
C21   C22   D    
C6    C17   A    
C7    C53   S    
C46   O24   S    
O3    C4    A    
C53   O38   S    
C36   C37   A    
C48   O28   S    
C1    C26   S    
O19   C44   A    
O6    V2    S    
C50   O32   S    
O9    V2    S    
C31   C32   A    
C10   C12   A    
C47   O25   D    
C30   C31   A    
C55   O42   S    
O2    V1    S    
C49   O29   D    
O13   C44   A    
C32   C33   A    
C47   O26   S    
C15   C54   S    
C14   H12   S    
C34   C35   A    
O1    C2    A    
C25   H7    S    
C19   C20   D    
C12   C16   A    
C19   C55   S    
O5    V1    S    
O8    C3    A    
C28   C39   A    
C34   C38   A    
V3    O20   S    
C5    C13   A    
O7    V2    S    
O4    V1    S    
O3    V1    S    
V1    O10   S    
C39   H9    S    
C38   H13   S    
C16   C52   S    
C28   C38   A    
C23   C47   S    
O32   H15   S    
C52   O36   S    
C29   H14   S    
C45   O21   D    
O11   V4    S    
C54   O40   S    
O18   C43   A    
C21   H3    S    
O22   H1    S    
C8    C9    A    
C50   O31   D    
C10   C11   A    
C55   O41   D    
C9    C10   A    
C7    C18   A    
C8    H22   S    
C40   C41   S    
O42   H24   S    
