data_mof_unit_38391.cif
_audit_creation_date              2012-12-10T17:22:52-0500
_audit_creation_method            fapswitch 2.2
_symmetry_space_group_name_H-M    P1
_symmetry_Int_Tables_number       1
_space_group_crystal_system       triclinic
_cell_length_a                    10.185824
_cell_length_b                    10.495385
_cell_length_c                    10.643894
_cell_angle_alpha                 89.823401
_cell_angle_beta                  97.522507
_cell_angle_gamma                 81.106633
_cell_volume                      1114.20522043

loop_
_atom_site_label
_atom_site_type_symbol
_atom_type_description
_atom_site_fract_x
_atom_site_fract_y
_atom_site_fract_z
_atom_type_partial_charge
C1    C     C_R   0.440727 0.515187 0.266052 0.925425
C2    C     C_3   0.499905 0.122850 0.501001 -0.043437
C3    C     C_3   0.628047 0.938931 0.517657 -0.158499
C4    C     C_3   0.371953 0.061069 0.482343 -0.158499
C5    C     C_2   0.398304 0.529104 0.129647 -0.116283
C6    C     C_2   0.601696 0.470896 0.870353 -0.116284
C7    C     C_2   0.493372 0.539746 0.056560 0.269709
C8    C     C_2   0.506627 0.460254 0.943440 0.269710
C9    C     C_2   0.070868 0.491727 0.487005 0.331433
C10   C     C_2   0.929132 0.508273 0.512995 0.331432
C11   C     C_3   0.368641 0.931517 0.261533 -0.450093
C12   C     C_R   0.559272 0.484813 0.733948 0.925426
C13   C     C_3   0.338449 0.045880 0.166578 -0.291102
C14   C     C_3   0.269956 0.008428 0.038978 -0.843453
C15   C     C_3   0.631358 0.068483 0.738468 -0.450093
C16   C     C_3   0.661552 0.954119 0.833422 -0.291103
C17   C     C_3   0.730043 0.991572 0.961022 -0.843452
C18   C     C_3   0.748687 0.464879 0.924413 -0.370982
C19   C     C_3   0.833735 0.339602 0.888574 -0.373461
C20   C     C_3   0.980450 0.332325 0.944868 -0.818985
C21   C     C_3   0.251313 0.535122 0.075587 -0.370983
C22   C     C_3   0.166266 0.660399 0.111426 -0.373467
C23   C     C_R   0.500008 0.257783 0.500624 0.876074
C24   C     C_3   0.019550 0.667675 0.055137 -0.818998
C25   C     C_R   0.499992 0.742217 0.499376 0.876074
C26   C     C_3   0.566006 0.033287 0.405956 -0.198062
C27   C     C_3   0.433994 0.966713 0.594044 -0.198062
C28   C     C_3   0.438742 0.969442 0.388581 0.120479
C29   C     C_3   0.561258 0.030558 0.611419 0.120479
C30   C     C_3   0.500095 0.877150 0.498999 -0.043437
Cl1   Cl    Cl    0.404977 0.338690 0.905493 -0.728427
Cl2   Cl    Cl    0.595022 0.661310 0.094507 -0.728427
Cl3   Cl    Cl    0.877595 0.611730 0.633695 -0.695078
Cl4   Cl    Cl    0.122405 0.388269 0.366305 -0.695078
H1    H     H_    0.619686 0.064507 0.329813 0.154577
H2    H     H_    0.272408 0.126916 0.204643 0.246250
H3    H     H_    0.433376 0.079781 0.151238 0.239617
H4    H     H_    0.434825 0.851087 0.223464 0.248510
H5    H     H_    0.274042 0.897239 0.277222 0.199832
H6    H     H_    0.829926 0.017201 0.950613 0.248740
H7    H     H_    0.667396 0.074592 0.999690 0.274504
H8    H     H_    0.743930 0.908856 0.029235 0.279918
H9    H     H_    0.566626 0.920217 0.848761 0.239618
H10   H     H_    0.727595 0.873084 0.795357 0.246250
H11   H     H_    0.725957 0.102762 0.722778 0.199831
H12   H     H_    0.380314 0.935493 0.670187 0.154577
H13   H     H_    0.565174 0.148913 0.776537 0.248510
H14   H     H_    0.023487 0.413054 0.906834 0.288765
H15   H     H_    0.990082 0.336511 0.049894 0.273955
H16   H     H_    0.038254 0.240003 0.918701 0.256694
H17   H     H_    0.794219 0.255889 0.925012 0.229428
H18   H     H_    0.829385 0.331732 0.784323 0.261268
H19   H     H_    0.786870 0.550320 0.889790 0.257420
H20   H     H_    0.761239 0.465231 0.029518 0.250462
H21   H     H_    0.009914 0.663491 0.950112 0.273957
H22   H     H_    0.976516 0.586945 0.093170 0.288768
H23   H     H_    0.732220 0.886071 0.532770 0.193868
H24   H     H_    0.961745 0.759995 0.081306 0.256696
H25   H     H_    0.170619 0.668270 0.215677 0.261269
H26   H     H_    0.205779 0.744111 0.074986 0.229431
H27   H     H_    0.238761 0.534769 0.970483 0.250462
H28   H     H_    0.213130 0.449681 0.110210 0.257420
H29   H     H_    0.267780 0.113928 0.467230 0.193868
H30   H     H_    0.872189 0.387732 0.378231 0.188807
H31   H     H_    0.127811 0.612268 0.621768 0.188807
H32   H     H_    0.332602 0.925408 0.000310 0.274504
H33   H     H_    0.170073 0.982801 0.049388 0.248740
H34   H     H_    0.256070 0.091143 0.970765 0.279917
N1    N     N_2   0.157310 0.552180 0.551120 -0.197996
N2    N     N_2   0.842690 0.447820 0.448880 -0.197996
O1    O     O_R   0.568940 0.489500 0.307530 -0.575601
O2    O     O_R   0.431060 0.510500 0.692470 -0.575600
O3    O     O_R   0.348880 0.522990 0.340350 -0.577700
O4    O     O_R   0.651120 0.477010 0.659650 -0.577701
O5    O     O_R   0.610000 0.297210 0.483560 -0.637498
O6    O     O_R   0.390000 0.702790 0.516440 -0.637498
O7    O     O_R   0.389940 0.330700 0.516390 -0.546999
O8    O     O_R   0.610060 0.669300 0.483610 -0.546999
Zn1   Zn    Zn3+2 0.646930 0.477640 0.478080 1.007924
Zn2   Zn    Zn3+2 0.353070 0.522360 0.521920 1.007925

loop_
_geom_bond_atom_site_label_1
_geom_bond_atom_site_label_2
_ccdc_geom_bond_type
C12   O4    A    
C27   C29   S    
C19   C20   S    
C15   H13   S    
O1    Zn1   S    
C7    C8    S    
C24   H21   S    
C4    H29   S    
C1    O1    A    
C2    C29   S    
C1    C5    S    
C9    N1    D    
C6    C12   S    
C15   C16   S    
C18   C19   S    
C3    C29   S    
C17   H8    S    
C20   H16   S    
C18   H19   S    
C19   H18   S    
C16   C17   S    
C14   H33   S    
H30   N2    S    
C9    C10   S    
C16   H10   S    
C21   H27   S    
C12   O2    A    
C13   C14   S    
C27   C30   S    
C4    C28   S    
C15   C29   S    
C6    C18   S    
C25   O8    A    
C13   H2    S    
C22   H25   S    
C5    C7    D    
O8    Zn1   S    
C6    C8    D    
C17   H6    S    
C3    C30   S    
C2    C4    S    
C20   H15   S    
C14   H32   S    
C2    C26   S    
C23   O7    A    
C11   H5    S    
C16   H9    S    
C21   H28   S    
C20   H14   S    
C10   N2    D    
C27   H12   S    
O4    Zn1   S    
C9    Cl4   S    
C22   C24   S    
C15   H11   S    
C3    H23   S    
C4    C27   S    
C11   H4    S    
O7    Zn2   S    
C25   C30   S    
C7    Cl2   S    
N2    Zn1   S    
C8    Cl1   S    
C13   H3    S    
C3    C26   S    
O6    Zn2   S    
C23   O5    A    
C24   H22   S    
C26   C28   S    
C25   O6    A    
C1    O3    A    
C28   C30   S    
O2    Zn2   S    
C22   H26   S    
C11   C13   S    
C11   C28   S    
H31   N1    S    
O3    Zn2   S    
C10   Cl3   S    
C17   H7    S    
C18   H20   S    
C19   H17   S    
C26   H1    S    
C5    C21   S    
C24   H24   S    
C2    C23   S    
C14   H34   S    
N1    Zn2   S    
C21   C22   S    
O5    Zn1   S    
