data_mof_unit_38646.cif
_audit_creation_date              2012-12-10T20:31:06-0500
_audit_creation_method            fapswitch 2.2
_symmetry_space_group_name_H-M    P1
_symmetry_Int_Tables_number       1
_space_group_crystal_system       triclinic
_cell_length_a                    14.924363
_cell_length_b                    10.830776
_cell_length_c                    9.957226
_cell_angle_alpha                 87.985163
_cell_angle_beta                  89.812007
_cell_angle_gamma                 92.20208
_cell_volume                      1607.31001989

loop_
_atom_site_label
_atom_site_type_symbol
_atom_type_description
_atom_site_fract_x
_atom_site_fract_y
_atom_site_fract_z
_atom_type_partial_charge
C1    C     C_R   0.503939 0.260744 0.501581 0.895336
C2    C     C_R   0.183326 0.391386 0.491633 -0.097480
C3    C     C_R   0.231862 0.503909 0.497615 -0.090177
C4    C     C_R   0.327519 0.500048 0.499966 0.900330
C5    C     C_R   0.191289 0.619168 0.484777 0.100791
C6    C     C_R   0.497534 0.054996 0.615089 0.069689
C7    C     C_R   0.515487 0.129803 0.501179 -0.168953
C8    C     C_R   0.543353 0.072115 0.382047 -0.068613
C9    C     C_R   0.535897 0.942700 0.375291 -0.050966
C10   C     C_R   0.513163 0.870911 0.493458 -0.140662
C11   C     C_R   0.500889 0.931385 0.611667 0.000755
C12   C     C_R   0.908011 0.615812 0.467463 0.068446
C13   C     C_3   0.478544 0.907784 0.756900 -0.235705
C14   C     C_3   0.468121 0.049475 0.760125 0.112667
C15   C     C_R   0.423823 0.469055 0.072264 0.182522
C16   C     C_R   0.503880 0.739276 0.497575 0.877456
C17   C     C_R   0.570999 0.549325 0.069774 0.000288
C18   C     C_R   0.570189 0.553159 0.925754 0.168113
C19   C     C_R   0.423145 0.473289 0.930389 0.090295
C20   C     C_3   0.365729 0.360076 0.922933 -0.259348
C21   C     C_3   0.371231 0.348101 0.076418 -0.128013
C22   C     C_R   0.672378 0.499349 0.499918 0.913544
C23   C     C_R   0.948437 0.278161 0.453022 0.181950
C24   C     C_R   0.814773 0.614256 0.479266 -0.081699
C25   C     C_R   0.767974 0.500805 0.498417 -0.114910
C26   C     C_R   0.810915 0.388029 0.506711 0.106382
C27   C     C_R   0.903149 0.387949 0.476561 0.103939
C28   C     C_R   0.952702 0.503138 0.470157 -0.021652
C29   C     C_1   0.766708 0.728749 0.479693 0.156864
C30   C     C_1   0.549536 0.888274 0.246003 0.239492
C31   C     C_1   0.396369 0.829587 0.781933 0.243014
C32   C     C_1   0.373917 0.083991 0.776106 0.198989
C33   C     C_3   0.534426 0.112851 0.855765 -0.892881
C34   C     C_R   0.041124 0.280494 0.461329 -0.200813
C35   C     C_1   0.648286 0.601057 0.137221 0.286061
C36   C     C_3   0.646403 0.621371 0.851024 -0.796345
C37   C     C_1   0.277200 0.387760 0.866377 0.319425
C38   C     C_3   0.282111 0.350683 0.152544 -0.775270
C39   C     C_3   0.759425 0.274536 0.565222 -0.886279
C40   C     C_3   0.903567 0.161530 0.401689 -0.884960
C41   C     C_1   0.229718 0.275435 0.500656 0.139510
C42   C     C_3   0.248802 0.737404 0.497070 -0.826319
C43   C     C_1   0.090700 0.852012 0.409971 0.164114
C44   C     C_1   0.582903 0.142790 0.268094 0.198583
C45   C     C_R   0.090701 0.391809 0.476237 0.046332
C46   C     C_R   0.047072 0.505544 0.469800 0.007648
C47   C     C_R   0.097143 0.620870 0.465785 0.064608
C48   C     C_R   0.049789 0.731736 0.444407 0.006397
C49   C     C_R   0.957024 0.727726 0.449095 -0.233056
H1    H     H_    0.536914 0.872596 0.813676 0.170975
H2    H     H_    0.675300 0.699066 0.908536 0.200461
H3    H     H_    0.700679 0.557169 0.830954 0.244805
H4    H     H_    0.294781 0.331642 0.259991 0.256492
H5    H     H_    0.250321 0.441430 0.139219 0.245720
H6    H     H_    0.235432 0.276194 0.117938 0.240656
H7    H     H_    0.714746 0.233810 0.488257 0.235529
H8    H     H_    0.804322 0.204475 0.607923 0.256974
H9    H     H_    0.717650 0.299676 0.651802 0.248560
H10   H     H_    0.898845 0.088620 0.482818 0.242836
H11   H     H_    0.836651 0.178448 0.358530 0.261692
H12   H     H_    0.400950 0.289819 0.869724 0.162791
H13   H     H_    0.943809 0.126090 0.318287 0.245315
H14   H     H_    0.219097 0.797456 0.572072 0.253263
H15   H     H_    0.317427 0.722484 0.533456 0.227286
H16   H     H_    0.256321 0.785736 0.397380 0.243309
H17   H     H_    0.412602 0.269767 0.110848 0.182548
H18   H     H_    0.074345 0.194139 0.451097 0.184059
H19   H     H_    0.923044 0.814164 0.437030 0.161639
H20   H     H_    0.602971 0.078293 0.842755 0.249900
H21   H     H_    0.538567 0.214197 0.836560 0.258512
H22   H     H_    0.512811 0.093231 0.961442 0.245460
H23   H     H_    0.623320 0.667661 0.758257 0.276264
N1    N     N_R   0.499390 0.499140 0.142800 -0.154585
N2    N     N_1   0.122361 0.948805 0.381958 -0.209988
N3    N     N_1   0.614633 0.198910 0.177716 -0.211929
N4    N     N_R   0.499390 0.499180 0.857150 -0.129496
N5    N     N_1   0.728853 0.819980 0.480281 -0.222054
N6    N     N_1   0.559641 0.847295 0.141544 -0.226443
N7    N     N_1   0.332394 0.768124 0.803119 -0.193222
N8    N     N_1   0.299504 0.107695 0.789221 -0.198197
N9    N     N_1   0.711425 0.644418 0.187018 -0.202257
N10   N     N_1   0.207570 0.409427 0.822638 -0.196452
N11   N     N_1   0.266630 0.183397 0.505969 -0.194323
O1    O     O_R   0.500010 0.316790 0.614690 -0.627446
O2    O     O_R   0.500000 0.316760 0.385350 -0.616503
O3    O     O_R   0.367850 0.499990 0.614680 -0.606801
O4    O     O_R   0.367840 0.499950 0.385340 -0.618312
O5    O     O_R   0.500000 0.683240 0.614650 -0.633676
O6    O     O_R   0.499990 0.683210 0.385310 -0.612779
O7    O     O_R   0.632160 0.500050 0.614660 -0.637326
O8    O     O_R   0.632150 0.500010 0.385320 -0.613391
Zn1   Zn    Zn3+2 0.500010 0.500020 0.653130 0.944281
Zn2   Zn    Zn3+2 0.499990 0.499980 0.346870 0.976410

loop_
_geom_bond_atom_site_label_1
_geom_bond_atom_site_label_2
_ccdc_geom_bond_type
C5    C42   S    
C40   H11   S    
C49   H19   S    
C21   H17   S    
C19   C20   S    
N1    Zn2   S    
C14   C33   S    
C12   C49   A    
C35   N9    T    
C7    C8    A    
C4    O4    A    
C45   C46   A    
C1    O1    A    
C15   C19   A    
C5    C47   A    
C28   C46   A    
C26   C27   A    
C12   C28   A    
C19   N4    A    
C26   C39   S    
C6    C14   S    
C2    C41   S    
C23   C40   S    
C39   H8    S    
C40   H13   S    
C20   H12   S    
C24   C29   S    
O2    Zn2   S    
C38   H6    S    
C39   H7    S    
C8    C9    A    
C22   C25   S    
C42   H16   S    
C22   O8    A    
C23   C27   A    
C9    C10   A    
C36   H3    S    
C33   H20   S    
C43   N2    T    
C16   O6    A    
C40   H10   S    
C13   C14   S    
C17   N1    A    
C2    C45   A    
C1    O2    A    
C21   C38   S    
O5    Zn1   S    
C24   C25   A    
C6    C11   A    
C25   C26   A    
C39   H9    S    
O8    Zn2   S    
C44   N3    T    
C32   N8    T    
O7    Zn1   S    
C47   C48   A    
C38   H5    S    
C23   C34   A    
C17   C18   A    
C22   O7    A    
C34   C45   A    
C36   H2    S    
C33   H21   S    
N4    Zn1   S    
C9    C30   S    
C48   C49   A    
C15   N1    A    
C37   N10   T    
C3    C4    S    
C42   H15   S    
C4    O3    A    
C43   C48   S    
C46   C47   A    
C18   N4    A    
C1    C7    S    
C13   C31   S    
C8    C44   S    
C14   C32   S    
C3    C5    A    
C34   H18   S    
C31   N7    T    
C6    C7    A    
O1    Zn1   S    
C12   C24   A    
C2    C3    A    
C10   C16   S    
C20   C37   S    
C11   C13   S    
C38   H4    S    
O4    Zn2   S    
O6    Zn2   S    
C10   C11   A    
C33   H22   S    
C13   H1    S    
C30   N6    T    
C15   C21   S    
C29   N5    T    
C20   C21   S    
C27   C28   A    
C16   O5    A    
O3    Zn1   S    
C17   C35   S    
C18   C36   S    
C42   H14   S    
C36   H23   S    
C41   N11   T    
