data_mof_unit_15566.cif
_audit_creation_date              2013-03-05T15:46:34-0500
_audit_creation_method            fapswitch 2.2
_symmetry_space_group_name_H-M    P1
_symmetry_Int_Tables_number       1
_space_group_crystal_system       triclinic
_cell_length_a                    10.08403
_cell_length_b                    10.676151
_cell_length_c                    11.057583
_cell_angle_alpha                 90.31421
_cell_angle_beta                  94.025037
_cell_angle_gamma                 80.473426
_cell_volume                      1171.10819457

loop_
_atom_site_label
_atom_site_type_symbol
_atom_site_description
_atom_site_fract_x
_atom_site_fract_y
_atom_site_fract_z
_atom_type_partial_charge
O1    O     O_R   0.568940 0.489660 0.307530 -0.612695
O2    O     O_R   0.431060 0.510340 0.692470 -0.579417
O3    O     O_R   0.348880 0.522640 0.340350 -0.637359
O4    O     O_R   0.651120 0.477360 0.659650 -0.618928
C1    C     C_R   0.445551 0.505122 0.268301 0.913554
C2    C     C_R   0.554664 0.488124 0.731141 0.987561
O5    O     O_R   0.610030 0.300280 0.483580 -0.629313
O6    O     O_R   0.389970 0.699720 0.516420 -0.619308
O7    O     O_R   0.389970 0.333270 0.516400 -0.603198
O8    O     O_R   0.610030 0.666730 0.483600 -0.605190
C3    C     C_R   0.500226 0.257781 0.495926 0.878919
C4    C     C_R   0.492630 0.738167 0.475973 0.908790
Zn1   Zn    Zn3+2 0.646940 0.477980 0.478080 0.911670
Zn2   Zn    Zn3+2 0.353060 0.522020 0.521920 0.925520
C5    C     C_R   0.678629 0.100466 0.324161 0.060454
C6    C     C_R   0.231057 0.929230 0.468139 0.102206
C7    C     C_R   0.792707 0.020839 0.284142 0.078911
C8    C     C_R   0.138729 0.997507 0.545009 0.047042
C9    C     C_R   0.791524 0.889866 0.277648 0.097128
C10   C     C_R   0.182900 0.087089 0.625441 0.091533
C11   C     C_R   0.675680 0.844226 0.308793 0.146052
C12   C     C_R   0.312042 0.119457 0.618530 0.176741
C13   C     C_R   0.582205 0.918687 0.382313 0.014667
C14   C     C_R   0.393153 0.067678 0.524153 -0.011733
C15   C     C_R   0.587387 0.049295 0.395709 -0.019911
C16   C     C_R   0.365017 0.955763 0.471627 -0.006373
C17   C     C_R   0.476281 0.870570 0.434056 -0.199282
C18   C     C_R   0.498058 0.122354 0.476325 -0.172696
C19   C     C_2   0.418529 0.500825 0.138883 -0.393545
C20   C     C_2   0.583940 0.478321 0.859503 -0.390081
C21   C     C_2   0.519526 0.470008 0.064403 0.128794
C22   C     C_2   0.487169 0.466619 0.934579 0.106769
H1    H     H_    0.686219 0.486079 0.891826 0.120634
H2    H     H_    0.313833 0.523592 0.104939 0.123130
H3    H     H_    0.886630 0.579225 0.575948 0.174242
H4    H     H_    0.113285 0.421180 0.423658 0.172144
N1    N     N_2   0.157300 0.551390 0.551120 -0.208931
N2    N     N_2   0.842700 0.448610 0.448880 -0.210946
C23   C     C_2   0.074144 0.489867 0.490417 -0.151300
C24   C     C_2   0.925786 0.510414 0.509314 -0.136260
H5    H     H_    0.883400 0.383937 0.386467 0.147096
H6    H     H_    0.116832 0.616115 0.613609 0.167533
N3    N     N_3   0.096700 0.146574 0.714550 -0.456853
H7    H     H_    0.069402 0.075579 0.767747 0.204552
H8    H     H_    0.009385 0.196704 0.669743 0.196739
N4    N     N_3   0.895952 0.804238 0.222642 -0.461652
H9    H     H_    0.969779 0.850608 0.190451 0.214487
H10   H     H_    0.943624 0.740660 0.289931 0.180389
N5    N     N_3   0.636691 0.216470 0.258114 -0.437648
H11   H     H_    0.533626 0.248874 0.262373 0.189704
H12   H     H_    0.694431 0.282641 0.292106 0.242347
N6    N     N_3   0.184092 0.846062 0.377674 -0.489856
H13   H     H_    0.256853 0.817136 0.315972 0.186175
H14   H     H_    0.163617 0.765093 0.420284 0.217350
N7    N     N_3   0.900038 0.072922 0.233742 -0.458680
H15   H     H_    0.988215 0.041394 0.287872 0.189314
H16   H     H_    0.885847 0.171648 0.240176 0.173623
N8    N     N_3   0.002833 0.973106 0.548712 -0.471386
H17   H     H_    0.937959 0.053228 0.513742 0.184617
H18   H     H_    0.985062 0.896625 0.494436 0.194410
C25   C     C_3   0.642015 0.731372 0.239097 -0.774503
H19   H     H_    0.655518 0.744030 0.141287 0.224594
H20   H     H_    0.711690 0.645256 0.272248 0.273313
H21   H     H_    0.534897 0.722378 0.243501 0.204951
C26   C     C_3   0.366088 0.193284 0.722188 -0.790725
H22   H     H_    0.354028 0.147080 0.809589 0.225333
H23   H     H_    0.475185 0.196367 0.719229 0.211141
H24   H     H_    0.307803 0.290838 0.721002 0.279745
N9    N     N_3   0.354341 0.447317 0.889615 -0.430295
H25   H     H_    0.284979 0.529259 0.904464 0.186008
H26   H     H_    0.328311 0.370815 0.936136 0.180522
N10   N     N_3   0.658884 0.438477 0.109612 -0.432887
H27   H     H_    0.702535 0.353775 0.070028 0.192278
H28   H     H_    0.710781 0.511145 0.087455 0.178268

loop_
_geom_bond_atom_site_label_1
_geom_bond_atom_site_label_2
_geom_bond_distance
_ccdc_geom_bond_type
C9    C11   1.402631 A    
C25   H21   1.104607 S    
C20   C22   1.346203 D    
O7    Zn2   1.989109 S    
C12   C26   1.508853 S    
C22   N9    1.442398 S    
C13   C17   1.415219 A    
N10   H28   1.044159 S    
N3    H8    1.045391 S    
C7    N7    1.441700 S    
C11   C25   1.499765 S    
C21   C22   1.451253 S    
C26   H23   1.108833 S    
O6    C4    1.283692 A    
N3    H7    1.045455 S    
C26   H24   1.107613 S    
C10   N3    1.435421 S    
N7    H15   1.044328 S    
N7    H16   1.042669 S    
H3    C24   1.085066 S    
Zn1   N2    1.995725 S    
C9    N4    1.442136 S    
N1    C23   1.297535 D    
N2    C24   1.297488 D    
Zn2   N1    1.995727 S    
O5    C3    1.280136 A    
O7    C3    1.293700 A    
C14   C16   1.388125 A    
C16   C17   1.407908 A    
O2    C2    1.273228 A    
O3    Zn2   2.005231 S    
O8    C4    1.295429 A    
C3    C18   1.464333 S    
N2    H5    1.030628 S    
O1    C1    1.273032 A    
O4    C2    1.286139 A    
C21   N10   1.443842 S    
C2    C20   1.430147 S    
N6    H14   1.043584 S    
N5    H11   1.043906 S    
C1    C19   1.439767 S    
N9    H25   1.045706 S    
C5    N5    1.428016 S    
C11   C13   1.426116 A    
C6    C16   1.423302 A    
C25   H19   1.111269 S    
O2    Zn2   1.988116 S    
C14   C18   1.423321 A    
C12   C14   1.423906 A    
C5    C15   1.429772 A    
N9    H26   1.046484 S    
C4    C17   1.469515 S    
N8    H18   1.042579 S    
C23   C24   1.504890 S    
N4    H10   1.045353 S    
O3    C1    1.291138 A    
O5    Zn1   1.994892 S    
C13   C15   1.410583 A    
O1    Zn1   1.988114 S    
N6    H13   1.045074 S    
C8    C10   1.407180 A    
C6    C8    1.414332 A    
C26   H22   1.110721 S    
N5    H12   1.040141 S    
N1    H6    1.030768 S    
C5    C7    1.409067 A    
H4    C23   1.085182 S    
N4    H9    1.042664 S    
O6    Zn2   1.994893 S    
C20   H1    1.083773 S    
C7    C9    1.401714 A    
N8    H17   1.045025 S    
C19   C21   1.351907 D    
C19   H2    1.083975 S    
C8    N8    1.440014 S    
C25   H20   1.107703 S    
C6    N6    1.440932 S    
O4    Zn1   2.005232 S    
C10   C12   1.408671 A    
N10   H27   1.045957 S    
C15   C18   1.444637 A    
O8    Zn1   1.989110 S    
