data_mof_unit_65048.cif
_audit_creation_date              2012-12-10T18:14:07-0500
_audit_creation_method            fapswitch 2.2
_symmetry_space_group_name_H-M    P1
_symmetry_Int_Tables_number       1
_space_group_crystal_system       triclinic
_cell_length_a                    32.268477
_cell_length_b                    32.268477
_cell_length_c                    23.700103
_cell_angle_alpha                 90.000092
_cell_angle_beta                  90.000089
_cell_angle_gamma                 90.00002
_cell_volume                      24677.8414564

loop_
_atom_site_label
_atom_site_type_symbol
_atom_type_description
_atom_site_fract_x
_atom_site_fract_y
_atom_site_fract_z
_atom_type_partial_charge
C1    C     C_R   1.000000 0.420432 0.500000 0.825097
C2    C     C_1   0.161459 0.000000 0.500000 0.005667
C3    C     C_R   0.728756 0.973814 0.462349 0.398117
C4    C     C_R   0.025800 0.271244 0.538141 0.398132
C5    C     C_R   0.728756 0.026186 0.537651 0.398119
C6    C     C_R   0.974209 0.728756 0.538153 0.398131
C7    C     C_R   0.271244 0.973693 0.537494 0.398117
C8    C     C_R   0.473654 0.771244 0.962557 0.398116
C9    C     C_R   0.771244 0.525792 0.961848 0.398132
C10   C     C_R   0.526309 0.228756 0.962508 0.398118
C11   C     C_R   0.228756 0.474211 0.961844 0.398131
C12   C     C_R   0.526346 0.771244 0.037443 0.398116
C13   C     C_1   1.000000 0.838541 0.500000 0.005666
C14   C     C_R   0.228756 0.525789 0.038156 0.398132
C15   C     C_R   0.473691 0.228756 0.037492 0.398117
C16   C     C_R   0.771244 0.474208 0.038152 0.398131
C17   C     C_R   0.000000 0.293534 0.500000 -0.080411
C18   C     C_R   0.293534 0.000000 0.500000 -0.080446
C19   C     C_R   0.000000 0.706465 0.500000 -0.080411
C20   C     C_R   0.706465 1.000000 0.500000 -0.080437
C21   C     C_R   0.500000 0.793535 0.000000 -0.080449
C22   C     C_R   0.793534 0.500000 0.000000 -0.080411
C23   C     C_R   0.500000 0.206466 1.000000 -0.080447
C24   C     C_1   0.838541 1.000000 0.500000 0.005667
C25   C     C_R   0.206465 0.500000 1.000000 -0.080411
C26   C     C_1   0.500000 0.661459 0.000000 0.005666
C27   C     C_1   0.661459 0.500000 1.000000 0.005665
C28   C     C_1   0.500000 0.338541 0.000000 0.005666
C29   C     C_1   0.338541 0.500000 1.000000 0.005666
C30   C     C_1   0.000000 0.338471 0.500000 -0.065167
C31   C     C_1   0.338471 1.000000 0.500000 -0.065230
C32   C     C_1   0.000000 0.661529 0.500000 -0.065167
C33   C     C_R   0.420432 0.000000 0.500000 0.825156
C34   C     C_1   0.661529 1.000000 0.500000 -0.065218
C35   C     C_1   0.500000 0.838471 0.000000 -0.065233
C36   C     C_1   0.838471 0.500000 0.000000 -0.065166
C37   C     C_1   0.500000 0.161529 1.000000 -0.065229
C38   C     C_1   0.161529 0.500000 1.000000 -0.065166
C39   C     C_1   0.000000 0.375895 0.500000 -0.150648
C40   C     C_1   0.375895 1.000000 0.500000 -0.150681
C41   C     C_1   0.000000 0.624105 0.500000 -0.150648
C42   C     C_1   0.624105 0.000000 0.500000 -0.150679
C43   C     C_1   0.500000 0.875895 0.000000 -0.150679
C44   C     C_R   0.000000 0.579568 0.500000 0.825095
C45   C     C_1   0.875895 0.500000 0.000000 -0.150647
C46   C     C_1   0.500000 0.124105 1.000000 -0.150678
C47   C     C_1   0.124105 0.500000 0.000000 -0.150647
C48   C     C_1   0.000000 0.124044 0.500000 -0.154447
C49   C     C_1   0.124044 0.000000 0.500000 -0.154441
C50   C     C_1   1.000000 0.875956 0.500000 -0.154446
C51   C     C_1   0.875956 1.000000 0.500000 -0.154440
C52   C     C_1   0.500000 0.624044 0.000000 -0.154441
C53   C     C_1   0.624044 0.500000 0.000000 -0.154449
C54   C     C_1   0.500000 0.375956 1.000000 -0.154441
C55   C     C_R   0.579568 0.000000 0.500000 0.825143
C56   C     C_1   0.375956 0.500000 1.000000 -0.154448
C57   C     C_R   1.000000 0.500000 0.391699 0.819167
C58   C     C_R   0.500000 1.000000 0.391699 0.819203
C59   C     C_R   0.000000 0.500000 0.608301 0.819166
C60   C     C_R   0.500000 0.000000 0.608301 0.819202
C61   C     C_R   0.500000 1.000000 0.891699 0.819205
C62   C     C_R   0.000000 0.500000 0.891699 0.819166
C63   C     C_R   0.500000 0.000000 0.108301 0.819205
C64   C     C_R   0.000000 0.500000 0.108301 0.819166
C65   C     C_R   0.079501 0.000000 0.500000 0.819931
C66   C     C_R   0.500000 0.920432 0.000000 0.825157
C67   C     C_R   1.000000 0.920499 0.500000 0.819936
C68   C     C_R   0.920499 1.000000 0.500000 0.819935
C69   C     C_R   0.000000 0.079501 0.500000 0.819936
C70   C     C_R   0.579501 0.500000 0.000000 0.819934
C71   C     C_R   0.500000 0.420499 1.000000 0.819932
C72   C     C_R   0.420499 0.500000 1.000000 0.819935
C73   C     C_R   0.500000 0.579501 0.000000 0.819930
C74   C     C_1   1.000000 0.500000 0.330911 -0.156828
C75   C     C_1   0.500000 1.000000 0.330911 -0.156872
C76   C     C_1   0.000000 0.500000 0.669089 -0.156828
C77   C     C_R   0.920432 0.500000 0.000000 0.825096
C78   C     C_1   0.500000 0.000000 0.669089 -0.156872
C79   C     C_1   0.500000 0.000000 0.830911 -0.156868
C80   C     C_1   1.000000 0.500000 0.830911 -0.156828
C81   C     C_1   0.500000 0.000000 0.169089 -0.156868
C82   C     C_1   0.000000 0.500000 0.169089 -0.156828
C83   C     C_1   1.000000 0.500000 0.279902 0.021359
C84   C     C_1   0.500000 1.000000 0.279902 0.021295
C85   C     C_1   0.000000 0.500000 0.720098 0.021359
C86   C     C_1   0.500000 0.000000 0.720098 0.021295
C87   C     C_1   0.500000 0.000000 0.779902 0.021296
C88   C     C_R   0.500000 0.079568 0.000000 0.825153
C89   C     C_1   0.000000 0.500000 0.779902 0.021359
C90   C     C_1   0.500000 0.000000 0.220098 0.021296
C91   C     C_1   0.000000 0.500000 0.220098 0.021359
C92   C     C_R   0.025358 0.227858 0.537486 -0.154916
C93   C     C_R   0.227858 0.974143 0.536850 -0.154930
C94   C     C_R   0.974651 0.772142 0.537498 -0.154916
C95   C     C_R   0.772142 0.025737 0.537004 -0.154927
C96   C     C_R   0.974641 0.227858 0.462514 -0.154917
C97   C     C_R   0.772142 0.974263 0.462996 -0.154927
C98   C     C_R   0.025349 0.772142 0.462502 -0.154915
C99   C     C_R   0.079568 0.500000 0.000000 0.825095
C100  C     C_R   0.227858 0.025857 0.463150 -0.154929
C101  C     C_R   0.525895 0.727858 0.036800 -0.154929
C102  C     C_R   0.727858 0.474650 0.037497 -0.154916
C103  C     C_R   0.474142 0.272142 0.036848 -0.154929
C104  C     C_R   0.272142 0.525347 0.037501 -0.154916
C105  C     C_R   0.474106 0.727858 0.963199 -0.154930
C106  C     C_R   0.272142 0.474653 0.962499 -0.154915
C107  C     C_R   0.525858 0.272142 0.963152 -0.154930
C108  C     C_R   0.727858 0.525350 0.962503 -0.154916
C109  C     C_R   0.000000 0.206164 0.500000 -0.039349
C110  C     C_1   0.000000 0.161459 0.500000 0.005666
C111  C     C_R   0.206164 0.000000 0.500000 -0.039316
C112  C     C_R   1.000000 0.793836 0.500000 -0.039350
C113  C     C_R   0.793836 1.000000 0.500000 -0.039325
C114  C     C_R   0.500000 0.706164 0.000000 -0.039314
C115  C     C_R   0.706164 0.500000 1.000000 -0.039350
C116  C     C_R   0.500000 0.293836 0.000000 -0.039315
C117  C     C_R   0.293836 0.500000 0.000000 -0.039350
C118  C     C_R   0.974200 0.271244 0.461859 0.398131
C119  C     C_R   0.271244 0.026307 0.462506 0.398117
C120  C     C_R   0.025791 0.728756 0.461847 0.398132
Cu1   Cu    Cu3+1 0.958970 0.500000 0.500000 1.000496
Cu2   Cu    Cu3+1 0.000000 1.000000 0.555770 0.994754
Cu3   Cu    Cu3+1 0.500000 0.500000 0.944230 0.994752
Cu4   Cu    Cu3+1 0.500000 0.500000 0.055770 0.994752
Cu5   Cu    Cu3+1 0.500000 0.041030 0.500000 1.000425
Cu6   Cu    Cu3+1 0.041030 0.500000 0.500000 1.000500
Cu7   Cu    Cu3+1 0.500000 0.958970 0.500000 1.000420
Cu8   Cu    Cu3+1 0.458970 0.000000 0.000000 1.000426
Cu9   Cu    Cu3+1 0.000000 0.541030 0.000000 1.000501
Cu10  Cu    Cu3+1 0.541030 0.000000 0.000000 1.000442
Cu11  Cu    Cu3+1 0.000000 0.458970 0.000000 1.000499
Cu12  Cu    Cu3+1 0.000000 0.000000 0.444230 0.994754
H1    H     H_    0.045039 0.210980 0.566579 0.179487
H2    H     H_    0.710980 0.454976 0.066597 0.179488
H3    H     H_    0.454074 0.289019 0.065446 0.179458
H4    H     H_    0.289020 0.545019 0.066604 0.179488
H5    H     H_    0.454009 0.710980 0.934639 0.179457
H6    H     H_    0.289019 0.454981 0.933396 0.179488
H7    H     H_    0.545926 0.289019 0.934554 0.179458
H8    H     H_    0.710980 0.545024 0.933403 0.179488
H9    H     H_    0.049868 0.320543 0.573727 0.339587
H10   H     H_    0.320542 0.949151 0.572474 0.339653
H11   H     H_    0.950150 0.679458 0.573749 0.339586
H12   H     H_    0.210980 0.954076 0.565448 0.179459
H13   H     H_    0.679458 0.050614 0.572778 0.339636
H14   H     H_    0.950132 0.320542 0.426273 0.339588
H15   H     H_    0.679458 0.949386 0.427222 0.339636
H16   H     H_    0.049850 0.679458 0.426250 0.339586
H17   H     H_    0.320542 0.050849 0.427526 0.339653
H18   H     H_    0.550923 0.820542 0.072377 0.339660
H19   H     H_    0.820542 0.450148 0.073747 0.339586
H20   H     H_    0.449149 0.179458 0.072471 0.339654
H21   H     H_    0.179458 0.549845 0.073755 0.339587
H22   H     H_    0.449076 0.820542 0.927623 0.339658
H23   H     H_    0.954977 0.789020 0.566599 0.179488
H24   H     H_    0.179458 0.450155 0.926245 0.339586
H25   H     H_    0.550851 0.179458 0.927529 0.339655
H26   H     H_    0.820542 0.549851 0.926253 0.339586
H27   H     H_    0.789019 0.045712 0.565723 0.179466
H28   H     H_    0.954961 0.210980 0.433421 0.179487
H29   H     H_    0.789019 0.954288 0.434277 0.179466
H30   H     H_    0.045022 0.789019 0.433401 0.179488
H31   H     H_    0.210980 0.045924 0.434551 0.179459
H32   H     H_    0.545991 0.710981 0.065361 0.179456
O1    O     O_R   0.965350 0.440130 0.499980 -0.575348
O2    O     O_R   0.940130 0.534650 0.999980 -0.575347
O3    O     O_R   0.534650 0.059870 0.999980 -0.575385
O4    O     O_R   0.059870 0.465350 0.999980 -0.575347
O5    O     O_R   0.534650 0.940130 0.000020 -0.575388
O6    O     O_R   0.059870 0.534650 0.000020 -0.575346
O7    O     O_R   0.465350 0.059870 0.000020 -0.575388
O8    O     O_R   0.940130 0.465350 0.000020 -0.575347
O9    O     O_R   0.059790 0.999980 0.452860 -0.575418
O10   O     O_R   0.999980 0.940210 0.452860 -0.575431
O11   O     O_R   0.940210 0.000020 0.452860 -0.575421
O12   O     O_R   0.440130 0.034650 0.499980 -0.575387
O13   O     O_R   0.000020 0.059790 0.452860 -0.575430
O14   O     O_R   0.940210 0.999980 0.547140 -0.575421
O15   O     O_R   0.000020 0.940210 0.547140 -0.575430
O16   O     O_R   0.059790 0.000020 0.547140 -0.575419
O17   O     O_R   0.999980 0.059790 0.547140 -0.575431
O18   O     O_R   0.559790 0.499980 0.952860 -0.575431
O19   O     O_R   0.499980 0.440210 0.952860 -0.575419
O20   O     O_R   0.440210 0.500020 0.952860 -0.575431
O21   O     O_R   0.500020 0.559790 0.952860 -0.575418
O22   O     O_R   0.440210 0.499980 0.047140 -0.575431
O23   O     O_R   0.034650 0.559870 0.499980 -0.575347
O24   O     O_R   0.500020 0.440210 0.047140 -0.575418
O25   O     O_R   0.559790 0.500020 0.047140 -0.575431
O26   O     O_R   0.499980 0.559790 0.047140 -0.575418
O27   O     O_R   0.965350 0.499980 0.418590 -0.574522
O28   O     O_R   0.499980 0.034650 0.418590 -0.574530
O29   O     O_R   0.034650 0.500020 0.418590 -0.574521
O30   O     O_R   0.500020 0.965350 0.418590 -0.574532
O31   O     O_R   0.034650 0.499980 0.581410 -0.574522
O32   O     O_R   0.500020 0.034650 0.581410 -0.574530
O33   O     O_R   0.965350 0.500020 0.581410 -0.574522
O34   O     O_R   0.559870 0.965350 0.499980 -0.575380
O35   O     O_R   0.499980 0.965350 0.581410 -0.574532
O36   O     O_R   0.465350 0.999980 0.918590 -0.574531
O37   O     O_R   0.999980 0.534650 0.918590 -0.574521
O38   O     O_R   0.534650 0.000020 0.918590 -0.574526
O39   O     O_R   0.000020 0.465350 0.918590 -0.574522
O40   O     O_R   0.534650 0.999980 0.081410 -0.574526
O41   O     O_R   0.000020 0.534650 0.081410 -0.574522
O42   O     O_R   0.465350 0.000020 0.081410 -0.574531
O43   O     O_R   0.999980 0.465350 0.081410 -0.574522
O44   O     O_3   0.051888 0.290065 0.576709 -0.708061
O45   O     O_R   0.034650 0.440130 0.500020 -0.575347
O46   O     O_3   0.290065 0.947092 0.575407 -0.708053
O47   O     O_3   0.948131 0.709935 0.576733 -0.708063
O48   O     O_3   0.709936 0.052664 0.575723 -0.708058
O49   O     O_3   0.948112 0.290065 0.423291 -0.708064
O50   O     O_3   0.709935 0.947336 0.424277 -0.708059
O51   O     O_3   0.051869 0.709935 0.423267 -0.708062
O52   O     O_3   0.290065 0.052908 0.424593 -0.708053
O53   O     O_3   0.552986 0.790065 0.075306 -0.708050
O54   O     O_3   0.790065 0.448129 0.076730 -0.708062
O55   O     O_3   0.447089 0.209935 0.075403 -0.708053
O56   O     O_R   0.559870 0.034650 0.500020 -0.575379
O57   O     O_3   0.209935 0.551865 0.076738 -0.708062
O58   O     O_3   0.447014 0.790064 0.924694 -0.708051
O59   O     O_3   0.209935 0.448135 0.923262 -0.708062
O60   O     O_3   0.552910 0.209935 0.924597 -0.708052
O61   O     O_3   0.790065 0.551871 0.923269 -0.708062
O62   O     O_R   0.965350 0.559870 0.500020 -0.575347
O63   O     O_R   0.440130 0.965350 0.500020 -0.575388
O64   O     O_R   0.465350 0.940130 0.999980 -0.575391

loop_
_geom_bond_atom_site_label_1
_geom_bond_atom_site_label_2
_ccdc_geom_bond_type
C48   C110  T    
H16   O51   S    
H22   O58   S    
C17   C30   S    
C66   O5    A    
C92   H1    S    
C34   C42   T    
C71   O24   A    
H15   O50   S    
Cu11  O43   S    
C8    C105  A    
Cu4   O26   S    
Cu10  O40   S    
Cu3   Cu4   S    
C99   O6    A    
C9    C108  A    
Cu2   O16   S    
C6    C19   A    
C60   C78   S    
C92   C109  A    
C49   C65   S    
Cu9   O2    S    
C63   C81   S    
H24   O59   S    
C95   H27   S    
C108  C115  A    
C62   C80   S    
Cu6   O23   S    
C59   O33   A    
Cu11  O4    S    
C57   O27   A    
C13   C112  S    
C43   C66   S    
C25   C38   S    
C9    C22   A    
C106  H6    S    
C55   O34   A    
C11   C25   A    
Cu10  O5    S    
H20   O55   S    
C61   C79   S    
C47   C99   S    
C31   C40   T    
C4    C92   A    
Cu2   Cu12  S    
C80   C89   T    
C33   O12   A    
C103  H3    S    
Cu3   O19   S    
C102  C115  A    
C14   O57   S    
C60   O35   A    
C69   O13   A    
Cu5   O28   S    
C24   C113  S    
Cu6   O31   S    
C70   O18   A    
Cu2   O17   S    
C54   C71   S    
C94   H23   S    
C6    C94   A    
C63   O42   A    
C64   C82   S    
H25   O60   S    
C16   C22   A    
C32   C41   T    
C61   O38   A    
C16   O54   S    
C118  O49   S    
C35   C43   T    
C50   C67   S    
C48   C69   S    
C73   O26   A    
Cu10  O38   S    
C10   O60   S    
Cu12  O13   S    
C51   C68   S    
H13   O48   S    
C20   C34   S    
C78   C86   T    
C24   C51   T    
C15   C23   A    
C119  O52   S    
C88   O7    A    
Cu7   O63   S    
C101  C114  A    
C10   C107  A    
C84   C90   S    
Cu8   O7    S    
C19   C32   S    
Cu10  O3    S    
C61   O36   A    
C79   C87   T    
Cu4   O25   S    
C98   H30   S    
C68   O11   A    
C58   C75   S    
C4    O44   S    
C46   C88   S    
Cu2   O15   S    
C7    C93   A    
C64   O43   A    
Cu11  O8    S    
C33   C40   S    
C28   C116  S    
C63   O40   A    
C59   C76   S    
C1    O45   A    
C74   C83   T    
C71   O19   A    
C105  C114  A    
C3    C20   A    
C98   C112  A    
C72   O20   A    
C52   C73   S    
Cu7   O30   S    
C11   O59   S    
C5    C20   A    
C28   C54   T    
C86   C87   S    
H11   O47   S    
C6    O47   S    
Cu5   O32   S    
C59   O31   A    
C77   O2    A    
C23   C37   S    
C29   C117  S    
C12   C21   A    
C58   O30   A    
C82   C91   T    
C13   C50   T    
C57   O29   A    
C26   C114  S    
C3    O50   S    
Cu12  O11   S    
C57   C74   S    
Cu3   O21   S    
Cu8   O36   S    
C62   O37   A    
H21   O57   S    
Cu3   O20   S    
C2    C49   T    
C26   C52   T    
C42   C55   S    
Cu9   O41   S    
C3    C97   A    
C1    C39   S    
C14   C104  A    
C1    O1    A    
C88   O3    A    
Cu8   O64   S    
C7    C18   A    
Cu1   O33   S    
C11   C106  A    
C8    C21   A    
H19   O54   S    
C36   C45   T    
C100  C119  A    
Cu12  O10   S    
H26   O61   S    
C72   O22   A    
C38   C47   T    
Cu9   O6    S    
C93   H12   S    
C8    O58   S    
C17   C118  A    
C93   C111  A    
C4    C17   A    
C16   C102  A    
C96   H28   S    
C19   C120  A    
C97   H29   S    
C106  C117  A    
C58   O28   A    
C41   C44   S    
C120  O51   S    
C15   O55   S    
C83   C91   S    
Cu7   O34   S    
C12   O53   S    
C7    O46   S    
Cu11  O39   S    
C60   O32   A    
Cu4   O24   S    
C99   O4    A    
C64   O41   A    
C96   C118  A    
C108  H8    S    
Cu2   O14   S    
C5    O48   S    
C85   C89   S    
C62   O39   A    
C104  H4    S    
C56   C72   S    
C2    C111  S    
C101  H32   S    
C53   C70   S    
C81   C90   T    
C33   O63   A    
Cu6   O45   S    
Cu8   Cu10  S    
Cu1   O27   S    
C65   O9    A    
C27   C53   T    
C98   C120  A    
C55   O56   A    
C21   C35   S    
C65   O16   A    
C10   C23   A    
Cu3   O18   S    
C22   C36   S    
C96   C109  A    
C104  C117  A    
C29   C56   T    
C15   C103  A    
Cu7   O35   S    
C103  C116  A    
H9    O44   S    
Cu9   O37   S    
C12   C101  A    
C67   O15   A    
C109  C110  S    
Cu4   O22   S    
Cu6   O29   S    
C5    C95   A    
C44   O62   A    
C95   C113  A    
C77   O8    A    
C76   C85   T    
C68   O14   A    
H18   O53   S    
Cu1   O1    S    
C30   C39   T    
C100  H31   S    
Cu12  O9    S    
Cu8   O42   S    
C14   C25   A    
C107  H7    S    
C75   C84   T    
C107  C116  A    
H17   O52   S    
H14   O49   S    
Cu1   O62   S    
C44   O23   A    
C105  H5    S    
C102  H2    S    
Cu5   O56   S    
C73   O21   A    
Cu1   Cu6   S    
C100  C111  A    
C66   O64   A    
Cu5   Cu7   S    
H10   O46   S    
C45   C77   S    
C18   C31   S    
C67   O10   A    
C9    O61   S    
C37   C46   T    
Cu5   O12   S    
C97   C113  A    
C18   C119  A    
C94   C112  A    
C70   O25   A    
C69   O17   A    
Cu9   Cu11  S    
C27   C115  S    
