data_mof_unit_60876.cif
_audit_creation_date              2012-12-10T20:09:56-0500
_audit_creation_method            fapswitch 2.2
_symmetry_space_group_name_H-M    P1
_symmetry_Int_Tables_number       1
_space_group_crystal_system       triclinic
_cell_length_a                    38.614928
_cell_length_b                    32.066282
_cell_length_c                    21.656545
_cell_angle_alpha                 90.000626
_cell_angle_beta                  123.749372
_cell_angle_gamma                 90.0
_cell_volume                      22296.8017

loop_
_atom_site_label
_atom_site_type_symbol
_atom_type_description
_atom_site_fract_x
_atom_site_fract_y
_atom_site_fract_z
_atom_type_partial_charge
C1    C     C_R   0.919338 0.000009 0.419282 0.909054
C2    C     C_R   0.080662 0.000009 0.580717 0.909062
C3    C     C_R   0.419338 0.500008 0.419280 0.908988
C4    C     C_R   0.580662 0.500009 0.580720 0.908991
C5    C     C_R   0.000711 0.999962 0.814491 -0.110857
C6    C     C_R   0.999289 0.999960 0.185508 -0.110821
C7    C     C_R   0.500711 0.499960 0.814494 -0.110653
C8    C     C_R   0.499289 0.499959 0.185506 -0.110667
C9    C     C_R   0.979781 0.968486 0.761112 0.052728
C10   C     C_R   0.020198 0.968470 0.238864 0.052756
C11   C     C_R   0.479830 0.468452 0.761164 0.052697
C12   C     C_R   0.520172 0.468454 0.238837 0.052702
C13   C     C_R   0.981067 0.968961 0.698800 -0.213100
C14   C     C_R   0.018914 0.968948 0.301179 -0.213155
C15   C     C_R   0.481121 0.468927 0.698857 -0.213158
C16   C     C_R   0.518881 0.468929 0.301145 -0.213150
C17   C     C_R   0.003000 0.000163 0.689663 -0.142695
C18   C     C_R   0.996999 0.000162 0.310334 -0.142720
C19   C     C_R   0.503007 0.500164 0.689674 -0.142737
C20   C     C_R   0.496993 0.500162 0.310326 -0.142736
C21   C     C_R   0.025573 0.031049 0.744367 -0.087087
C22   C     C_R   0.974440 0.031057 0.255644 -0.087068
C23   C     C_R   0.525532 0.531084 0.744336 -0.087007
C24   C     C_R   0.474464 0.531081 0.255663 -0.087009
C25   C     C_R   0.917471 0.936430 0.751197 0.393544
C26   C     C_R   0.082463 0.936357 0.248688 0.393534
C27   C     C_R   0.417581 0.436317 0.751366 0.393527
C28   C     C_R   0.582425 0.436323 0.248645 0.393530
C29   C     C_R   0.898934 0.902081 0.764132 0.356769
C30   C     C_R   0.100959 0.901987 0.235710 0.356784
C31   C     C_R   0.399099 0.401942 0.764364 0.356795
C32   C     C_R   0.600910 0.401949 0.235649 0.356792
C33   C     C_R   0.920848 0.864475 0.790663 -0.290011
C34   C     C_R   0.079016 0.864396 0.209192 -0.290086
C35   C     C_R   0.421055 0.364358 0.790891 -0.290104
C36   C     C_R   0.578955 0.364365 0.209117 -0.290094
C37   C     C_R   0.961604 0.860817 0.807955 0.430799
C38   C     C_R   0.038268 0.860772 0.191954 0.430806
C39   C     C_R   0.461801 0.360747 0.808116 0.430822
C40   C     C_R   0.538207 0.360752 0.191884 0.430821
C41   C     C_R   0.980560 0.895411 0.799570 -0.274545
C42   C     C_R   0.019351 0.895387 0.200380 -0.274510
C43   C     C_R   0.480704 0.395366 0.799669 -0.274501
C44   C     C_R   0.519302 0.395370 0.200329 -0.274509
C45   C     C_R   0.001230 0.000051 0.621624 0.913025
C46   C     C_R   0.998770 0.000051 0.378375 0.913023
C47   C     C_R   0.501232 0.500052 0.621627 0.912983
C48   C     C_R   0.498768 0.500051 0.378373 0.912984
C49   C     C_R   0.958924 0.933098 0.771674 -0.072904
C50   C     C_R   0.041017 0.933060 0.228263 -0.073011
C51   C     C_R   0.459026 0.433033 0.771780 -0.073096
C52   C     C_R   0.540979 0.433037 0.228223 -0.073082
C53   C     C_R   0.728135 0.999166 0.171379 -0.167037
C54   C     C_R   0.271864 0.999167 0.828619 -0.167042
C55   C     C_R   0.228132 0.499465 0.171364 -0.167009
C56   C     C_R   0.771866 0.499448 0.828635 -0.167024
C57   C     C_R   0.706382 0.000349 0.205468 -0.042108
C58   C     C_R   0.293618 0.000347 0.794532 -0.042107
C59   C     C_R   0.206381 0.500322 0.205469 -0.042117
C60   C     C_R   0.793618 0.500326 0.794532 -0.042119
C61   C     C_R   0.727564 0.001519 0.282554 -0.169700
C62   C     C_R   0.272437 0.001511 0.717445 -0.169698
C63   C     C_R   0.227566 0.501148 0.282570 -0.169751
C64   C     C_R   0.772435 0.501176 0.717433 -0.169737
C65   C     C_R   0.770941 0.001482 0.326991 0.437750
C66   C     C_R   0.229060 0.001472 0.673008 0.437750
C67   C     C_R   0.270942 0.501094 0.327004 0.437769
C68   C     C_R   0.729059 0.501124 0.672999 0.437759
C69   C     C_R   0.793324 0.000190 0.292583 -0.096797
C70   C     C_R   0.206676 0.000185 0.707415 -0.096793
C71   C     C_R   0.293324 0.500143 0.292578 -0.096730
C72   C     C_R   0.706677 0.500151 0.707422 -0.096735
C73   C     C_R   0.771538 0.999011 0.213903 0.427815
C74   C     C_R   0.228461 0.999009 0.786094 0.427811
C75   C     C_R   0.271535 0.499298 0.213884 0.427804
C76   C     C_R   0.728464 0.499283 0.786114 0.427818
C77   C     C_1   0.661998 0.000241 0.161107 0.006511
C78   C     C_1   0.338002 0.000240 0.838893 0.006509
C79   C     C_1   0.161997 0.500228 0.161109 0.006495
C80   C     C_1   0.838003 0.500230 0.838892 0.006496
C81   C     C_1   0.837912 0.000095 0.337321 -0.079368
C82   C     C_1   0.162088 0.000093 0.662676 -0.079384
C83   C     C_1   0.337912 0.500073 0.337312 -0.079258
C84   C     C_1   0.662088 0.500077 0.662687 -0.079264
C85   C     C_1   0.875177 0.000023 0.374834 -0.178253
C86   C     C_1   0.124823 0.000023 0.625164 -0.178255
C87   C     C_1   0.375177 0.500018 0.374827 -0.178381
C88   C     C_1   0.624823 0.500019 0.625173 -0.178371
C89   C     C_R   0.062023 0.133198 0.710657 0.494338
C90   C     C_R   0.938007 0.133212 0.289380 0.494345
C91   C     C_R   0.561806 0.633335 0.710565 0.494145
C92   C     C_R   0.438190 0.633333 0.289428 0.494140
C93   C     C_1   0.624725 0.000126 0.124070 -0.165943
C94   C     C_1   0.375275 0.000126 0.875930 -0.165943
C95   C     C_1   0.124724 0.500120 0.124070 -0.165955
C96   C     C_1   0.875276 0.500121 0.875930 -0.165954
C97   C     C_R   1.000000 0.919310 1.000000 0.871321
C98   C     C_R   0.500000 0.419310 1.000000 0.871269
C99   C     C_R   0.000148 0.999663 0.879908 0.952297
C100  C     C_R   0.999851 0.999662 0.120091 0.952328
C101  C     C_R   0.500148 0.499661 0.879909 0.952359
C102  C     C_R   0.499851 0.499660 0.120091 0.952351
C103  C     C_R   0.000000 0.080681 0.000000 0.947647
C104  C     C_R   0.500000 0.580681 0.000000 0.947696
C105  C     C_R   0.500000 0.919511 1.000000 0.901119
C106  C     C_R   1.000000 0.419510 1.000000 0.901035
C107  C     C_R   0.580521 0.000015 0.080287 0.895877
C108  C     C_R   0.419479 0.000015 0.919713 0.895876
C109  C     C_R   0.080521 0.500015 0.080287 0.895843
C110  C     C_R   0.919479 0.500015 0.919713 0.895841
C111  C     C_R   0.500000 0.080609 0.000000 0.900000
C112  C     C_R   0.000000 0.580608 0.000000 0.899999
C113  C     C_R   0.462168 0.228329 0.962590 -0.166385
C114  C     C_R   0.537832 0.228330 0.037411 -0.166386
C115  C     C_R   0.962168 0.728328 0.962473 -0.166342
C116  C     C_R   0.037832 0.728329 0.037542 -0.166332
C117  C     C_R   0.500000 0.206687 0.000001 0.165137
C118  C     C_R   0.000000 0.706687 0.000007 0.165180
C119  C     C_R   0.037829 0.771778 0.037495 -0.179165
C120  C     C_R   0.962171 0.771777 0.962519 -0.178997
C121  C     C_R   0.537829 0.271778 0.037366 -0.179035
C122  C     C_R   0.462170 0.271777 0.962633 -0.179036
C123  C     C_R   0.038274 0.103860 0.719599 -0.120121
C124  C     C_R   0.961752 0.103871 0.280430 -0.120168
C125  C     C_R   0.538121 0.603943 0.719569 -0.120373
C126  C     C_R   0.461875 0.603940 0.280425 -0.120359
C127  C     C_R   1.000000 0.793390 0.000006 0.182526
C128  C     C_R   0.500000 0.293390 0.999999 0.182056
C129  C     C_1   0.500000 0.162234 0.000001 -0.057030
C130  C     C_1   0.000000 0.662234 0.000004 -0.057035
C131  C     C_1   1.000000 0.837794 0.000003 -0.001738
C132  C     C_1   0.499999 0.337794 0.999999 -0.001847
C133  C     C_1   1.000000 0.875093 0.000001 -0.133129
C134  C     C_1   0.499999 0.375093 0.999999 -0.133094
C135  C     C_1   0.500000 0.124897 0.000001 -0.162662
C136  C     C_1   0.000000 0.624897 0.000002 -0.162636
C137  C     C_R   0.492822 0.771811 0.937821 -0.168026
C138  C     C_R   0.507179 0.771812 0.062177 -0.168023
C139  C     C_R   0.989567 0.271811 0.935752 -0.167988
C140  C     C_R   0.010434 0.271812 0.064247 -0.167989
C141  C     C_R   0.500001 0.793450 0.999999 0.156821
C142  C     C_R   0.000001 0.293451 0.999999 0.157006
C143  C     C_R   0.010432 0.228358 0.064246 -0.163314
C144  C     C_R   0.989570 0.228357 0.935754 -0.163314
C145  C     C_R   0.507176 0.728357 0.062176 -0.163421
C146  C     C_R   0.492825 0.728356 0.937823 -0.163421
C147  C     C_R   0.000001 0.206721 1.000000 0.155702
C148  C     C_R   0.500001 0.706721 0.999999 0.155395
C149  C     C_1   0.500000 0.837898 0.999999 -0.055678
C150  C     C_1   0.000000 0.337898 0.999999 -0.055636
C151  C     C_R   0.051241 0.062129 0.736173 0.023707
C152  C     C_R   0.948776 0.062143 0.263844 0.023730
C153  C     C_R   0.551138 0.562222 0.736087 0.023867
C154  C     C_R   0.448859 0.562219 0.263913 0.023863
C155  C     C_1   0.000001 0.162279 0.000000 -0.048146
C156  C     C_1   0.500001 0.662278 1.000000 -0.048163
C157  C     C_1   0.000000 0.124951 0.000000 -0.135565
C158  C     C_1   0.500000 0.624950 1.000000 -0.135456
C159  C     C_1   0.500000 0.875231 0.999999 -0.161946
C160  C     C_1   0.000000 0.375230 0.999999 -0.161944
C161  C     C_R   0.088293 0.049789 0.743799 -0.145506
C162  C     C_R   0.911722 0.049807 0.256214 -0.145466
C163  C     C_R   0.588175 0.549948 0.743595 -0.145264
C164  C     C_R   0.411824 0.549945 0.256412 -0.145267
C165  C     C_R   0.112179 0.078915 0.735122 -0.146977
C166  C     C_R   0.887842 0.078937 0.264899 -0.146981
C167  C     C_R   0.611994 0.579128 0.734847 -0.146741
C168  C     C_R   0.388006 0.579125 0.265159 -0.146724
C169  C     C_R   0.099204 0.120431 0.718538 -0.221750
C170  C     C_R   0.900824 0.120450 0.281494 -0.221757
C171  C     C_R   0.598970 0.620632 0.718322 -0.221859
C172  C     C_R   0.401028 0.620630 0.281678 -0.221863
C173  C     C_R   0.024127 0.030960 0.807775 0.386730
C174  C     C_R   0.975888 0.030970 0.192239 0.386704
C175  C     C_R   0.524087 0.530989 0.807744 0.386620
C176  C     C_R   0.475909 0.530986 0.192254 0.386618
H1    H     H_    0.118075 0.142542 0.711843 0.139210
H2    H     H_    0.881956 0.142563 0.288195 0.139208
H3    H     H_    0.617791 0.642786 0.711573 0.139221
H4    H     H_    0.382208 0.642784 0.288427 0.139224
H5    H     H_    0.906252 0.838221 0.799068 0.173941
H6    H     H_    0.093581 0.838126 0.200754 0.173928
H7    H     H_    0.406500 0.338085 0.799347 0.173945
H8    H     H_    0.593511 0.338092 0.200662 0.173946
H9    H     H_    0.711314 0.998255 0.111321 0.183260
H10   H     H_    0.288685 0.998260 0.888677 0.183261
H11   H     H_    0.211309 0.498816 0.111294 0.183273
H12   H     H_    0.788688 0.498781 0.888702 0.183277
H13   H     H_    0.710306 0.002443 0.308476 0.183981
H14   H     H_    0.289696 0.002432 0.691526 0.183979
H15   H     H_    0.210309 0.501815 0.308505 0.183981
H16   H     H_    0.789693 0.501861 0.691501 0.183977
H17   H     H_    0.981478 0.211671 0.885909 0.154631
H18   H     H_    0.018523 0.211674 0.114090 0.154632
H19   H     H_    0.487259 0.711668 0.889587 0.155093
H20   H     H_    0.512743 0.711670 0.110412 0.155093
H21   H     H_    0.487251 0.788496 0.889582 0.152090
H22   H     H_    0.512750 0.788498 0.110417 0.152090
H23   H     H_    0.981470 0.288493 0.885904 0.151854
H24   H     H_    0.018531 0.288495 0.114094 0.151854
H25   H     H_    0.009589 0.113505 0.713334 0.165677
H26   H     H_    0.990439 0.113511 0.286699 0.165678
H27   H     H_    0.509447 0.613536 0.713394 0.165715
H28   H     H_    0.490548 0.613534 0.286595 0.165718
H29   H     H_    0.140749 0.069307 0.741058 0.165713
H30   H     H_    0.859270 0.069331 0.258961 0.165691
H31   H     H_    0.640549 0.569569 0.740680 0.165723
H32   H     H_    0.359452 0.569566 0.259331 0.165740
H33   H     H_    0.964519 0.945026 0.656843 0.177631
H34   H     H_    0.035447 0.945003 0.343119 0.177660
H35   H     H_    0.464610 0.444967 0.656938 0.177685
H36   H     H_    0.535394 0.444970 0.343065 0.177682
O1    O     O_R   0.939010 0.034440 0.439030 -0.609568
O2    O     O_R   0.060990 0.034440 0.560970 -0.609563
O3    O     O_R   0.439010 0.534440 0.439030 -0.609564
O4    O     O_R   0.560990 0.534440 0.560970 -0.609569
O5    O     O_R   0.561000 0.000050 0.112670 -0.611661
O6    O     O_R   0.439000 0.000050 0.887330 -0.611661
O7    O     O_R   0.061000 0.500050 0.112670 -0.611712
O8    O     O_R   0.939000 0.500050 0.887330 -0.611711
O9    O     O_R   0.561000 0.999980 0.009230 -0.612084
O10   O     O_R   0.439000 0.999980 0.990770 -0.612085
O11   O     O_R   0.061000 0.499980 0.009230 -0.612028
O12   O     O_R   0.939000 0.499980 0.990770 -0.612028
O13   O     O_R   0.500000 0.061030 0.051640 -0.611582
O14   O     O_R   0.500000 0.061030 0.948360 -0.611581
O15   O     O_R   1.000000 0.561030 0.051640 -0.611580
O16   O     O_R   1.000000 0.561030 0.948360 -0.611576
O17   O     O_R   0.939030 0.965580 0.439000 -0.612920
O18   O     O_R   0.060970 0.965580 0.561000 -0.612924
O19   O     O_R   0.439030 0.465580 0.439000 -0.612923
O20   O     O_R   0.560970 0.465580 0.561000 -0.612919
O21   O     O_R   0.000000 0.034440 0.591610 -0.609146
O22   O     O_R   0.000000 0.034440 0.408390 -0.609146
O23   O     O_R   0.500000 0.534440 0.591610 -0.609086
O24   O     O_R   0.500000 0.534440 0.408390 -0.609087
O25   O     O_R   0.000010 0.965580 0.591580 -0.628921
O26   O     O_R   0.999990 0.965580 0.408420 -0.628922
O27   O     O_R   0.500010 0.465580 0.591580 -0.628936
O28   O     O_R   0.499990 0.465580 0.408420 -0.628936
O29   O     O_R   0.034440 0.939000 0.034360 -0.624079
O30   O     O_R   0.965560 0.939000 0.965640 -0.624081
O31   O     O_R   0.534440 0.439000 0.034360 -0.624077
O32   O     O_R   0.465560 0.439000 0.965640 -0.624077
O33   O     O_R   0.034440 0.999990 0.942780 -0.590484
O34   O     O_R   0.965560 0.999990 0.057220 -0.590518
O35   O     O_R   0.534440 0.499990 0.942780 -0.590623
O36   O     O_R   0.465560 0.499990 0.057220 -0.590614
O37   O     O_R   0.965580 1.000000 0.873940 -0.603950
O38   O     O_R   0.034420 0.000000 0.126060 -0.603881
O39   O     O_R   0.465580 0.500000 0.873940 -0.603812
O40   O     O_R   0.534420 0.500000 0.126060 -0.603821
O41   O     O_R   0.034440 0.060970 0.034440 -0.603579
O42   O     O_R   0.965560 0.060970 0.965560 -0.603577
O43   O     O_R   0.534440 0.560970 0.034440 -0.603535
O44   O     O_R   0.465560 0.560970 0.965560 -0.603535
O45   O     O_R   0.500020 0.939060 0.051770 -0.612199
O46   O     O_R   0.499980 0.939060 0.948230 -0.612200
O47   O     O_R   0.000020 0.439060 0.051770 -0.612147
O48   O     O_R   0.999980 0.439060 0.948230 -0.612147
Zn1   Zn    Zn3+2 0.000000 0.045990 0.500000 1.009854
Zn2   Zn    Zn3+2 0.500000 0.545990 0.500000 1.009831
Zn3   Zn    Zn3+2 0.000000 0.954030 0.500000 0.988818
Zn4   Zn    Zn3+2 0.500000 0.454030 0.500000 0.988758
Zn5   Zn    Zn3+2 0.045990 0.999980 0.045940 1.036731
Zn6   Zn    Zn3+2 0.954010 0.999980 0.954060 1.036708
Zn7   Zn    Zn3+2 0.545990 0.499980 0.045940 1.036765
Zn8   Zn    Zn3+2 0.454010 0.499980 0.954060 1.036769
Zn9   Zn    Zn3+2 0.500010 0.000060 0.069050 0.995901
Zn10  Zn    Zn3+2 0.499990 0.000060 0.930950 0.995900
Zn11  Zn    Zn3+2 0.000010 0.500060 0.069050 0.995970
Zn12  Zn    Zn3+2 0.999990 0.500060 0.930950 0.995972
O49   O     O_3   0.983769 0.824070 0.833660 -0.740048
H37   H     H_    0.965805 0.802444 0.834884 0.334836
O50   O     O_3   0.016074 0.824040 0.166261 -0.740034
H38   H     H_    0.034014 0.802397 0.165005 0.334863
O51   O     O_3   0.484008 0.324023 0.833822 -0.740025
H39   H     H_    0.466080 0.302377 0.835109 0.334889
O52   O     O_3   0.516002 0.324027 0.166174 -0.740029
H40   H     H_    0.533931 0.302382 0.164890 0.334887
H41   H     H_    0.012202 0.892768 0.813933 0.195695
H42   H     H_    0.987715 0.892771 0.186057 0.195716
H43   H     H_    0.512339 0.392761 0.813983 0.195717
H44   H     H_    0.487666 0.392763 0.186009 0.195714
O53   O     O_3   0.790848 0.997669 0.175955 -0.753878
H45   H     H_    0.821435 0.996837 0.211121 0.336395
O54   O     O_3   0.209150 0.997670 0.824041 -0.753886
H46   H     H_    0.178563 0.996824 0.788873 0.336389
O55   O     O_3   0.290844 0.498281 0.175918 -0.753940
H47   H     H_    0.321428 0.497327 0.211071 0.336341
O56   O     O_3   0.709154 0.498246 0.824078 -0.753927
H48   H     H_    0.678569 0.497310 0.788922 0.336341
O57   O     O_3   0.789635 0.002692 0.403043 -0.742911
H49   H     H_    0.820286 0.002573 0.429322 0.350466
O58   O     O_3   0.210367 0.002676 0.596957 -0.742908
H50   H     H_    0.179716 0.002550 0.570677 0.350469
O59   O     O_3   0.289638 0.501954 0.403071 -0.742893
H51   H     H_    0.320289 0.501818 0.429352 0.350469
O60   O     O_3   0.710364 0.502009 0.596934 -0.742893
H52   H     H_    0.679713 0.501879 0.570656 0.350470
H53   H     H_    0.932833 0.788486 0.933335 0.147573
H54   H     H_    0.067166 0.788488 0.066679 0.147627
H55   H     H_    0.432833 0.288485 0.933543 0.147758
H56   H     H_    0.567167 0.288486 0.066455 0.147755
H57   H     H_    0.432817 0.211650 0.933535 0.147957
H58   H     H_    0.567183 0.211651 0.066467 0.147957
H59   H     H_    0.932818 0.711647 0.933321 0.147930
H60   H     H_    0.067183 0.711648 0.066694 0.147944
O61   O     O_3   0.048138 0.173847 0.694234 -0.760677
H61   H     H_    0.068247 0.190509 0.689661 0.334760
O62   O     O_3   0.951900 0.173859 0.305813 -0.760678
H62   H     H_    0.931793 0.190524 0.310389 0.334759
O63   O     O_3   0.547873 0.673970 0.694204 -0.760953
H63   H     H_    0.567940 0.690676 0.689577 0.334719
O64   O     O_3   0.452122 0.673970 0.305783 -0.760950
H64   H     H_    0.432056 0.690676 0.310410 0.334719
H65   H     H_    0.098548 0.017645 0.756251 0.134068
H66   H     H_    0.901461 0.017666 0.243754 0.134058
H67   H     H_    0.598468 0.517814 0.756001 0.133857
H68   H     H_    0.401532 0.517810 0.244010 0.133851
O65   O     O_3   0.044736 0.060214 0.864152 -0.763111
H69   H     H_    0.064227 0.076832 0.858178 0.347171
O66   O     O_3   0.955294 0.060233 0.135877 -0.763134
H70   H     H_    0.935813 0.076863 0.141861 0.347170
O67   O     O_3   0.544658 0.560268 0.864086 -0.763363
H71   H     H_    0.564175 0.576867 0.858153 0.347074
O68   O     O_3   0.455335 0.560261 0.135910 -0.763356
H72   H     H_    0.435813 0.576855 0.141838 0.347076
O69   O     O_3   0.896196 0.972978 0.718132 -0.744606
H73   H     H_    0.866014 0.966841 0.686303 0.342052
O70   O     O_3   0.103772 0.972892 0.281748 -0.744578
H74   H     H_    0.133950 0.966733 0.313539 0.342042
O71   O     O_3   0.396259 0.472844 0.718296 -0.744522
H75   H     H_    0.366083 0.466674 0.686508 0.342066
O72   O     O_3   0.603745 0.472850 0.281720 -0.744524
H76   H     H_    0.633922 0.466681 0.313507 0.342066
O73   O     O_3   0.860123 0.904051 0.752826 -0.745040
H77   H     H_    0.854119 0.933401 0.757891 0.340025
O74   O     O_3   0.139758 0.903922 0.246960 -0.745047
H78   H     H_    0.145777 0.933266 0.241885 0.340018
O75   O     O_3   0.360303 0.403866 0.753127 -0.745041
H79   H     H_    0.354278 0.433208 0.758196 0.340037
O76   O     O_3   0.639707 0.403875 0.246893 -0.745039
H80   H     H_    0.645734 0.433218 0.241830 0.340032

loop_
_geom_bond_atom_site_label_1
_geom_bond_atom_site_label_2
_ccdc_geom_bond_type
O19   Zn4   S    
C112  O16   A    
C55   C59   A    
O56   H48   S    
C75   O55   S    
O73   H77   S    
C91   O63   S    
C62   H14   S    
O71   H75   S    
C170  H2    S    
C4    O20   A    
O31   Zn7   S    
C26   C50   A    
C139  C142  A    
C155  C157  T    
C138  C145  A    
C3    O3    A    
C29   C33   A    
C9    C13   A    
C76   O56   S    
C163  H67   S    
C42   H42   S    
C54   C74   A    
C11   C15   A    
O22   Zn1   S    
C113  C122  A    
C12   C16   A    
C151  C161  A    
C70   C74   A    
C168  H32   S    
C147  C155  S    
C98   O32   A    
O44   Zn8   S    
C61   H13   S    
O26   Zn3   S    
C41   C49   A    
C64   H16   S    
C24   C154  S    
C47   O23   A    
C165  C169  A    
C27   C31   A    
O66   H70   S    
C111  O13   A    
C137  C146  A    
C28   C32   A    
C121  C128  A    
C95   C109  S    
C30   C34   A    
C103  C157  S    
C167  C171  A    
C6    C174  A    
C17   C21   A    
C114  H58   S    
C19   C23   A    
O40   Zn7   S    
C36   C40   A    
C68   C72   A    
C115  C118  A    
C123  H25   S    
C72   C84   S    
C43   H43   S    
C126  C154  A    
C137  H21   S    
C2    O2    A    
O23   Zn2   S    
C21   C173  A    
C23   C153  S    
C10   C14   A    
O29   Zn5   S    
C24   C176  A    
C120  H53   S    
C145  C148  A    
O21   Zn1   S    
C30   O74   S    
C65   C69   A    
O42   Zn6   S    
C91   C125  A    
C53   C73   A    
O33   Zn5   S    
C84   C88   T    
O38   Zn5   S    
C140  C142  A    
C138  C141  A    
C57   C61   A    
C78   C94   T    
C59   C63   A    
C91   C171  A    
C60   C64   A    
C126  H28   S    
C156  C158  T    
C140  H24   S    
C112  C136  S    
C89   C169  A    
O14   Zn10  S    
C66   C70   A    
C92   C172  A    
C116  C118  A    
O7    Zn11  S    
C173  O65   S    
C70   C82   S    
C45   O25   A    
O72   H76   S    
C61   C65   A    
O11   Zn12  S    
C132  C134  T    
O65   H69   S    
C103  O42   A    
C35   H7    S    
C161  C165  A    
C29   O73   S    
C105  O46   A    
C4    O4    A    
O2    Zn1   S    
C140  C143  A    
C97   C133  S    
C99   O37   A    
C43   C51   A    
C120  C127  A    
C153  C163  A    
C46   O22   A    
C154  C164  A    
C17   C45   S    
C19   C47   S    
C161  H65   S    
C145  H20   S    
C97   O30   A    
C107  O5    A    
C40   O52   S    
C27   O71   S    
C117  C129  S    
C109  O11   A    
C55   C75   A    
C44   C52   A    
C164  H68   S    
O51   H39   S    
O10   Zn9   S    
O3    Zn2   S    
C171  H3    S    
O28   Zn4   S    
C144  C147  A    
O8    Zn12  S    
C169  H1    S    
C27   C51   A    
C71   C83   S    
C62   C66   A    
C13   H33   S    
C9    C49   S    
O16   Zn12  S    
C3    O19   A    
C175  O67   S    
C143  H18   S    
O1    Zn1   S    
C6    C100  S    
C63   C67   A    
C5    C9    A    
O57   H49   S    
C8    C12   A    
O55   H47   S    
C42   C50   A    
C113  C117  A    
C166  C170  A    
C106  O47   A    
C47   O27   A    
O45   Zn9   S    
O47   Zn11  S    
C60   C80   S    
O20   Zn4   S    
C18   C22   A    
C5    C173  A    
C115  H59   S    
C104  C158  S    
C32   C36   A    
C26   C30   A    
C4    C88   S    
C166  H30   S    
C13   C17   A    
O4    Zn2   S    
C106  C160  S    
O43   Zn7   S    
C74   O54   S    
C21   C151  S    
C119  H54   S    
C37   C41   A    
C114  C117  A    
C100  O34   A    
C2    O18   A    
C40   C44   A    
C7    C101  S    
C146  H19   S    
O34   Zn6   S    
C32   O76   S    
C81   C85   T    
O9    Zn10  S    
C119  C127  A    
C58   C62   A    
C83   C87   T    
O24   Zn2   S    
O25   Zn3   S    
O50   H38   S    
O76   H80   S    
C110  O12   A    
C15   C19   A    
O6    Zn10  S    
C104  O43   A    
C150  C160  T    
C45   O21   A    
C38   O50   S    
C23   C175  A    
C44   H44   S    
O69   H73   S    
C48   O28   A    
C162  C166  A    
C114  C121  A    
C5    C99   S    
O52   H40   S    
C69   C73   A    
C99   O33   A    
C108  O6    A    
C172  H4    S    
C116  H60   S    
C92   O64   S    
O64   H64   S    
C112  O15   A    
C67   O59   S    
C25   C29   A    
C101  O39   A    
C18   C46   S    
C12   C52   S    
C1    O1    A    
C146  C148  A    
O17   Zn3   S    
C143  C147  A    
C123  C151  A    
C121  H56   S    
C122  H55   S    
C57   C77   S    
C162  H66   S    
C59   C79   S    
O58   H50   S    
C53   C57   A    
C82   C86   T    
C96   C110  S    
C33   C37   A    
C56   C60   A    
C124  H26   S    
O48   Zn12  S    
C35   C39   A    
O60   H52   S    
C79   C95   T    
O53   H45   S    
C118  C130  S    
O74   H78   S    
C164  C168  A    
C8    C176  A    
O13   Zn9   S    
C98   O31   A    
C20   C48   S    
C33   H5    S    
C103  O41   A    
C31   C35   A    
C10   C50   S    
C64   C68   A    
C90   O62   S    
C137  C141  A    
C125  H27   S    
C105  O45   A    
C111  O14   A    
C90   C124  A    
C92   C126  A    
C6    C10   A    
C41   H41   S    
C142  C150  S    
C127  C131  S    
O68   H72   S    
O70   H74   S    
O12   Zn11  S    
C111  C135  S    
O63   H63   S    
C105  C159  S    
C66   O58   S    
C63   H15   S    
C77   C93   T    
C67   C71   A    
C122  C128  A    
O67   H71   S    
O46   Zn10  S    
C25   C49   A    
C69   C81   S    
C58   C78   S    
C97   O29   A    
C73   O53   S    
C168  C172  A    
C54   H10   S    
C148  C156  S    
O39   Zn8   S    
C152  C162  A    
O62   H62   S    
C56   C76   A    
O59   H51   S    
C14   C18   A    
C72   C76   A    
C26   O70   S    
C141  C149  S    
C174  O66   S    
O61   H61   S    
C7    C11   A    
C94   C108  S    
C102  O40   A    
C38   C42   A    
C100  O38   A    
C139  H23   S    
C53   H9    S    
C15   H35   S    
C37   O49   S    
C56   H12   S    
C7    C175  A    
C113  H57   S    
C34   H6    S    
C36   H8    S    
C55   H11   S    
C80   C96   T    
C110  O8    A    
C16   C20   A    
O30   Zn6   S    
C124  C152  A    
C129  C135  T    
C106  O48   A    
C128  C132  S    
C109  O7    A    
C22   C174  A    
C125  C153  A    
C25   O69   S    
C1    C85   S    
C68   O60   S    
C22   C152  S    
C14   H34   S    
C3    C87   S    
C20   C24   A    
C16   H36   S    
C102  O36   A    
C39   C43   A    
C144  H17   S    
C89   C123  A    
O41   Zn5   S    
O32   Zn8   S    
C167  H31   S    
O37   Zn6   S    
C163  C167  A    
C31   O75   S    
C65   O57   S    
C108  O10   A    
C139  C144  A    
C39   O51   S    
C90   C170  A    
O49   H37   S    
C149  C159  T    
C48   O24   A    
C138  H22   S    
O15   Zn11  S    
O54   H46   S    
O27   Zn4   S    
C165  H29   S    
C54   C58   A    
C28   O72   S    
O18   Zn3   S    
C34   C38   A    
C130  C136  T    
C131  C133  T    
C89   O61   S    
O36   Zn8   S    
C98   C134  S    
C104  O44   A    
C116  C119  A    
O35   Zn7   S    
C93   C107  S    
C71   C75   A    
C28   C52   A    
O5    Zn9   S    
C2    C86   S    
C46   O26   A    
C11   C51   S    
C176  O68   S    
C1    O17   A    
C115  C120  A    
O75   H79   S    
C8    C102  S    
C107  O9    A    
C101  O35   A    
