data_mof_unit_36403.cif
_audit_creation_date              2012-12-11T14:04:15-0500
_audit_creation_method            fapswitch 2.2
_symmetry_space_group_name_H-M    P1
_symmetry_Int_Tables_number       1
_space_group_crystal_system       triclinic
_cell_length_a                    18.970331
_cell_length_b                    10.996709
_cell_length_c                    18.794879
_cell_angle_alpha                 89.551082
_cell_angle_beta                  90.562816
_cell_angle_gamma                 90.328206
_cell_volume                      3920.45032654

loop_
_atom_site_label
_atom_site_type_symbol
_atom_type_description
_atom_site_fract_x
_atom_site_fract_y
_atom_site_fract_z
_atom_type_partial_charge
C1    C     C_R   0.239709 0.465975 0.647459 0.558376
C2    C     C_R   0.992269 0.670636 0.575732 -0.031227
C3    C     C_3   0.426561 0.648794 0.432956 -0.279467
C4    C     C_R   0.503435 0.154457 0.426573 -0.022030
C5    C     C_R   0.492879 0.171327 0.575350 -0.032472
C6    C     C_R   0.044364 0.864543 0.420731 -0.108658
C7    C     C_R   0.016443 0.893255 0.564718 -0.077596
C8    C     C_R   0.548049 0.361952 0.419889 -0.111853
C9    C     C_R   0.520531 0.393061 0.563765 -0.066628
C10   C     C_R   0.062822 0.972010 0.454554 -0.134542
C11   C     C_R   0.047275 0.987543 0.525913 -0.091421
C12   C     C_R   0.568341 0.468716 0.453507 -0.136150
C13   C     C_R   0.760696 0.467013 0.353156 0.538821
C14   C     C_R   0.553214 0.485381 0.524882 -0.083789
C15   C     C_R   0.007122 0.776994 0.534239 0.003816
C16   C     C_R   0.016407 0.766250 0.459931 0.008211
C17   C     C_R   0.509329 0.276947 0.533615 0.006670
C18   C     C_R   0.518429 0.265399 0.459321 0.006899
C19   C     C_R   0.975488 0.561087 0.540896 -0.024848
C20   C     C_R   0.994753 0.548683 0.469770 -0.016965
C21   C     C_R   0.474805 0.062191 0.540624 -0.023962
C22   C     C_R   0.494062 0.048896 0.469595 -0.011143
C23   C     C_R   0.950437 0.458208 0.578635 -0.098151
C24   C     C_R   0.739760 0.965834 0.647509 0.564590
C25   C     C_R   0.004759 0.430118 0.443434 -0.107893
C26   C     C_R   0.448217 0.960279 0.578161 -0.096505
C27   C     C_R   0.503901 0.930054 0.443658 -0.102471
C28   C     C_R   0.959433 0.341068 0.552001 0.165922
C29   C     C_R   0.984555 0.327053 0.482531 0.156740
C30   C     C_R   0.455964 0.842703 0.551473 0.165760
C31   C     C_R   0.483522 0.827466 0.483022 0.156638
C32   C     C_2   0.255619 0.925678 0.917478 -0.109212
C33   C     C_2   0.742120 0.937620 0.085819 -0.107063
C34   C     C_2   0.739223 0.395054 0.929150 -0.102638
C35   C     C_R   0.260161 0.965703 0.352419 0.543866
C36   C     C_2   0.242082 0.437339 0.085757 -0.111391
C37   C     C_2   0.254021 0.937364 0.073614 -0.092889
C38   C     C_2   0.728025 0.988500 0.933243 -0.099812
C39   C     C_2   0.747033 0.397128 0.085554 -0.108393
C40   C     C_2   0.228354 0.487738 0.933168 -0.097585
C41   C     C_R   0.211293 0.836745 0.639689 0.570445
C42   C     C_R   0.788394 0.836084 0.360561 0.564277
C43   C     C_R   0.727098 0.375376 0.648051 0.558420
C44   C     C_R   0.288145 0.336728 0.360569 0.565537
C45   C     C_2   0.227547 0.022640 0.029127 -0.146196
C46   C     C_2   0.271832 0.806198 0.528344 -0.173903
C47   C     C_2   0.763662 0.060806 0.978144 -0.161665
C48   C     C_2   0.688320 0.417911 0.048198 -0.158878
C49   C     C_2   0.263150 0.560927 0.978231 -0.163950
C50   C     C_2   0.216031 0.002433 0.953864 -0.161443
C51   C     C_2   0.778658 0.024953 0.052013 -0.156551
C52   C     C_2   0.683382 0.390891 0.972920 -0.154108
C53   C     C_2   0.278472 0.524870 0.051985 -0.157483
C54   C     C_2   0.000610 0.660774 0.921434 -0.126851
C55   C     C_2   0.998972 0.661918 0.078059 -0.129157
C56   C     C_2   0.501529 0.160203 0.922009 -0.125932
C57   C     C_2   0.724082 0.807056 0.471325 -0.168907
C58   C     C_2   0.500401 0.162267 0.078735 -0.131388
C59   C     C_2   0.008423 0.561301 0.038557 -0.050747
C60   C     C_2   0.991039 0.560614 0.961970 -0.052582
C61   C     C_2   0.510755 0.061651 0.039538 -0.050249
C62   C     C_2   0.493539 0.059888 0.962898 -0.049299
C63   C     C_R   0.026675 0.656559 0.646512 0.531566
C64   C     C_R   0.972426 0.653415 0.354203 0.525160
C65   C     C_R   0.526823 0.156648 0.646360 0.538226
C66   C     C_R   0.472560 0.153385 0.354061 0.525861
C67   C     C_R   0.224412 0.518546 0.858291 0.571716
C68   C     C_2   0.786203 0.350126 0.537153 -0.168655
C69   C     C_R   0.760311 0.463581 0.150527 0.556079
C70   C     C_R   0.724352 0.018757 0.858256 0.568248
C71   C     C_R   0.261705 0.970209 0.147615 0.551527
C72   C     C_R   0.228650 0.874874 0.851884 0.557756
C73   C     C_R   0.771220 0.876802 0.148404 0.568048
C74   C     C_R   0.726044 0.369431 0.854789 0.548835
C75   C     C_R   0.271241 0.376679 0.148350 0.564170
C76   C     C_R   0.028226 0.651952 0.850006 0.546123
C77   C     C_R   0.971690 0.652690 0.149810 0.552774
C78   C     C_R   0.528482 0.151851 0.850239 0.542615
C79   C     C_2   0.223313 0.308871 0.470971 -0.166604
C80   C     C_R   0.471936 0.152763 0.150006 0.551633
C81   C     C_2   0.228909 0.873462 0.567868 -0.103677
C82   C     C_2   0.770759 0.870863 0.432505 -0.103972
C83   C     C_2   0.750124 0.422944 0.580019 -0.112886
C84   C     C_2   0.270206 0.372294 0.432256 -0.104490
C85   C     C_2   0.241880 0.891756 0.413524 -0.121591
C86   C     C_2   0.757527 0.895391 0.585289 -0.116719
C87   C     C_2   0.747482 0.404152 0.419433 -0.124585
C88   C     C_2   0.257230 0.395964 0.585057 -0.113392
C89   C     C_2   0.291196 0.848678 0.457518 -0.171728
C90   C     C_R   0.003034 0.654835 0.426896 -0.021715
C91   C     C_2   0.707897 0.843485 0.544257 -0.167590
C92   C     C_2   0.800607 0.387382 0.464953 -0.175784
C93   C     C_2   0.207301 0.345240 0.543887 -0.162695
C94   C     C_1   0.031850 0.447373 0.070619 0.242437
C95   C     C_1   0.966897 0.446554 0.931099 0.242516
C96   C     C_1   0.534263 0.948263 0.072230 0.241967
C97   C     C_1   0.470965 0.944544 0.932453 0.248013
C98   C     C_3   0.002063 0.225659 0.652792 -0.280933
C99   C     C_3   0.919523 0.155114 0.435102 -0.278335
C100  C     C_3   0.496490 0.722306 0.650919 -0.276358
Cr1   Cr    Cr6+3 0.113970 0.508630 0.747920 1.015644
Cr2   Cr    Cr6+3 0.887700 0.820070 0.250200 1.018825
Cr3   Cr    Cr6+3 0.612300 0.320070 0.749800 1.008189
Cr4   Cr    Cr6+3 0.387700 0.320070 0.250200 1.015604
Cr5   Cr    Cr6+3 0.886030 0.508630 0.252080 1.028156
Cr6   Cr    Cr6+3 0.613970 0.008630 0.747920 1.023297
Cr7   Cr    Cr6+3 0.386030 0.008630 0.252080 1.030312
Cr8   Cr    Cr6+3 0.269200 0.666740 0.749850 1.017221
Cr9   Cr    Cr6+3 0.730800 0.666740 0.250150 1.029505
Cr10  Cr    Cr6+3 0.769200 0.166740 0.749850 1.019897
Cr11  Cr    Cr6+3 0.230800 0.166740 0.250150 1.026812
Cr12  Cr    Cr6+3 0.112300 0.820070 0.749800 1.004908
H1    H     H_    0.346374 0.857423 0.444823 0.165239
H2    H     H_    0.702651 0.904919 0.950498 0.116970
H3    H     H_    0.789717 0.344103 0.063612 0.108638
H4    H     H_    0.204044 0.403065 0.950219 0.110338
H5    H     H_    0.303499 0.887625 0.940418 0.121213
H6    H     H_    0.692987 0.902361 0.064354 0.125966
H7    H     H_    0.792842 0.408743 0.948222 0.110748
H8    H     H_    0.192942 0.401980 0.064284 0.120677
H9    H     H_    0.989286 0.749631 0.053524 0.097949
H10   H     H_    0.010290 0.748735 0.945109 0.099379
H11   H     H_    0.490957 0.249913 0.054039 0.093203
H12   H     H_    0.653696 0.835488 0.561889 0.152439
H13   H     H_    0.510140 0.248699 0.945358 0.086958
H14   H     H_    0.295520 0.723802 0.549347 0.144898
H15   H     H_    0.694503 0.731973 0.448201 0.147011
H16   H     H_    0.801400 0.259075 0.553218 0.151590
H17   H     H_    0.193623 0.233911 0.447862 0.148271
H18   H     H_    0.187017 0.883582 0.427443 0.118508
H19   H     H_    0.812179 0.898373 0.568463 0.107554
H20   H     H_    0.694024 0.384577 0.435266 0.123912
H21   H     H_    0.311886 0.398395 0.568219 0.107635
H22   H     H_    0.205903 0.956691 0.546565 0.117529
H23   H     H_    0.854249 0.409986 0.450790 0.171889
H24   H     H_    0.797878 0.949630 0.454394 0.103274
H25   H     H_    0.731046 0.510768 0.561308 0.111232
H26   H     H_    0.297428 0.450979 0.454148 0.103017
H27   H     H_    0.089379 0.043289 0.425117 0.126588
H28   H     H_    0.059803 0.072706 0.551187 0.152680
H29   H     H_    0.595588 0.538878 0.423806 0.126385
H30   H     H_    0.567016 0.570184 0.550007 0.142622
H31   H     H_    0.057134 0.855542 0.364993 0.125933
H32   H     H_    0.001055 0.912311 0.618675 0.138312
H33   H     H_    0.560315 0.352021 0.364084 0.125033
H34   H     H_    0.153049 0.338078 0.561436 0.152637
H35   H     H_    0.505076 0.413673 0.617483 0.136732
H36   H     H_    0.029027 0.416366 0.392273 0.142527
H37   H     H_    0.929680 0.467948 0.631811 0.132827
H38   H     H_    0.529035 0.915829 0.392958 0.140276
H39   H     H_    0.427521 0.970829 0.631304 0.134814
H40   H     H_    0.208685 0.108961 0.049157 0.163854
H41   H     H_    0.789552 0.142409 0.958133 0.152632
H42   H     H_    0.643958 0.464811 0.071456 0.163862
H43   H     H_    0.288050 0.643627 0.958437 0.144805
H44   H     H_    0.899415 0.234212 0.618422 0.254373
H45   H     H_    0.170368 0.046002 0.929621 0.165294
H46   H     H_    0.996460 0.135130 0.678742 0.132721
H47   H     H_    0.995266 0.296919 0.693737 0.154115
H48   H     H_    0.055952 0.233481 0.630586 0.147485
H49   H     H_    0.019527 0.208785 0.406214 0.230820
H50   H     H_    0.927389 0.064052 0.411505 0.167103
H51   H     H_    0.889317 0.211481 0.396282 0.146470
H52   H     H_    0.888759 0.142525 0.484483 0.168065
H53   H     H_    0.393730 0.741505 0.618410 0.259100
H54   H     H_    0.488964 0.631594 0.676124 0.134007
H55   H     H_    0.492142 0.792996 0.692582 0.151760
H56   H     H_    0.825491 0.064532 0.076447 0.161601
H57   H     H_    0.550174 0.726921 0.627994 0.145498
H58   H     H_    0.527615 0.708132 0.412479 0.230289
H59   H     H_    0.438198 0.555846 0.414085 0.168257
H60   H     H_    0.400213 0.698414 0.388521 0.139784
H61   H     H_    0.390784 0.639869 0.478985 0.167700
H62   H     H_    0.630375 0.376135 0.952093 0.156227
H63   H     H_    0.325259 0.564658 0.076394 0.162156
H64   H     H_    0.273741 0.850686 0.055335 0.091170
N1    N     N_1   0.050384 0.356635 0.095987 -0.305556
N2    N     N_1   0.947564 0.355824 0.906700 -0.305977
N3    N     N_1   0.552785 0.857946 0.098127 -0.302425
N4    N     N_1   0.452972 0.852765 0.908386 -0.304951
N5    N     N_2   0.949173 0.238222 0.597180 -0.515757
N6    N     N_2   0.987358 0.210882 0.450101 -0.511673
N7    N     N_2   0.443151 0.740416 0.596304 -0.511914
N8    N     N_2   0.491463 0.710036 0.453059 -0.512209
O1    O     O_R   0.043230 0.549300 0.667990 -0.519113
O2    O     O_R   0.832470 0.905110 0.169660 -0.509294
O3    O     O_R   0.667530 0.405110 0.830340 -0.508827
O4    O     O_R   0.332470 0.405110 0.169660 -0.507815
O5    O     O_R   0.054010 0.748440 0.822860 -0.499673
O6    O     O_R   0.945990 0.748440 0.177140 -0.497995
O7    O     O_R   0.554010 0.248440 0.822860 -0.507609
O8    O     O_R   0.445990 0.248440 0.177140 -0.500394
O9    O     O_3   0.165160 0.665150 0.749190 -0.282955
O10   O     O_3   0.834840 0.665150 0.250810 -0.263002
O11   O     O_3   0.665160 0.165150 0.749190 -0.269750
O12   O     O_R   0.956770 0.549300 0.332010 -0.527060
O13   O     O_3   0.334840 0.165150 0.250810 -0.263605
O14   O     O_R   0.178620 0.457600 0.674100 -0.493024
O15   O     O_R   0.821380 0.457600 0.325900 -0.498723
O16   O     O_R   0.678620 0.957600 0.674100 -0.491252
O17   O     O_R   0.321380 0.957600 0.325900 -0.495619
O18   O     O_R   0.284680 0.542100 0.669460 -0.528706
O19   O     O_R   0.715320 0.542100 0.330540 -0.538040
O20   O     O_R   0.784680 0.042100 0.669460 -0.522986
O21   O     O_R   0.215320 0.042100 0.330540 -0.537222
O22   O     O_R   0.262860 0.790390 0.676650 -0.505467
O23   O     O_R   0.543230 0.049300 0.667990 -0.518016
O24   O     O_R   0.737140 0.790390 0.323350 -0.495467
O25   O     O_R   0.762860 0.290390 0.676650 -0.506310
O26   O     O_R   0.237140 0.290390 0.323350 -0.494163
O27   O     O_R   0.167460 0.907030 0.670940 -0.517354
O28   O     O_R   0.832540 0.907030 0.329060 -0.523854
O29   O     O_R   0.667460 0.407030 0.670940 -0.514462
O30   O     O_R   0.332540 0.407030 0.329060 -0.522393
O31   O     O_R   0.053950 0.750220 0.675100 -0.520610
O32   O     O_R   0.946050 0.750220 0.324900 -0.512447
O33   O     O_R   0.553950 0.250220 0.675100 -0.507406
O34   O     O_R   0.456770 0.049300 0.332010 -0.525224
O35   O     O_R   0.446050 0.250220 0.324900 -0.512710
O36   O     O_R   0.043300 0.547370 0.827390 -0.503875
O37   O     O_R   0.956700 0.547370 0.172610 -0.490207
O38   O     O_R   0.543300 0.047370 0.827390 -0.503535
O39   O     O_R   0.456700 0.047370 0.172610 -0.489917
O40   O     O_R   0.178690 0.455820 0.821860 -0.494961
O41   O     O_R   0.821310 0.455820 0.178140 -0.494759
O42   O     O_R   0.678690 0.955820 0.821860 -0.494743
O43   O     O_R   0.321310 0.955820 0.178140 -0.491288
O44   O     O_R   0.284750 0.540170 0.828860 -0.495721
O45   O     O_R   0.262920 0.788600 0.824420 -0.507733
O46   O     O_R   0.715250 0.540170 0.171140 -0.507584
O47   O     O_R   0.784750 0.040170 0.828860 -0.496867
O48   O     O_R   0.215250 0.040170 0.171140 -0.510529
O49   O     O_R   0.737080 0.788600 0.175580 -0.479616
O50   O     O_R   0.762920 0.288600 0.824420 -0.507378
O51   O     O_R   0.237080 0.288600 0.175580 -0.488990
O52   O     O_R   0.167530 0.905110 0.830340 -0.506715

loop_
_geom_bond_atom_site_label_1
_geom_bond_atom_site_label_2
_ccdc_geom_bond_type
Cr6   O38   S    
Cr5   O12   S    
C65   O33   A    
C21   C26   A    
C38   C70   S    
C16   C90   A    
C55   C59   D    
C31   N8    S    
C43   C83   S    
Cr4   O13   S    
C8    H33   S    
C42   C82   S    
C38   H2    S    
C64   C90   S    
C32   H5    S    
C9    C14   A    
C3    H59   S    
C14   H30   S    
C73   O2    A    
C61   C96   S    
C81   H22   S    
C32   C72   S    
C46   C89   S    
C54   C60   D    
C7    C11   A    
C55   H9    S    
C58   H11   S    
Cr2   O2    S    
C48   H42   S    
C100  H55   S    
C44   O30   A    
C77   O6    A    
C33   C73   S    
C100  H54   S    
C28   C29   A    
C88   H21   S    
C79   C93   S    
C86   C91   D    
C79   C84   D    
C55   C77   S    
C49   C53   S    
C86   H19   S    
C5    C17   A    
C20   C25   A    
C15   C16   A    
Cr4   O8    S    
C41   O22   A    
C56   C78   S    
C12   H29   S    
Cr10  O20   S    
C30   N7    S    
Cr12  O31   S    
H49   N6    S    
C34   C74   S    
C100  N7    S    
C70   O47   A    
C99   N6    S    
Cr8   O18   S    
C76   O5    A    
Cr2   O6    S    
Cr12  O5    S    
C3    H61   S    
C24   O20   A    
C75   O4    A    
C63   O1    A    
C40   C67   S    
Cr7   O43   S    
Cr11  O51   S    
C71   O48   A    
Cr6   O42   S    
C42   O24   A    
C36   C53   D    
C59   C94   S    
Cr5   O41   S    
C74   O50   A    
C58   C61   D    
C57   C91   S    
C3    N8    S    
Cr11  O21   S    
C73   O49   A    
C49   H43   S    
C58   C80   S    
C4    C18   A    
C1    C88   S    
C7    C15   A    
C23   H37   S    
C84   H26   S    
C59   C60   S    
C87   C92   D    
Cr11  O48   S    
C80   O8    A    
C51   H56   S    
C61   C62   S    
Cr3   O11   S    
Cr1   O1    S    
C1    O18   A    
Cr2   O10   S    
C7    H32   S    
Cr1   O9    S    
C62   C97   S    
Cr7   O39   S    
Cr8   O45   S    
C50   H45   S    
C25   C29   A    
Cr5   O10   S    
Cr4   O4    S    
C89   H1    S    
C72   O45   A    
C27   C31   A    
H53   N7    S    
Cr12  O27   S    
C98   H46   S    
Cr9   O19   S    
Cr3   O3    S    
Cr8   O22   S    
C29   N6    S    
Cr6   O23   S    
Cr7   O13   S    
C85   C89   D    
Cr1   O14   S    
C35   O17   A    
C97   N4    T    
C47   C51   S    
C47   H41   S    
C35   O21   A    
Cr12  O52   S    
C20   C90   A    
C9    H35   S    
C8    C18   A    
C72   O52   A    
C94   N1    T    
C41   O27   A    
C87   H20   S    
Cr9   O24   S    
C19   C23   A    
C11   H28   S    
Cr4   O35   S    
C57   H15   S    
C66   O35   A    
Cr8   O9    S    
C36   C75   S    
C85   H18   S    
Cr7   O34   S    
C4    C22   A    
Cr9   O46   S    
C95   N2    T    
Cr5   O15   S    
C30   C31   A    
C8    C12   A    
C41   C81   S    
C13   C87   S    
C17   C18   A    
C39   C69   S    
Cr9   O10   S    
C56   H13   S    
C75   O51   A    
C2    C15   A    
C32   C50   D    
C38   C47   D    
Cr3   O33   S    
C44   O26   A    
C99   H51   S    
Cr1   O40   S    
C5    C65   S    
Cr9   O49   S    
C78   O38   A    
C26   C30   A    
C27   H38   S    
C39   H3    S    
C91   H12   S    
C37   C71   S    
C68   H16   S    
C54   C76   S    
Cr2   O32   S    
C92   H23   S    
Cr3   O7    S    
C23   C28   A    
C37   C45   D    
C43   O29   A    
C52   H62   S    
C83   H25   S    
C42   O28   A    
C2    C63   S    
C53   H63   S    
Cr6   O16   S    
C74   O3    A    
C46   C81   D    
C9    C17   A    
C34   H7    S    
Cr3   O29   S    
C88   C93   D    
C26   H39   S    
C13   O15   A    
H58   N8    S    
C100  H57   S    
C68   C83   D    
C71   O43   A    
C46   H14   S    
C78   O7    A    
C70   O42   A    
C98   H48   S    
C44   C84   S    
C69   O41   A    
C6    C10   A    
H44   N5    S    
Cr7   O17   S    
Cr6   O11   S    
C65   O23   A    
C33   C51   D    
C54   H10   S    
Cr8   O44   S    
C19   C20   A    
C34   C52   D    
C1    O14   A    
C3    H60   S    
C22   C27   A    
C45   H40   S    
C10   C11   A    
C98   N5    S    
C33   H6    S    
C12   C14   A    
Cr11  O26   S    
Cr4   O30   S    
C66   O34   A    
C69   O46   A    
Cr11  O13   S    
C80   O39   A    
C4    C66   S    
C35   C85   S    
Cr1   O36   S    
Cr2   O28   S    
C40   C49   D    
C40   H4    S    
C67   O44   A    
C76   O36   A    
C28   N5    S    
Cr5   O37   S    
C64   O12   A    
C68   C92   S    
C25   H36   S    
C56   C62   D    
C96   N3    T    
C82   H24   S    
C67   O40   A    
C43   O25   A    
Cr12  O9    S    
Cr10  O47   S    
C6    C16   A    
C99   H52   S    
Cr10  O25   S    
C60   C95   S    
C93   H34   S    
C48   C52   S    
C5    C21   A    
C98   H47   S    
C24   O16   A    
C10   H27   S    
Cr10  O11   S    
C57   C82   D    
C77   O37   A    
C45   C50   S    
C63   O31   A    
C6    H31   S    
C21   C22   A    
C99   H50   S    
C24   C86   S    
C36   H8    S    
C64   O32   A    
Cr10  O50   S    
C2    C19   A    
C13   O19   A    
C39   C48   D    
C37   H64   S    
C79   H17   S    
