data_mof_unit_33221.cif
_audit_creation_date              2012-12-10T17:34:56-0500
_audit_creation_method            fapswitch 2.2
_symmetry_space_group_name_H-M    P1
_symmetry_Int_Tables_number       1
_space_group_crystal_system       triclinic
_cell_length_a                    12.064337
_cell_length_b                    12.781462
_cell_length_c                    15.772515
_cell_angle_alpha                 91.829021
_cell_angle_beta                  86.449975
_cell_angle_gamma                 93.333362
_cell_volume                      2422.36698643

loop_
_atom_site_label
_atom_site_type_symbol
_atom_type_description
_atom_site_fract_x
_atom_site_fract_y
_atom_site_fract_z
_atom_type_partial_charge
C1    C     C_R   0.521681 0.698077 0.486134 0.914246
C2    C     C_3   0.416650 0.563668 0.055885 -0.456135
C3    C     C_3   0.499943 0.484017 0.083112 -0.127475
C4    C     C_3   0.458965 0.368263 0.051210 0.464406
C5    C     C_3   0.471073 0.363494 0.948817 0.755751
C6    C     C_1   0.500176 0.490787 0.174827 0.054792
C7    C     C_1   0.498296 0.484759 0.825548 0.003970
C8    C     C_1   0.499044 0.490409 0.750317 -0.274817
C9    C     C_R   0.466466 0.184585 0.496336 -0.311592
C10   C     C_R   0.536131 0.805855 0.459096 -0.181727
C11   C     C_R   0.651228 0.965203 0.456611 -0.308462
C12   C     C_R   0.499895 0.498163 0.661643 0.882992
C13   C     C_R   0.642709 0.856674 0.452006 0.414114
C14   C     C_R   0.442462 0.861455 0.443501 0.130583
C15   C     C_R   0.449170 0.969640 0.458886 0.030448
C16   C     C_R   0.554765 0.021050 0.468124 -0.034349
C17   C     C_R   0.563409 0.127190 0.489189 0.377377
C18   C     C_R   0.360609 0.132287 0.492138 0.414453
C19   C     C_R   0.352928 0.025879 0.470715 -0.307260
C20   C     C_R   0.952729 0.390365 0.431706 -0.287475
C21   C     C_R   0.837687 0.402627 0.435661 -0.007466
C22   C     C_R   0.859660 0.552035 0.528616 0.293689
C23   C     C_R   0.478357 0.298571 0.501964 0.919374
C24   C     C_R   0.978166 0.547580 0.520676 -0.087938
C25   C     C_R   0.023560 0.461925 0.474916 -0.013392
C26   C     C_R   0.139454 0.450027 0.472777 -0.158142
C27   C     C_R   0.166962 0.604453 0.558167 0.466075
C28   C     C_R   0.053225 0.624899 0.556617 0.247065
C29   C     C_R   0.499883 0.499852 0.338545 0.872317
C30   C     C_3   0.401868 0.555461 0.958132 0.594208
C31   C     C_3   0.617717 0.530514 0.945258 0.528908
C32   C     C_3   0.617348 0.524325 0.044737 0.295339
C33   C     C_1   0.499609 0.495947 0.249965 -0.184684
C34   C     C_3   0.498098 0.482548 0.917475 -0.086417
H1    H     H_    0.445056 0.644049 0.077285 0.225876
H2    H     H_    0.334643 0.552751 0.091793 0.197034
H3    H     H_    0.733291 0.004285 0.457318 0.193806
H4    H     H_    0.270964 0.987418 0.466727 0.166876
H5    H     H_    0.175429 0.385234 0.437117 0.197686
H6    H     H_    0.986159 0.325190 0.394855 0.158068
H7    H     H_    0.784098 0.347478 0.401566 0.173231
H8    H     H_    0.679040 0.469867 0.062292 -0.004542
N1    N     N_R   0.207800 0.519340 0.515510 -0.154405
N2    N     N_R   0.792190 0.480660 0.484490 -0.110593
O1    O     O_R   0.421690 0.658830 0.504140 -0.553089
O2    O     O_R   0.609320 0.646410 0.494190 -0.585402
O3    O     O_R   0.406150 0.506210 0.627840 -0.605917
O4    O     O_R   0.593770 0.493790 0.617880 -0.642506
O5    O     O_R   0.390680 0.353590 0.505810 -0.571147
O6    O     O_R   0.578310 0.341170 0.495860 -0.574361
O7    O     O_R   0.406230 0.506210 0.382120 -0.624753
O8    O     O_R   0.593850 0.493790 0.372160 -0.624297
Zn1   Zn    Zn3+2 0.374720 0.508290 0.506640 0.975153
Zn2   Zn    Zn3+2 0.625280 0.491710 0.493360 0.954169
O9    O     O_3   0.292342 0.507503 0.949989 -0.599988
C35   C     C_3   0.245573 0.513011 0.870119 0.188406
H9    H     H_    0.285140 0.459514 0.822314 0.185703
H10   H     H_    0.249185 0.593388 0.846511 0.121248
C36   C     C_3   0.122658 0.478875 0.880030 -0.884130
H11   H     H_    0.078511 0.533789 0.924506 0.247824
H12   H     H_    0.085356 0.478980 0.817377 0.197748
H13   H     H_    0.111657 0.398861 0.905464 0.273699
O10   O     O_3   0.508930 0.280202 0.085266 -0.591191
C37   C     C_3   0.621668 0.287905 0.104477 0.125871
H14   H     H_    0.637673 0.347224 0.155533 0.134999
H15   H     H_    0.676965 0.301343 0.047083 0.165596
C38   C     C_3   0.650611 0.183440 0.138391 -0.819992
H16   H     H_    0.636774 0.119890 0.089839 0.260767
H17   H     H_    0.739332 0.187149 0.153919 0.197523
H18   H     H_    0.597816 0.165201 0.196874 0.260913
O11   O     O_3   0.668168 0.174958 0.499312 -0.592939
C39   C     C_3   0.693278 0.168794 0.585238 0.108073
H19   H     H_    0.681429 0.086934 0.607954 0.126824
H20   H     H_    0.639718 0.220400 0.626082 0.145466
C40   C     C_3   0.814551 0.204806 0.594239 -0.835759
H21   H     H_    0.826420 0.290368 0.584604 0.263854
H22   H     H_    0.839887 0.188284 0.658682 0.210121
H23   H     H_    0.868513 0.162420 0.546721 0.254409
O12   O     O_3   0.264305 0.185646 0.505840 -0.587085
C41   C     C_3   0.218454 0.165136 0.588704 0.110030
H24   H     H_    0.282169 0.176768 0.637054 0.119699
H25   H     H_    0.181287 0.083471 0.591504 0.133354
C42   C     C_3   0.127302 0.240137 0.611916 -0.821279
H26   H     H_    0.065304 0.235478 0.562600 0.260231
H27   H     H_    0.084821 0.219303 0.674071 0.201120
H28   H     H_    0.163915 0.321663 0.616966 0.257442
O13   O     O_3   0.737328 0.799900 0.447684 -0.610145
C43   C     C_3   0.802751 0.821136 0.372003 0.094952
H29   H     H_    0.866337 0.885249 0.384677 0.143448
H30   H     H_    0.752927 0.844034 0.318923 0.131810
C44   C     C_3   0.861689 0.723123 0.342727 -0.812333
H31   H     H_    0.799521 0.658774 0.327563 0.264420
H32   H     H_    0.916671 0.739627 0.285117 0.196451
H33   H     H_    0.913055 0.697684 0.393321 0.253026
C45   C     C_3   0.340909 0.807700 0.405693 -0.849949
H34   H     H_    0.361303 0.732957 0.372090 0.244398
H35   H     H_    0.274687 0.792154 0.455869 0.250856
H36   H     H_    0.309325 0.857551 0.357129 0.221598
C46   C     C_3   0.406331 0.670457 0.925974 -0.858523
H37   H     H_    0.325779 0.706083 0.942931 0.215784
H38   H     H_    0.468493 0.724532 0.955896 0.278905
H39   H     H_    0.423179 0.672484 0.856259 0.221790
O14   O     O_3   0.240577 0.677419 0.593452 -0.589136
C47   C     C_3   0.227176 0.676238 0.682656 0.123357
H40   H     H_    0.246804 0.598553 0.705266 0.132098
H41   H     H_    0.141368 0.693522 0.706545 0.167061
C48   C     C_3   0.306564 0.760504 0.718951 -0.865193
H42   H     H_    0.294769 0.836968 0.690137 0.255701
H43   H     H_    0.289592 0.769159 0.788645 0.199895
H44   H     H_    0.393972 0.739278 0.705088 0.252770
O15   O     O_3   0.016041 0.717978 0.593011 -0.629754
C49   C     C_3   0.055917 0.804549 0.543790 0.130035
H45   H     H_    0.053310 0.787131 0.474238 0.126470
H46   H     H_    0.142032 0.829253 0.559301 0.181856
C50   C     C_3   0.985742 0.897914 0.566308 -0.883294
H47   H     H_    0.987300 0.917537 0.635345 0.258821
H48   H     H_    0.019710 0.966977 0.530156 0.207473
H49   H     H_    0.898488 0.880540 0.549919 0.277639
C51   C     C_3   0.809613 0.631699 0.590095 -0.698552
H50   H     H_    0.720919 0.622623 0.602990 0.256756
H51   H     H_    0.844934 0.626777 0.653143 0.203270
H52   H     H_    0.824710 0.711072 0.564947 0.286879
C52   C     C_3   0.720203 0.471108 0.906449 -0.981105
H53   H     H_    0.799093 0.515791 0.919367 0.209692
H54   H     H_    0.729958 0.394977 0.934699 0.259598
H55   H     H_    0.717586 0.459936 0.836836 0.249826
O16   O     O_3   0.630276 0.640175 0.926021 -0.563671
C53   C     C_3   0.691257 0.668790 0.849476 0.147033
H56   H     H_    0.669102 0.617860 0.794381 0.148020
H57   H     H_    0.781920 0.667523 0.857650 0.150230
C54   C     C_3   0.668215 0.780691 0.828921 -0.883406
H58   H     H_    0.687124 0.834409 0.883534 0.265251
H59   H     H_    0.721311 0.805800 0.772313 0.217799
H60   H     H_    0.579842 0.785855 0.814709 0.247184
O17   O     O_3   0.643909 0.625632 0.081457 -0.560064
C55   C     C_3   0.757756 0.640171 0.097485 0.164004
H61   H     H_    0.812134 0.617000 0.041406 0.131724
H62   H     H_    0.775900 0.593772 0.152992 0.121421
C56   C     C_3   0.784431 0.755600 0.117613 -0.828402
H63   H     H_    0.731298 0.781706 0.173346 0.251420
H64   H     H_    0.873209 0.768262 0.131988 0.194691
H65   H     H_    0.768707 0.802968 0.062200 0.263720
O18   O     O_3   0.369110 0.324730 0.912288 -0.627908
C57   C     C_3   0.338306 0.216343 0.921133 0.129234
H66   H     H_    0.380271 0.179221 0.972243 0.178610
H67   H     H_    0.357913 0.174119 0.860145 0.117070
C58   C     C_3   0.212170 0.199481 0.933942 -0.887497
H68   H     H_    0.172483 0.223363 0.876424 0.251849
H69   H     H_    0.189796 0.115039 0.943736 0.212006
H70   H     H_    0.178065 0.244911 0.989417 0.256081
O19   O     O_3   0.563220 0.300246 0.924824 -0.662825
C59   C     C_3   0.564114 0.246005 0.844942 0.139819
H71   H     H_    0.514319 0.281419 0.797623 0.151236
H72   H     H_    0.533345 0.163835 0.855738 0.139243
C60   C     C_3   0.683070 0.236643 0.808236 -0.916411
H73   H     H_    0.740794 0.229152 0.859604 0.276227
H74   H     H_    0.687454 0.164986 0.766865 0.205663
H75   H     H_    0.710255 0.304906 0.769046 0.248858
C61   C     C_3   0.335694 0.347786 0.087368 -0.753979
H76   H     H_    0.311622 0.262825 0.089188 0.237794
H77   H     H_    0.324720 0.374158 0.154873 0.209168
H78   H     H_    0.272750 0.384889 0.053016 0.267932

loop_
_geom_bond_atom_site_label_1
_geom_bond_atom_site_label_2
_ccdc_geom_bond_type
C2    H1    S    
O13   C43   S    
C60   H74   S    
C45   H34   S    
C56   H64   S    
C58   H68   S    
C31   O16   S    
O9    C35   S    
C3    C6    S    
C53   H56   S    
C47   H41   S    
C45   H36   S    
C7    C8    T    
O4    Zn2   S    
C4    O10   S    
O6    Zn2   S    
C42   H26   S    
C58   H69   S    
C39   C40   S    
C20   H6    S    
C56   H65   S    
C1    O2    A    
C52   H54   S    
C4    C61   S    
C20   C25   A    
O18   C57   S    
C29   C33   S    
C35   H9    S    
C18   C19   A    
C11   H3    S    
C35   C36   S    
C49   H45   S    
N1    Zn1   S    
C22   N2    A    
C46   H37   S    
C18   O12   S    
C50   H48   S    
C46   H39   S    
O19   C59   S    
C61   H77   S    
O2    Zn2   S    
C12   O4    A    
O3    Zn1   S    
C54   H60   S    
O17   C55   S    
O1    Zn1   S    
C36   H11   S    
C60   H75   S    
C48   H43   S    
C57   C58   S    
C3    C32   S    
C23   O6    A    
C12   O3    A    
C49   H46   S    
C47   H40   S    
O8    Zn2   S    
C26   N1    A    
C51   H51   S    
C28   O15   S    
C22   C51   S    
C36   H12   S    
C30   C34   S    
C38   H16   S    
C37   C38   S    
C52   H53   S    
C58   H70   S    
C24   C25   A    
C39   H19   S    
C57   H67   S    
C10   C14   A    
C44   H31   S    
C16   C17   A    
C52   H55   S    
C25   C26   A    
C30   C46   S    
O12   C41   S    
C38   H17   S    
C55   C56   S    
C15   C19   A    
C40   H21   S    
C19   H4    S    
C27   N1    A    
C44   H32   S    
C21   N2    A    
C11   C16   A    
C61   H76   S    
C59   C60   S    
C8    C12   S    
C50   H49   S    
C5    C34   S    
C13   O13   S    
C61   H78   S    
C20   C21   A    
C51   H50   S    
C40   H22   S    
C21   H7    S    
C39   H20   S    
C46   H38   S    
C59   H72   S    
C17   O11   S    
C7    C34   S    
C22   C24   A    
C48   H42   S    
C3    C4    S    
C53   C54   S    
C14   C45   S    
C60   H73   S    
C31   C34   S    
C55   H62   S    
C41   C42   S    
C29   O7    A    
C51   H52   S    
C2    H2    S    
C36   H13   S    
O15   C49   S    
C42   H27   S    
C31   C32   S    
C9    C23   S    
C1    C10   S    
C24   C28   A    
C43   H30   S    
C41   H24   S    
C54   H59   S    
C10   C13   A    
C53   H57   S    
C32   O17   S    
C56   H63   S    
C45   H35   S    
O16   C53   S    
C23   O5    A    
C30   O9    S    
C5    O19   S    
C6    C33   T    
C2    C30   S    
C57   H66   S    
C38   H18   S    
C37   H14   S    
C2    C3    S    
C31   C52   S    
O11   C39   S    
C44   H33   S    
C11   C13   A    
C1    O1    A    
C50   H47   S    
C43   C44   S    
O5    Zn1   S    
C27   O14   S    
C48   H44   S    
C41   H25   S    
C35   H10   S    
C9    C17   A    
C49   C50   S    
C54   H58   S    
C26   H5    S    
C40   H23   S    
C5    O18   S    
O10   C37   S    
N2    Zn2   S    
C9    C18   A    
C4    C5    S    
C42   H28   S    
C43   H29   S    
O14   C47   S    
C32   H8    S    
C14   C15   A    
C55   H61   S    
C59   H71   S    
O7    Zn1   S    
C47   C48   S    
C15   C16   A    
C37   H15   S    
C27   C28   A    
C29   O8    A    
