data_mof_unit_36716.cif
_audit_creation_date              2012-12-11T14:11:07-0500
_audit_creation_method            fapswitch 2.2
_symmetry_space_group_name_H-M    P1
_symmetry_Int_Tables_number       1
_space_group_crystal_system       triclinic
_cell_length_a                    19.727115
_cell_length_b                    17.193461
_cell_length_c                    15.448825
_cell_angle_alpha                 89.998663
_cell_angle_beta                  52.385132
_cell_angle_gamma                 89.999628
_cell_volume                      4150.6824104

loop_
_atom_site_label
_atom_site_type_symbol
_atom_type_description
_atom_site_fract_x
_atom_site_fract_y
_atom_site_fract_z
_atom_type_partial_charge
C1    C     C_R   0.374528 0.197168 0.994816 -0.116868
C2    C     C_R   0.625471 0.802832 0.005185 -0.116874
C3    C     C_R   0.660880 0.175165 0.951150 -0.092966
C4    C     C_R   0.339120 0.824834 0.048849 -0.093050
C5    C     C_R   0.839119 0.675162 0.048851 -0.093246
C6    C     C_R   0.160881 0.324838 0.951148 -0.093225
C7    C     C_R   0.125467 0.697169 0.005189 -0.116796
C8    C     C_R   0.874532 0.302831 0.994812 -0.116766
C9    C     C_3   0.227728 0.203663 0.573934 -0.275732
C10   C     C_3   0.771981 0.796107 0.426299 -0.275596
C11   C     C_3   0.683575 0.255843 0.445250 -0.273954
C12   C     C_3   0.316446 0.744136 0.554730 -0.274025
C13   C     C_3   0.815815 0.755300 0.555219 -0.274619
C14   C     C_3   0.184443 0.244924 0.444583 -0.274762
C15   C     C_3   0.271261 0.704460 0.426887 -0.275095
C16   C     C_3   0.728703 0.295564 0.573141 -0.275016
C17   C     C_2   0.189794 0.743618 0.095573 -0.186832
C18   C     C_2   0.810207 0.256382 0.904425 -0.186261
C19   C     C_2   0.713108 0.687116 0.046058 -0.125614
C20   C     C_2   0.286892 0.312884 0.953940 -0.125619
C21   C     C_2   0.786892 0.187118 0.953942 -0.126217
C22   C     C_2   0.213110 0.812881 0.046054 -0.126021
C23   C     C_2   0.310196 0.243616 0.904439 -0.188120
C24   C     C_2   0.689802 0.756383 0.095564 -0.188162
C25   C     C_R   0.389132 0.803046 0.214276 -0.121953
C26   C     C_R   0.610861 0.196956 0.785728 -0.121866
C27   C     C_R   0.651923 0.828740 0.779220 -0.101207
C28   C     C_R   0.348093 0.171279 0.220777 -0.100956
C29   C     C_R   0.848030 0.328795 0.220785 -0.101770
C30   C     C_R   0.151973 0.671201 0.779214 -0.101782
C31   C     C_R   0.110819 0.303026 0.785780 -0.121322
C32   C     C_R   0.889170 0.696969 0.214234 -0.121541
C33   C     C_R   0.329786 0.913298 0.951264 -0.147206
C34   C     C_R   0.670214 0.086702 0.048735 -0.147162
C35   C     C_R   0.634230 0.889752 0.103343 -0.148799
C36   C     C_R   0.365770 0.110247 0.896658 -0.148755
C37   C     C_R   0.865774 0.389753 0.896652 -0.148587
C38   C     C_R   0.134226 0.610247 0.103348 -0.148610
C39   C     C_R   0.170215 0.413299 0.048732 -0.147377
C40   C     C_R   0.829785 0.586701 0.951267 -0.147380
C41   C     C_R   0.355693 0.078663 0.316541 -0.162662
C42   C     C_R   0.644303 0.921340 0.683457 -0.162552
C43   C     C_R   0.602366 0.105381 0.690044 -0.148000
C44   C     C_R   0.397624 0.894623 0.309961 -0.148012
C45   C     C_R   0.897717 0.605424 0.309906 -0.148584
C46   C     C_R   0.102253 0.394560 0.690112 -0.148815
C47   C     C_R   0.144306 0.578636 0.683462 -0.162452
C48   C     C_R   0.855695 0.421361 0.316539 -0.162466
C49   C     C_R   0.347372 0.186003 0.932297 0.138682
C50   C     C_R   0.652627 0.813997 0.067704 0.138689
C51   C     C_R   0.712756 0.147913 0.976577 0.148026
C52   C     C_R   0.287244 0.852087 0.023421 0.147992
C53   C     C_R   0.787243 0.647910 0.023424 0.147960
C54   C     C_R   0.212758 0.352090 0.976575 0.147983
C55   C     C_R   0.152621 0.686004 0.067711 0.138369
C56   C     C_R   0.847379 0.313996 0.932289 0.138232
C57   C     C_R   0.373097 0.819858 0.311997 0.059808
C58   C     C_R   0.626888 0.180148 0.688011 0.059820
C59   C     C_R   0.694444 0.862452 0.677292 0.060913
C60   C     C_R   0.305570 0.137570 0.322703 0.060935
C61   C     C_R   0.805509 0.362519 0.322714 0.060909
C62   C     C_R   0.194494 0.637476 0.677285 0.060870
C63   C     C_R   0.126739 0.319781 0.688121 0.059918
C64   C     C_R   0.873221 0.680200 0.311908 0.059883
C65   C     C_3   0.185652 0.148813 0.539292 -0.102620
C66   C     C_3   0.814079 0.851204 0.460663 -0.102783
C67   C     C_3   0.725756 0.200538 0.479139 -0.112583
C68   C     C_3   0.274260 0.799464 0.520873 -0.112623
C69   C     C_3   0.773686 0.700582 0.520678 -0.111991
C70   C     C_3   0.226553 0.299393 0.479395 -0.111806
C71   C     C_3   0.313419 0.648764 0.460550 -0.103433
C72   C     C_3   0.686551 0.351237 0.539444 -0.103394
C73   C     C_3   0.711188 0.764876 0.543140 0.019122
C74   C     C_3   0.288793 0.234896 0.457128 0.019124
C75   C     C_3   0.377450 0.713558 0.436100 0.013029
C76   C     C_3   0.622543 0.286424 0.563875 0.012915
C77   C     C_3   0.122495 0.214323 0.563071 0.013231
C78   C     C_3   0.877493 0.785902 0.436690 0.013206
C79   C     C_3   0.788849 0.264355 0.456218 0.018930
C80   C     C_3   0.211144 0.735665 0.543814 0.019058
C81   C     C_3   0.752439 0.819233 0.577628 0.088282
C82   C     C_3   0.247562 0.180783 0.422369 0.088242
C83   C     C_3   0.335111 0.767867 0.403779 0.077416
C84   C     C_3   0.664876 0.232138 0.596229 0.077381
C85   C     C_3   0.164756 0.267788 0.596350 0.077315
C86   C     C_3   0.835211 0.732191 0.403683 0.077355
C87   C     C_3   0.747546 0.319282 0.422377 0.088380
C88   C     C_3   0.252453 0.680716 0.577623 0.088426
H1    H     H_    0.381842 0.251892 0.022587 0.086276
H2    H     H_    0.618157 0.748108 0.977414 0.086315
H3    H     H_    0.670842 0.224748 0.902012 0.086390
H4    H     H_    0.329158 0.775251 0.097986 0.086404
H5    H     H_    0.829156 0.724743 0.097990 0.086429
H6    H     H_    0.170845 0.275258 0.902008 0.086425
H7    H     H_    0.118154 0.751894 0.977414 0.086337
H8    H     H_    0.881845 0.248106 0.022586 0.086310
H9    H     H_    0.387080 0.746351 0.185676 0.094599
H10   H     H_    0.612913 0.253650 0.814329 0.094570
H11   H     H_    0.670860 0.777435 0.799913 0.100999
H12   H     H_    0.329167 0.222589 0.200077 0.100872
H13   H     H_    0.829062 0.277501 0.200114 0.101323
H14   H     H_    0.170942 0.722495 0.799884 0.101322
H15   H     H_    0.112862 0.246345 0.814423 0.094305
H16   H     H_    0.887125 0.753654 0.185602 0.094412
H17   H     H_    0.309490 0.947148 0.911771 0.101119
H18   H     H_    0.690511 0.052852 0.088228 0.101105
H19   H     H_    0.637688 0.915817 0.164287 0.087660
H20   H     H_    0.362311 0.084182 0.835713 0.087647
H21   H     H_    0.862320 0.415820 0.835704 0.087593
H22   H     H_    0.137681 0.584180 0.164295 0.087591
H23   H     H_    0.190513 0.447148 0.088223 0.101117
H24   H     H_    0.809487 0.552852 0.911776 0.101125
H25   H     H_    0.344107 0.044913 0.383358 0.101380
H26   H     H_    0.655880 0.955087 0.616644 0.101403
H27   H     H_    0.597017 0.077913 0.631463 0.082913
H28   H     H_    0.402972 0.922091 0.368542 0.082918
H29   H     H_    0.903067 0.577963 0.368492 0.082975
H30   H     H_    0.096905 0.422018 0.631522 0.083009
H31   H     H_    0.155863 0.544882 0.616666 0.101414
H32   H     H_    0.844138 0.455110 0.383338 0.101430
H33   H     H_    0.169537 0.086483 0.561114 0.149706
H34   H     H_    0.829991 0.913553 0.438784 0.149596
H35   H     H_    0.741800 0.138344 0.455960 0.137015
H36   H     H_    0.258233 0.861658 0.544060 0.136981
H37   H     H_    0.757175 0.638421 0.543714 0.137232
H38   H     H_    0.243263 0.361536 0.456418 0.137332
H39   H     H_    0.328844 0.586379 0.438525 0.148983
H40   H     H_    0.671109 0.413622 0.561460 0.149090
H41   H     H_    0.245532 0.188151 0.627464 0.125156
H42   H     H_    0.753959 0.811428 0.372941 0.125185
H43   H     H_    0.665574 0.241395 0.391649 0.135329
H44   H     H_    0.334471 0.758564 0.608311 0.135265
H45   H     H_    0.833302 0.740398 0.609233 0.134830
H46   H     H_    0.167174 0.260017 0.390397 0.134739
H47   H     H_    0.252701 0.689617 0.373960 0.125280
H48   H     H_    0.747241 0.310426 0.626087 0.125312
H49   H     H_    0.210952 0.723407 0.141984 0.120924
H50   H     H_    0.789049 0.276593 0.858012 0.120914
H51   H     H_    0.689883 0.666068 0.002351 0.116832
H52   H     H_    0.310120 0.333933 0.997642 0.116814
H53   H     H_    0.810110 0.166072 0.997659 0.116683
H54   H     H_    0.189893 0.833926 0.002337 0.116741
H55   H     H_    0.289028 0.223401 0.858040 0.121001
H56   H     H_    0.710966 0.776596 0.141967 0.120988
N1    N     N_R   0.408680 0.130810 0.995780 -0.042847
N2    N     N_R   0.591320 0.869190 0.004220 -0.042834
N3    N     N_R   0.591320 0.130810 0.004220 -0.048069
N4    N     N_R   0.408680 0.869190 0.995780 -0.048057
N5    N     N_R   0.908680 0.630810 0.995780 -0.048046
N6    N     N_R   0.091320 0.369190 0.004220 -0.048055
N7    N     N_R   0.091320 0.630810 0.004220 -0.042788
N8    N     N_R   0.908680 0.369190 0.995780 -0.042784
N9    N     N_R   0.421410 0.867210 0.153620 -0.039469
N10   N     N_R   0.578590 0.132790 0.846380 -0.039475
N11   N     N_R   0.578590 0.867210 0.846380 -0.044968
N12   N     N_R   0.421410 0.132790 0.153620 -0.044965
N13   N     N_R   0.921410 0.367210 0.153620 -0.044996
N14   N     N_R   0.078590 0.632790 0.846380 -0.044993
N15   N     N_R   0.078590 0.367210 0.846380 -0.039488
N16   N     N_R   0.921410 0.632790 0.153620 -0.039475
N17   N     N_R   0.403840 0.921910 0.935760 -0.045684
N18   N     N_R   0.596160 0.078090 0.064240 -0.045670
N19   N     N_R   0.596160 0.921910 0.064240 -0.038285
N20   N     N_R   0.403840 0.078090 0.935760 -0.038284
N21   N     N_R   0.903840 0.421910 0.935760 -0.038240
N22   N     N_R   0.096160 0.578090 0.064240 -0.038247
N23   N     N_R   0.096160 0.421910 0.064240 -0.045703
N24   N     N_R   0.903840 0.578090 0.935760 -0.045704
N25   N     N_R   0.426250 0.076100 0.213650 -0.042910
N26   N     N_R   0.573750 0.923900 0.786350 -0.042945
N27   N     N_R   0.573750 0.076100 0.786350 -0.032063
N28   N     N_R   0.426250 0.923900 0.213650 -0.032067
N29   N     N_R   0.926250 0.576100 0.213650 -0.031987
N30   N     N_R   0.073750 0.423900 0.786350 -0.031962
N31   N     N_R   0.073750 0.576100 0.786350 -0.043007
N32   N     N_R   0.926250 0.423900 0.213650 -0.043009
Ni1   Ni    Ni4+2 0.500000 0.131570 0.000000 0.223160
Ni2   Ni    Ni4+2 0.500000 0.868430 0.000000 0.223176
Ni3   Ni    Ni4+2 1.000000 0.631570 0.000000 0.223216
Ni4   Ni    Ni4+2 1.000000 0.368430 0.000000 0.223212
Ni5   Ni    Ni4+2 0.488900 0.000000 0.862310 0.211110
Ni6   Ni    Ni4+2 0.511100 0.000000 0.137690 0.211151
Ni7   Ni    Ni4+2 0.988900 0.500000 0.862310 0.211050
Ni8   Ni    Ni4+2 0.011100 0.500000 0.137690 0.211045
C89   C     C_2   0.617170 0.753214 0.601788 0.516555
H57   H     H_    0.577658 0.801860 0.612603 -0.013491
O1    O     O_2   0.584817 0.689302 0.637300 -0.567883
C90   C     C_2   0.382801 0.246314 0.398773 0.516624
H58   H     H_    0.422121 0.197546 0.388120 -0.013681
O2    O     O_2   0.415361 0.310167 0.363326 -0.567837
C91   C     C_2   0.472225 0.704853 0.371806 0.533063
H59   H     H_    0.511044 0.755108 0.357669 -0.023559
O3    O     O_2   0.506155 0.641664 0.334763 -0.557413
C92   C     C_2   0.527769 0.295108 0.628137 0.533285
H60   H     H_    0.488966 0.244842 0.642265 -0.023581
O4    O     O_2   0.493821 0.358294 0.665165 -0.557356
C93   C     C_2   0.027736 0.206460 0.626392 0.532982
H61   H     H_    0.989556 0.257148 0.640162 -0.024502
O5    O     O_2   0.993103 0.143471 0.663056 -0.557350
C94   C     C_2   0.972258 0.794013 0.373090 0.532886
H62   H     H_    0.010627 0.743451 0.359211 -0.024269
O6    O     O_2   0.006685 0.857064 0.336319 -0.557329
C95   C     C_2   0.882884 0.252129 0.396875 0.516928
H63   H     H_    0.922842 0.300486 0.385684 -0.013097
O7    O     O_2   0.914756 0.188087 0.361202 -0.568029
C96   C     C_2   0.117107 0.747911 0.603190 0.516691
H64   H     H_    0.077133 0.699566 0.614395 -0.013027
O8    O     O_2   0.085254 0.811958 0.638875 -0.568185

loop_
_geom_bond_atom_site_label_1
_geom_bond_atom_site_label_2
_ccdc_geom_bond_type
C68   C80   S    
C80   C96   S    
C95   H63   S    
C3    N3    A    
C36   H20   S    
C18   C21   D    
N16   N29   A    
C33   N17   A    
C8    H8    S    
C16   C84   S    
N15   Ni4   S    
C72   C76   S    
C71   H39   S    
C78   C86   S    
C68   H36   S    
C47   C62   A    
C44   N28   A    
N8    N21   A    
C89   H57   S    
C40   H24   S    
C36   N20   A    
C33   C52   A    
C12   C68   S    
C27   H11   S    
C34   C51   A    
C25   C57   A    
C4    C52   A    
N4    N17   A    
N6    Ni4   S    
C8    N8    A    
C6    C54   A    
N18   Ni6   S    
C45   N29   A    
C11   C76   S    
C10   C73   S    
C96   O8    D    
C23   C49   S    
C39   C54   A    
C15   H47   S    
C4    N4    A    
C13   C81   S    
N12   N25   A    
N5    Ni3   S    
C5    N5    A    
C46   H30   S    
C3    H3    S    
C1    C49   A    
C14   C77   S    
C64   C86   S    
C93   O5    D    
C13   C69   S    
N20   Ni5   S    
C61   C87   S    
C43   C58   A    
C9    C85   S    
N9    Ni2   S    
C37   C56   A    
C60   C82   S    
C42   H26   S    
C38   C55   A    
N23   Ni8   S    
N29   Ni8   S    
C11   C87   S    
C94   H62   S    
C6    H6    S    
N15   N30   A    
C16   C72   S    
C70   C74   S    
N4    Ni2   S    
C66   H34   S    
C69   C73   S    
C65   H33   S    
C38   H22   S    
C42   N26   A    
C17   C55   S    
C37   H21   S    
N11   Ni2   S    
C18   C56   S    
C43   H27   S    
C28   H12   S    
C47   H31   S    
C32   H16   S    
C77   C85   S    
C67   C84   S    
C79   C87   S    
C63   C85   S    
N19   Ni6   S    
C27   N11   A    
C8    C56   A    
C14   C70   S    
C20   C54   S    
C23   H55   S    
N5    N24   A    
C78   C94   S    
C74   C82   S    
C73   C81   S    
C73   C89   S    
C11   C67   S    
C74   C90   S    
C10   C66   S    
C24   C50   S    
C66   C78   S    
C29   C61   A    
C76   C84   S    
C65   C77   S    
C12   C88   S    
C25   N9    A    
C91   H59   S    
N21   Ni7   S    
C75   C83   S    
C31   C63   A    
C67   C79   S    
C32   C64   A    
C48   H32   S    
C57   C83   S    
C43   N27   A    
C96   H64   S    
C4    H4    S    
C29   N13   A    
C14   H46   S    
C70   H38   S    
C62   C88   S    
C35   N19   A    
C67   H35   S    
C90   H58   S    
N13   Ni4   S    
C31   H15   S    
N8    Ni4   S    
C75   C91   S    
N14   Ni3   S    
C10   H42   S    
N16   Ni3   S    
C58   C84   S    
C95   O7    D    
N12   Ni1   S    
N3    Ni1   S    
N7    Ni3   S    
C15   C80   S    
C20   C23   D    
C30   N14   A    
C44   C57   A    
N24   Ni7   S    
N32   Ni8   S    
C22   H54   S    
C35   C50   A    
C46   N30   A    
C91   O3    D    
C29   H13   S    
C37   N21   A    
C26   C58   A    
N31   Ni7   S    
C28   C60   A    
C76   C92   S    
C30   H14   S    
C26   H10   S    
C7    N7    A    
C7    C55   A    
C25   H9    S    
C18   H50   S    
C79   C95   S    
C30   C62   A    
N26   Ni5   S    
C40   N24   A    
C26   N10   A    
C89   O1    D    
C1    N1    A    
C14   C82   S    
C16   H48   S    
C92   O4    D    
C21   C51   S    
C72   C87   S    
C15   C71   S    
C22   C52   S    
C45   H29   S    
C2    C50   A    
C38   N22   A    
C47   N31   A    
C13   C78   S    
C10   C86   S    
C1    H1    S    
C12   H44   S    
C68   C83   S    
C13   H45   S    
N27   Ni5   S    
N22   Ni8   S    
C59   C81   S    
C41   C60   A    
C41   H25   S    
C34   N18   A    
N3    N18   A    
C11   H43   S    
C42   C59   A    
C5    H5    S    
N1    N20   A    
C9    H41   S    
C2    N2    A    
N7    N22   A    
C7    H7    S    
N2    N19   A    
C45   C64   A    
C17   C22   D    
C33   H17   S    
C46   C63   A    
N10   Ni1   S    
C16   C79   S    
C20   H52   S    
C19   C24   D    
C5    C53   A    
C21   H53   S    
C80   C88   S    
C27   C59   A    
C66   C81   S    
C71   C75   S    
C70   C85   S    
N11   N26   A    
C19   C53   S    
C65   C82   S    
C41   N25   A    
C24   H56   S    
C15   C83   S    
N6    N23   A    
N9    N28   A    
C39   H23   S    
C3    C51   A    
N10   N27   A    
C92   H60   S    
C34   H18   S    
N17   Ni5   S    
C93   H61   S    
C9    C65   S    
N25   Ni6   S    
C90   O2    D    
C35   H19   S    
C36   C49   A    
N13   N32   A    
C69   H37   S    
C71   C88   S    
C6    N6    A    
C39   N23   A    
N28   Ni6   S    
N14   N31   A    
C44   H28   S    
C2    H2    S    
C40   C53   A    
C9    C74   S    
C12   C75   S    
N1    Ni1   S    
C28   N12   A    
C48   C61   A    
C72   H40   S    
C17   H49   S    
C48   N32   A    
C19   H51   S    
N30   Ni7   S    
C77   C93   S    
C94   O6    D    
C31   N15   A    
C69   C86   S    
C32   N16   A    
N2    Ni2   S    
