data_mof_unit_44522.cif
_audit_creation_date              2012-12-10T17:52:25-0500
_audit_creation_method            fapswitch 2.2
_symmetry_space_group_name_H-M    P1
_symmetry_Int_Tables_number       1
_space_group_crystal_system       triclinic
_cell_length_a                    18.840157
_cell_length_b                    10.640938
_cell_length_c                    9.910045
_cell_angle_alpha                 89.891197
_cell_angle_beta                  90.367029
_cell_angle_gamma                 91.336091
_cell_volume                      1986.15157518

loop_
_atom_site_label
_atom_site_type_symbol
_atom_type_description
_atom_site_fract_x
_atom_site_fract_y
_atom_site_fract_z
_atom_type_partial_charge
C1    C     C_R   0.501904 0.260920 0.500151 0.860714
C2    C     C_R   0.851651 0.391872 0.501797 0.093810
C3    C     C_R   0.620409 0.134297 0.623042 -0.166561
C4    C     C_R   0.365010 0.492965 0.499790 0.866550
C5    C     C_R   0.676371 0.070108 0.681815 -0.129437
C6    C     C_R   0.675930 0.939420 0.680790 -0.143208
C7    C     C_R   0.619499 0.872571 0.621107 -0.182414
C8    C     C_R   0.561575 0.936204 0.562523 0.081991
C9    C     C_R   0.562351 0.067850 0.563261 0.097247
C10   C     C_R   0.505767 0.129119 0.499891 -0.108851
C11   C     C_R   0.451295 0.065051 0.432623 -0.278629
C12   C     C_R   0.289548 0.458108 0.499504 -0.063183
C13   C     C_R   0.449290 0.936200 0.432018 -0.016989
C14   C     C_R   0.503658 0.872324 0.499388 -0.154292
C15   C     C_R   0.406548 0.336461 0.138485 -0.186673
C16   C     C_R   0.500660 0.739450 0.499819 0.886376
C17   C     C_R   0.358434 0.259724 0.067682 -0.274363
C18   C     C_R   0.357271 0.260859 0.927049 0.032977
C19   C     C_R   0.406382 0.337949 0.859028 -0.214352
C20   C     C_R   0.454145 0.419375 0.927430 0.152153
C21   C     C_R   0.454108 0.419262 0.071735 0.181941
C22   C     C_R   0.543901 0.577266 0.071898 -0.117381
C23   C     C_R   0.927192 0.362245 0.501581 0.277465
C24   C     C_R   0.543923 0.577174 0.928736 -0.118036
C25   C     C_R   0.635103 0.496593 0.500419 0.827331
C26   C     C_R   0.251516 0.454721 0.620347 -0.204330
C27   C     C_R   0.181288 0.412262 0.621119 -0.186814
C28   C     C_R   0.147822 0.371467 0.501231 0.081829
C29   C     C_R   0.187315 0.368605 0.380629 0.122990
C30   C     C_R   0.257257 0.414176 0.380441 -0.265727
C31   C     C_R   0.388665 0.871805 0.363057 0.141612
C32   C     C_R   0.380389 0.882902 0.222587 -0.129894
C33   C     C_R   0.321734 0.826611 0.157716 -0.142330
C34   C     C_R   0.070452 0.349505 0.500952 0.297226
C35   C     C_R   0.270479 0.760762 0.232844 -0.101054
C36   C     C_R   0.277854 0.751096 0.372870 -0.138695
C37   C     C_R   0.337124 0.805200 0.437880 -0.178297
C38   C     C_R   0.302795 0.186931 0.849752 0.129113
C39   C     C_R   0.320283 0.127584 0.727793 -0.166414
C40   C     C_R   0.267662 0.067382 0.649816 -0.133814
C41   C     C_R   0.197311 0.063920 0.693290 -0.100384
C42   C     C_R   0.179410 0.120848 0.814878 -0.131321
C43   C     C_R   0.231714 0.182314 0.892666 -0.162238
C44   C     C_R   0.815798 0.407364 0.624083 -0.171182
C45   C     C_R   0.745973 0.446699 0.623937 -0.216649
C46   C     C_R   0.710916 0.470595 0.501488 -0.033571
C47   C     C_R   0.746785 0.455413 0.379347 -0.186334
C48   C     C_R   0.816492 0.416067 0.379469 -0.163949
H1    H     H_    0.275825 0.485551 0.714322 0.162292
H2    H     H_    0.152702 0.415041 0.715465 0.157200
H3    H     H_    0.579769 0.640279 0.875201 0.143853
H4    H     H_    0.286321 0.413244 0.286736 0.161127
H5    H     H_    0.841737 0.390221 0.719962 0.147569
H6    H     H_    0.719157 0.456116 0.719613 0.156099
H7    H     H_    0.720742 0.471967 0.283399 0.155068
H8    H     H_    0.842904 0.405842 0.283524 0.148001
H9    H     H_    0.408876 0.116055 0.383884 0.143731
H10   H     H_    0.419328 0.935094 0.163608 0.137969
H11   H     H_    0.315733 0.834917 0.049377 0.137763
H12   H     H_    0.623783 0.235794 0.623155 0.152016
H13   H     H_    0.224831 0.717910 0.182715 0.126856
H14   H     H_    0.237537 0.701818 0.431078 0.143338
H15   H     H_    0.342203 0.797273 0.546490 0.125563
H16   H     H_    0.374516 0.128243 0.692379 0.134106
H17   H     H_    0.281364 0.024212 0.555115 0.139963
H18   H     H_    0.156623 0.017610 0.632473 0.129893
H19   H     H_    0.124759 0.118978 0.847960 0.140309
H20   H     H_    0.216233 0.229388 0.984158 0.119073
H21   H     H_    0.188050 0.243240 0.228216 0.171230
H22   H     H_    0.160857 0.388026 0.183832 0.182396
H23   H     H_    0.720561 0.121985 0.726889 0.140613
H24   H     H_    0.719804 0.889613 0.725121 0.137164
H25   H     H_    0.622603 0.771292 0.619636 0.143020
H26   H     H_    0.579733 0.640429 0.125968 0.145475
H27   H     H_    0.404124 0.329455 0.245405 0.202462
H28   H     H_    0.322064 0.199078 0.123424 0.146481
H29   H     H_    0.404508 0.334436 0.752345 0.207979
N1    N     N_R   0.033376 0.354716 0.383555 -0.141976
N2    N     N_R   0.963156 0.360582 0.383735 -0.182308
N3    N     N_R   0.963833 0.351649 0.619154 -0.184746
N4    N     N_R   0.034188 0.345499 0.618824 -0.194791
N5    N     N_R   0.499340 0.498800 0.142780 -0.116129
N6    N     N_R   0.499320 0.498720 0.857170 -0.115012
N7    N     N_3   0.157226 0.318515 0.258377 -0.451791
O1    O     O_R   0.500000 0.316780 0.614690 -0.643139
O2    O     O_R   0.499990 0.316750 0.385360 -0.626634
O3    O     O_R   0.398140 0.500000 0.614700 -0.637888
O4    O     O_R   0.398130 0.499970 0.385370 -0.620761
O5    O     O_R   0.500010 0.683250 0.614640 -0.616597
O6    O     O_R   0.500000 0.683220 0.385310 -0.598452
O7    O     O_R   0.601870 0.500030 0.614630 -0.628732
O8    O     O_R   0.601860 0.500000 0.385300 -0.612915
Zn1   Zn    Zn3+2 0.500000 0.500020 0.653130 0.923560
Zn2   Zn    Zn3+2 0.500000 0.499980 0.346870 0.945741

loop_
_geom_bond_atom_site_label_1
_geom_bond_atom_site_label_2
_ccdc_geom_bond_type
C15   H27   S    
C16   O6    A    
N5    Zn2   S    
C41   C42   A    
C19   C20   A    
C32   H10   S    
C7    C8    A    
C7    H25   S    
C4    O3    A    
C45   C46   A    
C6    H24   S    
C39   H16   S    
C26   C27   A    
C22   N5    A    
C36   C37   A    
C24   N6    A    
C5    C6    A    
N6    Zn1   S    
C48   H8    S    
C18   C19   A    
C19   H29   S    
O2    Zn2   S    
O1    Zn1   S    
C44   H5    S    
C31   C32   A    
C2    C44   A    
C43   H20   S    
C17   H28   S    
C34   N4    A    
C23   N3    A    
C4    C12   S    
H22   N7    S    
C9    C10   A    
C27   H2    S    
C3    H12   S    
C24   H3    S    
C28   C34   S    
C16   O5    A    
C33   H11   S    
C13   C14   A    
C36   H14   S    
C37   H15   S    
O6    Zn2   S    
C1    O1    A    
O4    Zn2   S    
C25   O7    A    
C29   N7    S    
C26   H1    S    
C39   C40   A    
N1    N2    A    
C8    C9    A    
C2    C48   A    
C31   C37   A    
C12   C26   A    
C35   C36   A    
C29   C30   A    
C3    C9    A    
O7    Zn1   S    
C47   C48   A    
O8    Zn2   S    
C17   C18   A    
C35   H13   S    
C21   N5    A    
C6    C7    A    
C40   C41   A    
C45   H6    S    
C40   H17   S    
C42   H19   S    
C14   C16   S    
C42   C43   A    
C22   H26   S    
C2    C23   S    
C44   C45   A    
C47   H7    S    
C1    O2    A    
C15   C17   A    
C30   H4    S    
C46   C47   A    
C28   C29   A    
C25   O8    A    
C8    C14   A    
C12   C30   A    
C13   C31   S    
C1    C10   S    
N3    N4    A    
C3    C5    A    
C41   H18   S    
C4    O4    A    
C32   C33   A    
C18   C38   S    
C38   C43   A    
C5    H23   S    
H21   N7    S    
C34   N1    A    
C11   C13   A    
C38   C39   A    
O3    Zn1   S    
C33   C35   A    
C22   C24   A    
O5    Zn1   S    
C10   C11   A    
C15   C21   A    
C20   C21   A    
C20   N6    A    
C27   C28   A    
C23   N2    A    
C11   H9    S    
C25   C46   S    
