data_mof_unit_33344.cif
_audit_creation_date              2012-12-11T16:51:26-0500
_audit_creation_method            fapswitch 2.2
_symmetry_space_group_name_H-M    P1
_symmetry_Int_Tables_number       1
_space_group_crystal_system       triclinic
_cell_length_a                    24.381863
_cell_length_b                    17.178772
_cell_length_c                    15.496627
_cell_angle_alpha                 90.134081
_cell_angle_beta                  128.865697
_cell_angle_gamma                 89.814908
_cell_volume                      5053.80943445

loop_
_atom_site_label
_atom_site_type_symbol
_atom_type_description
_atom_site_fract_x
_atom_site_fract_y
_atom_site_fract_z
_atom_type_partial_charge
C1    C     C_R   0.833541 0.889256 0.201371 -0.122435
C2    C     C_R   0.183883 0.119181 0.500839 0.077999
C3    C     C_3   0.570687 0.811957 0.897140 -0.944743
C4    C     C_R   0.315910 0.618942 0.499182 0.079193
C5    C     C_R   0.649125 0.679867 0.502431 0.071318
C6    C     C_R   0.883190 0.183146 0.209211 0.037769
C7    C     C_R   0.116855 0.182739 0.791659 0.071436
C8    C     C_R   0.375487 0.675205 0.192769 0.074615
C9    C     C_R   0.622937 0.673074 0.811126 0.075148
C10   C     C_R   0.777635 0.840661 0.607446 0.164043
C11   C     C_R   0.146389 0.708555 0.394615 0.165200
C12   C     C_R   0.352589 0.210371 0.605420 0.163878
C13   C     C_R   0.166287 0.890483 0.800642 -0.139333
C14   C     C_R   0.646072 0.207738 0.394879 0.165783
C15   C     C_R   0.761760 0.863475 0.507286 0.027670
C16   C     C_R   0.164628 0.736912 0.494472 0.032392
C17   C     C_R   0.334611 0.238046 0.505570 0.033029
C18   C     C_R   0.664503 0.236509 0.494696 0.032429
C19   C     C_R   0.693084 0.850403 0.408698 -0.199307
C20   C     C_R   0.219004 0.698721 0.593190 -0.197505
C21   C     C_R   0.280469 0.199633 0.406973 -0.198104
C22   C     C_R   0.719009 0.198437 0.593478 -0.197258
C23   C     C_R   0.234333 0.150744 0.406160 -0.201317
C24   C     C_R   0.332850 0.392460 0.198390 -0.133395
C25   C     C_R   0.765229 0.149279 0.594255 -0.200998
C26   C     C_R   0.650710 0.795682 0.408184 -0.194811
C27   C     C_R   0.265359 0.649838 0.594034 -0.200510
C28   C     C_R   0.243156 0.139995 0.504228 0.031590
C29   C     C_R   0.756137 0.137983 0.495995 0.030525
C30   C     C_R   0.677396 0.755341 0.506323 0.034307
C31   C     C_R   0.256425 0.638871 0.495862 0.030517
C32   C     C_R   0.307511 0.161650 0.604660 0.163173
C33   C     C_R   0.691243 0.158728 0.395614 0.163355
C34   C     C_R   0.735844 0.786673 0.606885 0.167184
C35   C     C_R   0.667262 0.392622 0.801781 -0.133230
C36   C     C_R   0.191662 0.659763 0.395405 0.163325
C37   C     C_3   0.797794 0.748682 0.710664 -0.530441
C38   C     C_3   0.174676 0.696175 0.293417 -0.524442
C39   C     C_3   0.323577 0.198919 0.705692 -0.524984
C40   C     C_3   0.673876 0.194700 0.293138 -0.526850
C41   C     C_R   0.085960 0.855218 0.406870 -0.145487
C42   C     C_R   0.886418 0.899036 0.593517 -0.146394
C43   C     C_R   0.585863 0.355072 0.406907 -0.144752
C44   C     C_R   0.413860 0.355569 0.593183 -0.145387
C45   C     C_3   0.843504 0.807651 0.711454 -0.520251
C46   C     C_R   0.884591 0.103331 0.591633 -0.136712
C47   C     C_3   0.125553 0.749893 0.292768 -0.522878
C48   C     C_3   0.372536 0.252546 0.706333 -0.521937
C49   C     C_3   0.624860 0.248607 0.292543 -0.522542
C50   C     C_2   0.189136 0.840632 0.974464 -0.225293
C51   C     C_2   0.808019 0.841395 0.024778 -0.226965
C52   C     C_2   0.692811 0.347219 0.979906 -0.240400
C53   C     C_2   0.307579 0.345847 0.021053 -0.224573
C54   C     C_2   0.258932 0.848141 0.038121 -0.119298
C55   C     C_2   0.738219 0.846325 0.964564 -0.117721
C56   C     C_2   0.762872 0.350668 0.041178 -0.096518
C57   C     C_R   0.115192 0.103646 0.408370 -0.134356
C58   C     C_2   0.237549 0.350837 0.959209 -0.117009
C59   C     C_2   0.858983 0.257142 0.147509 0.168810
C60   C     C_2   0.142253 0.255106 0.856532 0.170992
C61   C     C_2   0.347883 0.745758 0.124862 0.175932
C62   C     C_2   0.649388 0.743977 0.878086 0.172933
C63   C     C_2   0.806517 0.297045 0.134238 -0.173866
C64   C     C_2   0.194086 0.295530 0.868668 -0.202102
C65   C     C_2   0.302498 0.790908 0.124698 -0.208176
C66   C     C_2   0.695016 0.788560 0.878669 -0.204945
C67   C     C_R   0.163079 0.856228 0.591499 -0.122414
C68   C     C_R   0.384741 0.603727 0.591661 -0.135809
C69   C     C_R   0.812053 0.896697 0.409622 -0.122128
C70   C     C_R   0.662904 0.356066 0.591517 -0.123367
C71   C     C_R   0.336768 0.356524 0.408456 -0.123676
C72   C     C_R   0.074000 0.889489 0.799209 -0.144598
C73   C     C_R   0.923705 0.891889 0.197769 -0.167059
C74   C     C_R   0.576444 0.393587 0.803098 -0.163241
C75   C     C_R   0.423641 0.393313 0.196976 -0.164617
C76   C     C_R   0.853934 0.870572 0.138243 0.153196
C77   C     C_R   0.144285 0.869739 0.861027 0.149261
C78   C     C_R   0.353348 0.373915 0.135456 0.154119
C79   C     C_R   0.596147 0.638505 0.409054 -0.128134
C80   C     C_R   0.646866 0.374270 0.864857 0.158159
C81   C     C_R   0.138105 0.812071 0.498104 0.071274
C82   C     C_R   0.817992 0.882886 0.503115 0.076780
C83   C     C_R   0.637963 0.311827 0.498167 0.070642
C84   C     C_R   0.361524 0.312649 0.501889 0.071340
C85   C     C_R   0.810998 0.101035 0.408067 -0.156284
C86   C     C_R   0.188780 0.101532 0.592012 -0.154129
C87   C     C_R   0.311126 0.601454 0.407993 -0.153029
C88   C     C_R   0.669129 0.637420 0.593150 -0.137764
C89   C     C_R   0.942009 0.140485 0.241903 -0.133199
C90   C     C_R   0.815670 0.118250 0.499220 0.082322
C91   C     C_R   0.058271 0.140115 0.759291 -0.119237
C92   C     C_R   0.434463 0.633211 0.225657 -0.120895
C93   C     C_R   0.560986 0.634763 0.768709 -0.113429
C94   C     C_R   0.149705 0.140925 0.758385 -0.154879
C95   C     C_R   0.850250 0.141181 0.241947 -0.134471
C96   C     C_R   0.655623 0.632323 0.777134 -0.164654
C97   C     C_R   0.346510 0.636978 0.234257 -0.158923
C98   C     C_3   0.938525 0.339714 0.147011 -0.941484
C99   C     C_3   0.058983 0.329116 0.858939 -0.940232
C100  C     C_3   0.426270 0.811002 0.103616 -0.952986
H1    H     H_    0.781021 0.888207 0.176398 0.081649
H2    H     H_    0.219918 0.727522 0.308743 0.200842
H3    H     H_    0.277790 0.230137 0.689181 0.200904
H4    H     H_    0.718949 0.225992 0.307843 0.200753
H5    H     H_    0.808280 0.688580 0.697330 0.200914
H6    H     H_    0.146611 0.655450 0.221783 0.190149
H7    H     H_    0.351738 0.158772 0.777926 0.189168
H8    H     H_    0.645709 0.153700 0.221819 0.189088
H9    H     H_    0.868976 0.848877 0.782308 0.189064
H10   H     H_    0.143501 0.811441 0.308031 0.201079
H11   H     H_    0.354098 0.314038 0.689915 0.201588
H12   H     H_    0.219711 0.891810 0.829429 0.082435
H13   H     H_    0.642722 0.310163 0.307225 0.201591
H14   H     H_    0.879499 0.779968 0.699278 0.203837
H15   H     H_    0.069281 0.740410 0.220381 0.191000
H16   H     H_    0.428778 0.243524 0.779281 0.190118
H17   H     H_    0.568533 0.238949 0.220512 0.190488
H18   H     H_    0.787028 0.279799 0.177929 0.114640
H19   H     H_    0.212338 0.279018 0.822840 0.124023
H20   H     H_    0.289193 0.777659 0.178064 0.127456
H21   H     H_    0.708685 0.774211 0.825886 0.124582
H22   H     H_    0.282987 0.884656 0.013121 0.139810
H23   H     H_    0.279729 0.394221 0.170880 0.080234
H24   H     H_    0.714651 0.881380 0.991961 0.137687
H25   H     H_    0.786767 0.381891 0.011631 0.152442
H26   H     H_    0.213596 0.385342 0.986391 0.136947
H27   H     H_    0.165420 0.804321 0.000509 0.138681
H28   H     H_    0.831357 0.806791 0.996331 0.133771
H29   H     H_    0.668951 0.316241 0.009977 0.137336
H30   H     H_    0.331377 0.312286 0.992555 0.136309
H31   H     H_    0.053190 0.838105 0.321296 0.110322
H32   H     H_    0.906720 0.908414 0.677799 0.099257
H33   H     H_    0.553011 0.337903 0.321330 0.110200
H34   H     H_    0.720352 0.394612 0.829268 0.087823
H35   H     H_    0.446542 0.338585 0.678832 0.109909
H36   H     H_    0.204164 0.840854 0.676971 0.091764
H37   H     H_    0.764125 0.900315 0.324920 0.083280
H38   H     H_    0.703812 0.340592 0.677019 0.094970
H39   H     H_    0.295687 0.341197 0.322953 0.091566
H40   H     H_    0.043225 0.890101 0.827577 0.093677
H41   H     H_    0.952277 0.895076 0.165694 0.093961
H42   H     H_    0.547279 0.397168 0.834158 0.094614
H43   H     H_    0.452760 0.396597 0.165844 0.095275
H44   H     H_    0.763438 0.091911 0.324313 0.099436
H45   H     H_    0.187890 0.129915 0.327205 0.126273
H46   H     H_    0.236437 0.092993 0.675888 0.101690
H47   H     H_    0.263547 0.592548 0.324199 0.101447
H48   H     H_    0.711358 0.649155 0.678114 0.100117
H49   H     H_    0.979756 0.155740 0.229919 0.102036
H50   H     H_    0.021216 0.154844 0.773108 0.114526
H51   H     H_    0.464166 0.641880 0.196659 0.106741
H52   H     H_    0.523753 0.648127 0.782581 0.109638
H53   H     H_    0.197826 0.154766 0.772190 0.094846
H54   H     H_    0.802354 0.155450 0.228826 0.091526
H55   H     H_    0.709381 0.639421 0.809566 0.089716
H56   H     H_    0.812018 0.128956 0.673278 0.125274
H57   H     H_    0.298043 0.650047 0.220024 0.095102
H58   H     H_    0.904526 0.099298 0.676458 0.084115
H59   H     H_    0.095287 0.099876 0.323526 0.085053
H60   H     H_    0.404660 0.599899 0.676487 0.086758
H61   H     H_    0.573241 0.651571 0.324800 0.087746
H62   H     H_    0.675769 0.872875 0.330022 0.126065
H63   H     H_    0.231654 0.714077 0.671608 0.127823
H64   H     H_    0.267956 0.214612 0.328606 0.127445
H65   H     H_    0.731845 0.214037 0.671949 0.128782
H66   H     H_    0.898685 0.234486 0.064383 0.161234
H67   H     H_    0.601970 0.778667 0.329406 0.125863
H68   H     H_    0.952860 0.357432 0.094593 0.246706
H69   H     H_    0.986360 0.316972 0.227091 0.253316
H70   H     H_    0.918845 0.391881 0.162669 0.260847
H71   H     H_    0.155602 0.287787 0.998564 0.163903
H72   H     H_    0.076140 0.386443 0.850406 0.253202
H73   H     H_    0.039734 0.337065 0.907042 0.246458
H74   H     H_    0.014843 0.306556 0.775464 0.259298
H75   H     H_    0.323999 0.776347 0.974405 0.167608
H76   H     H_    0.414553 0.870378 0.116838 0.253568
H77   H     H_    0.439754 0.814993 0.047365 0.247722
H78   H     H_    0.312078 0.629416 0.673059 0.127697
H79   H     H_    0.472459 0.786912 0.184145 0.252081
H80   H     H_    0.671847 0.774600 0.027401 0.169173
H81   H     H_    0.583813 0.870744 0.885135 0.250975
H82   H     H_    0.556558 0.817056 0.952505 0.246622
H83   H     H_    0.524345 0.788892 0.815915 0.257930
H84   H     H_    0.797018 0.755799 0.781234 0.186277
N1    N     N_R   0.888400 0.921830 0.294620 -0.043081
N2    N     N_R   0.874350 0.922400 0.443380 -0.038907
N3    N     N_R   0.625650 0.422400 0.556620 -0.041753
N4    N     N_R   0.374350 0.422400 0.443380 -0.040136
N5    N     N_R   0.054230 0.922730 0.705400 -0.041126
N6    N     N_R   0.945770 0.922730 0.294600 -0.040386
N7    N     N_R   0.554230 0.422730 0.705400 -0.040148
N8    N     N_R   0.445770 0.422730 0.294600 -0.039857
N9    N     N_R   0.873790 0.077030 0.443380 -0.036070
N10   N     N_R   0.126210 0.077030 0.556620 -0.036593
N11   N     N_R   0.373790 0.577030 0.443380 -0.037165
N12   N     N_R   0.111600 0.921830 0.705380 -0.042155
N13   N     N_R   0.626210 0.577030 0.556620 -0.039267
N14   N     N_R   0.945200 0.076700 0.294600 -0.038112
N15   N     N_R   0.054800 0.076700 0.705400 -0.043926
N16   N     N_R   0.445200 0.576700 0.294600 -0.041004
N17   N     N_R   0.554800 0.576700 0.705400 -0.042405
N18   N     N_R   0.111030 0.077600 0.705380 -0.036922
N19   N     N_R   0.888970 0.077600 0.294620 -0.037600
N20   N     N_R   0.611030 0.577600 0.705380 -0.034763
N21   N     N_R   0.388970 0.577600 0.294620 -0.035881
N22   N     N_R   0.919490 0.077280 0.556590 -0.038054
N23   N     N_R   0.388400 0.421830 0.294620 -0.041591
N24   N     N_R   0.080510 0.077280 0.443410 -0.037982
N25   N     N_R   0.419490 0.577280 0.556590 -0.039686
N26   N     N_R   0.580510 0.577280 0.443410 -0.040523
N27   N     N_2   0.884823 0.280237 0.090450 -0.110307
N28   N     N_2   0.117169 0.274716 0.915905 -0.110179
N29   N     N_2   0.365757 0.761017 0.054664 -0.107697
N30   N     N_2   0.630336 0.760130 0.946617 -0.107262
N31   N     N_R   0.611600 0.421830 0.705380 -0.042472
N32   N     N_R   0.079940 0.922160 0.443410 -0.039963
N33   N     N_R   0.920060 0.922160 0.556590 -0.038044
N34   N     N_R   0.579940 0.422160 0.443410 -0.041380
N35   N     N_R   0.420060 0.422160 0.556590 -0.040024
N36   N     N_R   0.125650 0.922400 0.556620 -0.039947
Ni1   Ni    Ni4+2 0.882160 0.999430 0.370180 0.206723
Ni2   Ni    Ni4+2 0.117840 0.999430 0.629820 0.209890
Ni3   Ni    Ni4+2 0.382160 0.499430 0.370180 0.209992
Ni4   Ni    Ni4+2 0.617840 0.499430 0.629820 0.213625
Ni5   Ni    Ni4+2 0.012460 0.999430 0.370180 0.209318
Ni6   Ni    Ni4+2 0.987540 0.999430 0.629820 0.207128
Ni7   Ni    Ni4+2 0.512460 0.499430 0.370180 0.213584
Ni8   Ni    Ni4+2 0.487540 0.499430 0.629820 0.210489

loop_
_geom_bond_atom_site_label_1
_geom_bond_atom_site_label_2
_ccdc_geom_bond_type
N17   Ni8   S    
C49   H13   S    
N23   Ni3   S    
N16   N21   A    
C1    H1    S    
C79   N26   A    
C34   C37   S    
C43   C83   A    
N26   Ni7   S    
N18   Ni2   S    
C11   C47   S    
N5    Ni6   S    
C42   C82   A    
C27   H78   S    
C71   N4    A    
C12   C48   S    
C42   N33   A    
N31   Ni4   S    
C14   C33   A    
N36   Ni2   S    
C3    H82   S    
C2    C57   A    
C41   H31   S    
N1    N6    A    
C4    C87   A    
C73   H41   S    
C3    N30   S    
C47   H15   S    
C89   N14   A    
C23   H45   S    
C57   N24   A    
C50   C54   D    
C64   H19   S    
C87   H47   S    
C52   H29   S    
H75   N29   S    
C11   C36   A    
C67   C81   A    
N11   N25   A    
C13   H12   S    
C10   C15   A    
N24   Ni5   S    
C45   H9    S    
C14   C49   S    
N3    Ni4   S    
C100  H77   S    
C95   N19   A    
C40   C49   S    
N6    Ni5   S    
C29   C33   A    
C35   C80   A    
N19   Ni1   S    
C32   C39   S    
C43   H33   S    
C19   C26   A    
C14   C18   A    
C69   C82   A    
N7    N31   A    
C22   H65   S    
C45   H14   S    
N8    Ni7   S    
C49   H17   S    
C13   N12   A    
C42   H32   S    
C12   C17   A    
N22   Ni6   S    
N15   N18   A    
C2    C86   A    
C92   N16   A    
N13   N26   A    
N25   Ni8   S    
H80   N30   S    
N35   Ni8   S    
C5    C79   A    
C93   N17   A    
C72   N5    A    
C73   N6    A    
N14   Ni5   S    
N33   Ni6   S    
C40   H8    S    
C91   N15   A    
N13   Ni4   S    
C44   H35   S    
N9    Ni1   S    
C74   H42   S    
C7    C91   A    
C21   H64   S    
C74   C80   A    
C12   C32   A    
C25   H56   S    
C69   H37   S    
C62   N30   S    
C44   N35   A    
C61   N29   S    
C79   H61   S    
C68   N25   A    
C86   H46   S    
C85   H44   S    
C29   C90   S    
N15   Ni6   S    
C59   N27   S    
C96   N20   A    
C15   C82   S    
C99   N28   S    
C25   C29   A    
C100  N29   S    
N2    N33   A    
C13   C77   A    
C26   H67   S    
C66   H21   S    
C33   C40   S    
C62   C66   D    
C27   C31   A    
C9    C62   S    
N7    Ni8   S    
C70   H38   S    
C28   C32   A    
C51   C76   S    
C54   C65   S    
C41   N32   A    
C30   C34   A    
C71   H39   S    
C99   H72   S    
C53   H30   S    
C58   C64   S    
C56   H25   S    
C20   H63   S    
C22   C25   A    
C24   H23   S    
C17   C21   A    
N16   Ni7   S    
C97   H57   S    
C88   N13   A    
C38   H6    S    
C15   C19   A    
C8    C97   A    
C37   H5    S    
C72   C77   A    
H66   N27   S    
C40   H4    S    
C60   N28   S    
C11   C16   A    
C99   H73   S    
C35   H34   S    
C16   C20   A    
C41   C81   A    
C92   H51   S    
N10   Ni2   S    
C18   C83   S    
C88   H48   S    
C56   C63   S    
C10   C34   A    
C23   C28   A    
C39   H3    S    
C70   C83   A    
C3    H81   S    
C9    C96   A    
C38   C47   S    
C75   H43   S    
C70   N3    A    
C8    C92   A    
C24   C78   A    
N2    Ni1   S    
C58   H26   S    
C21   C23   A    
C73   C76   A    
C85   C90   A    
C43   N34   A    
C51   H28   S    
C72   H40   S    
C37   C45   S    
C47   H10   S    
C50   C77   S    
C9    C93   A    
C7    C60   S    
C55   C66   S    
C4    C68   A    
C71   C84   A    
N4    N35   A    
C46   N22   A    
C7    C94   A    
C55   H24   S    
C67   N36   A    
N9    N22   A    
C18   C22   A    
C1    C76   A    
C6    C59   S    
C98   H69   S    
N32   N36   A    
C44   C84   A    
C39   H7    S    
C91   H50   S    
C2    C28   S    
C53   C58   D    
C26   C30   A    
C100  H76   S    
C46   C90   A    
C20   C27   A    
C1    N1    A    
C6    C89   A    
N10   N24   A    
C98   N27   S    
C8    C61   S    
C24   N23   A    
C59   C63   D    
N32   Ni5   S    
C48   H16   S    
C60   C64   D    
C17   C84   S    
C95   H54   S    
C36   C38   S    
C75   N8    A    
C87   N11   A    
C38   H2    S    
C68   H60   S    
C86   N10   A    
N11   Ni3   S    
H71   N28   S    
C37   H84   S    
N5    N12   A    
C85   N9    A    
C99   H74   S    
C35   N31   A    
C94   H53   S    
C94   N18   A    
C89   H49   S    
C16   C81   S    
N17   N20   A    
C65   H20   S    
N21   Ni3   S    
N34   Ni7   S    
C67   H36   S    
C51   C55   D    
C57   H59   S    
C75   C78   A    
C98   H68   S    
N8    N23   A    
C4    C31   S    
C53   C78   S    
C74   N7    A    
C98   H70   S    
N4    Ni3   S    
C61   C65   D    
C54   H22   S    
C48   H11   S    
C96   H55   S    
C6    C95   A    
C5    C30   S    
C10   C45   S    
N20   Ni4   S    
N14   N19   A    
C5    C88   A    
C31   C36   A    
C93   H52   S    
N1    Ni1   S    
C50   H27   S    
C97   N21   A    
C52   C80   S    
C100  H79   S    
C3    H83   S    
C69   N2    A    
C19   H62   S    
N12   Ni2   S    
C52   C56   D    
C63   H18   S    
C39   C48   S    
N3    N34   A    
C46   H58   S    
