data_mof_unit_24708.cif
_audit_creation_date              2012-12-10T17:07:43-0500
_audit_creation_method            fapswitch 2.2
_symmetry_space_group_name_H-M    P1
_symmetry_Int_Tables_number       1
_space_group_crystal_system       triclinic
_cell_length_a                    10.679304
_cell_length_b                    10.720879
_cell_length_c                    10.055767
_cell_angle_alpha                 91.889791
_cell_angle_beta                  89.275071
_cell_angle_gamma                 89.974334
_cell_volume                      1150.58139383

loop_
_atom_site_label
_atom_site_type_symbol
_atom_type_description
_atom_site_fract_x
_atom_site_fract_y
_atom_site_fract_z
_atom_type_partial_charge
C1    C     C_R   0.499701 0.262544 0.497127 0.913276
C2    C     C_2   0.579059 0.562477 0.073894 0.124259
C3    C     C_R   0.257908 0.495523 0.500254 0.856718
C4    C     C_R   0.509103 0.737074 0.502052 0.929028
C5    C     C_R   0.742073 0.499213 0.499357 0.836579
C6    C     C_3   0.070184 0.370263 0.566473 -0.078892
C7    C     C_3   0.924695 0.373229 0.569153 0.020938
C8    C     C_3   0.071045 0.610917 0.574156 -0.461983
C9    C     C_3   0.072699 0.493728 0.353074 -0.058163
C10   C     C_3   0.121294 0.491220 0.500090 0.090595
C11   C     C_3   0.868113 0.249843 0.511358 -0.443145
C12   C     C_3   0.878414 0.493208 0.498789 0.073977
C13   C     C_3   0.898450 0.137362 0.595038 -0.862212
C14   C     C_3   0.927643 0.610013 0.576887 -0.452174
C15   C     C_3   0.929803 0.496424 0.353937 -0.458552
C16   C     C_2   0.542720 0.928536 0.393587 -0.190790
C17   C     C_2   0.544691 0.865905 0.507209 -0.102996
C18   C     C_2   0.552753 0.062234 0.390973 0.134758
C19   C     C_2   0.495094 0.130070 0.488851 -0.394875
C20   C     C_2   0.559071 0.581633 0.928644 0.116439
H1    H     H_    0.899621 0.584687 0.308632 0.170829
H2    H     H_    0.106643 0.620586 0.677274 0.188190
H3    H     H_    0.894142 0.610299 0.682196 0.183855
H4    H     H_    0.105959 0.582154 0.308797 0.161314
H5    H     H_    0.890919 0.418114 0.292004 0.173010
H6    H     H_    0.207536 0.316725 0.697530 0.201934
H7    H     H_    0.112830 0.433097 0.759981 0.200578
H8    H     H_    0.522115 0.939215 0.695702 0.180842
H9    H     H_    0.652185 0.993641 0.615750 0.213938
H10   H     H_    0.548878 0.158291 0.219438 0.210590
H11   H     H_    0.682376 0.178593 0.309760 0.187621
H12   H     H_    0.104264 0.695118 0.522172 0.166812
H13   H     H_    0.671454 0.665436 0.793835 0.231969
H14   H     H_    0.540850 0.747764 0.842652 0.210260
H15   H     H_    0.747230 0.544969 0.156748 0.191374
H16   H     H_    0.664478 0.672863 0.213662 0.230132
H17   H     H_    0.000924 0.122297 0.601256 0.264190
H18   H     H_    0.858551 0.150758 0.697050 0.260785
H19   H     H_    0.857053 0.052125 0.548008 0.248541
H20   H     H_    0.764781 0.257735 0.509531 0.206707
H21   H     H_    0.901688 0.230789 0.407878 0.202833
H22   H     H_    0.104351 0.409450 0.168905 0.180183
H23   H     H_    0.891868 0.696815 0.532643 0.179309
H24   H     H_    0.074100 0.306740 0.287183 0.175388
H25   H     H_    0.521797 0.882072 0.298760 0.168227
H26   H     H_    0.442071 0.086246 0.567198 0.137653
H27   H     H_    0.471711 0.420557 0.895246 0.140525
H28   H     H_    0.103546 0.289092 0.504152 0.152067
H29   H     H_    0.420770 0.469877 0.102860 0.144581
H30   H     H_    0.891704 0.381776 0.674766 0.180816
N1    N     N_2   0.501360 0.501330 0.852150 -0.230906
N2    N     N_2   0.501390 0.501360 0.147810 -0.231153
N3    N     N_3   0.115822 0.350862 0.701653 -0.478374
N4    N     N_3   0.595767 0.915695 0.630202 -0.471603
N5    N     N_3   0.614859 0.114333 0.277854 -0.450289
N6    N     N_3   0.613415 0.691158 0.874333 -0.426235
N7    N     N_3   0.688933 0.617683 0.130057 -0.437521
N8    N     N_3   0.121408 0.389592 0.268222 -0.446144
O1    O     O_R   0.499980 0.319060 0.613040 -0.618688
O2    O     O_R   0.500020 0.319100 0.386900 -0.611194
O3    O     O_R   0.314770 0.499960 0.613070 -0.630493
O4    O     O_R   0.314820 0.500000 0.386930 -0.596057
O5    O     O_R   0.499980 0.680900 0.613100 -0.616767
O6    O     O_R   0.500020 0.680940 0.386960 -0.640583
O7    O     O_R   0.685180 0.500000 0.613070 -0.635432
O8    O     O_R   0.685230 0.500040 0.386930 -0.640552
Zn1   Zn    Zn3+2 0.499970 0.499970 0.650990 0.910182
Zn2   Zn    Zn3+2 0.500030 0.500030 0.349010 0.913968

loop_
_geom_bond_atom_site_label_1
_geom_bond_atom_site_label_2
_ccdc_geom_bond_type
C14   H3    S    
C6    C10   S    
O8    Zn2   S    
H7    N3    S    
C9    H4    S    
H14   N6    S    
C6    C7    S    
C14   H23   S    
C9    C10   S    
O3    Zn1   S    
C8    H2    S    
N2    Zn2   S    
C12   C15   S    
O4    Zn2   S    
H15   N7    S    
H29   N2    S    
H11   N5    S    
H22   N8    S    
H13   N6    S    
C3    O3    A    
C9    C15   S    
C2    N7    S    
C4    O6    A    
C3    C10   S    
N1    Zn1   S    
C7    C11   S    
C11   C13   S    
C4    O5    A    
C13   H18   S    
C6    H28   S    
C2    N2    D    
C18   N5    S    
C4    C17   S    
O6    Zn2   S    
C5    O7    A    
C12   C14   S    
C11   H21   S    
C20   N1    D    
C20   N6    S    
C1    O1    A    
C11   H20   S    
C1    O2    A    
C13   H19   S    
O5    Zn1   S    
C7    C12   S    
C19   H26   S    
C15   H5    S    
H9    N4    S    
C16   H25   S    
C2    C20   S    
C8    H12   S    
H6    N3    S    
C15   H1    S    
O2    Zn2   S    
C5    C12   S    
C16   C18   S    
C18   C19   D    
H10   N5    S    
C3    O4    A    
C7    H30   S    
H8    N4    S    
C9    N8    S    
H16   N7    S    
C8    C14   S    
C6    N3    S    
O1    Zn1   S    
C1    C19   S    
C13   H17   S    
C17   N4    S    
C8    C10   S    
H27   N1    S    
C16   C17   D    
H24   N8    S    
C5    O8    A    
O7    Zn1   S    
