data_mof_unit_5838.cif
_audit_creation_date              2013-03-05T15:58:34-0500
_audit_creation_method            fapswitch 2.2
_symmetry_space_group_name_H-M    P1
_symmetry_Int_Tables_number       1
_space_group_crystal_system       triclinic
_cell_length_a                    15.085197
_cell_length_b                    13.718688
_cell_length_c                    10.630622
_cell_angle_alpha                 89.882355
_cell_angle_beta                  90.402762
_cell_angle_gamma                 90.045214
_cell_volume                      2199.93811991

loop_
_atom_site_label
_atom_site_type_symbol
_atom_site_description
_atom_site_fract_x
_atom_site_fract_y
_atom_site_fract_z
_atom_type_partial_charge
O1    O     O_R   0.370260 0.582280 0.500030 -0.581781
O2    O     O_R   0.629740 0.417720 0.499970 -0.585139
O3    O     O_R   0.629740 0.582280 0.499970 -0.578590
O4    O     O_R   0.370260 0.417720 0.500030 -0.591065
C1    C     C_R   0.328534 0.499991 0.501004 0.820719
C2    C     C_R   0.671465 0.500004 0.499890 0.846847
O5    O     O_R   0.499980 0.582260 0.316850 -0.591141
O6    O     O_R   0.500020 0.417740 0.683150 -0.591722
O7    O     O_R   0.500020 0.582260 0.683150 -0.567212
O8    O     O_R   0.499980 0.417740 0.316850 -0.588179
C3    C     C_R   0.499114 0.500185 0.259305 0.840485
C4    C     C_R   0.500769 0.499864 0.740705 0.827381
Cu1   Cu    Cu3+1 0.500000 0.597420 0.500000 0.983844
Cu2   Cu    Cu3+1 0.500000 0.402580 0.500000 0.975059
C5    C     C_3   0.481998 0.591314 0.040374 -0.146906
C6    C     C_3   0.517917 0.409029 0.959617 -0.179111
C7    C     C_3   0.562800 0.562485 0.958960 -0.174735
C8    C     C_3   0.437108 0.437798 0.041103 -0.202487
C9    C     C_3   0.421107 0.527944 0.957088 0.015283
C10   C     C_3   0.578788 0.472456 0.042974 0.010504
H1    H     H_    0.466676 0.665557 0.075489 0.187156
H2    H     H_    0.533372 0.335166 0.923604 0.205129
H3    H     H_    0.614505 0.612676 0.922758 0.171276
H4    H     H_    0.385611 0.387411 0.077455 0.181531
C11   C     C_3   0.500773 0.499576 0.877275 -0.086860
C12   C     C_3   0.499102 0.500749 0.122745 -0.093090
C13   C     C_R   0.814335 0.411376 0.496160 -0.188925
C14   C     C_R   0.185744 0.588427 0.513279 -0.193925
C15   C     C_R   0.768291 0.499784 0.502461 -0.087269
C16   C     C_R   0.231744 0.500070 0.505135 -0.079177
C17   C     C_R   0.814661 0.587635 0.512730 -0.184474
C18   C     C_R   0.185365 0.411905 0.501823 -0.188790
C19   C     C_R   0.906861 0.587889 0.516416 0.085124
C20   C     C_R   0.093188 0.411366 0.504236 0.094285
C21   C     C_R   0.953520 0.498919 0.511652 0.058831
C22   C     C_R   0.046549 0.500163 0.512732 0.065780
C23   C     C_R   0.907073 0.409057 0.503827 0.034075
C24   C     C_R   0.093011 0.590042 0.520177 0.036301
C25   C     C_R   0.952542 0.676291 0.525598 -0.215930
C26   C     C_R   0.047505 0.322795 0.498286 -0.217232
C27   C     C_R   0.045211 0.678717 0.529822 -0.030979
C28   C     C_R   0.954846 0.320085 0.500108 -0.029222
H5    H     H_    0.777064 0.344918 0.482918 0.196423
H6    H     H_    0.223011 0.655626 0.511716 0.193655
H7    H     H_    0.779030 0.656152 0.517506 0.174909
H8    H     H_    0.220944 0.343422 0.495757 0.164602
H9    H     H_    0.915591 0.743926 0.531785 0.185888
H10   H     H_    0.084435 0.255035 0.494327 0.183379
C29   C     C_R   0.459591 0.792872 0.594743 0.062956
C30   C     C_R   0.541613 0.207231 0.406156 0.066738
C31   C     C_R   0.541346 0.793045 0.405925 0.052075
C32   C     C_R   0.458438 0.206775 0.593796 0.061395
N1    N     N_R   0.500000 0.743810 0.500000 -0.207452
N2    N     N_R   0.500000 0.256190 0.500000 -0.202324
C33   C     C_R   0.543435 0.896393 0.402992 -0.072524
C34   C     C_R   0.459113 0.103457 0.598781 -0.070557
C35   C     C_R   0.460257 0.896121 0.599685 -0.077586
C36   C     C_R   0.541339 0.103904 0.401286 -0.074806
C37   C     C_R   0.501513 0.948231 0.501040 0.080584
C38   C     C_R   0.500678 0.051716 0.500372 0.078153
C39   C     C_R   0.584130 0.948514 0.303373 -0.077876
C40   C     C_R   0.419164 0.051333 0.698975 -0.070176
C41   C     C_R   0.420292 0.947810 0.699915 -0.083632
C42   C     C_R   0.582051 0.052120 0.301721 -0.093200
H11   H     H_    0.426254 0.750626 0.665909 0.189385
H12   H     H_    0.575428 0.249721 0.335604 0.160226
H13   H     H_    0.571824 0.750646 0.332671 0.166911
H14   H     H_    0.424846 0.248841 0.664762 0.151114
C43   C     C_2   0.332957 0.559376 0.905479 0.831302
O9    O     O_2   0.266413 0.512313 0.929785 -0.574587
O10   O     O_R   0.327524 0.642265 0.829367 -0.753346
H15   H     H_    0.264849 0.655762 0.799065 0.359470
C44   C     C_2   0.667474 0.443926 0.095438 0.835629
O11   O     O_2   0.699275 0.364619 0.069749 -0.571256
O12   O     O_R   0.713268 0.508620 0.173732 -0.767105
H16   H     H_    0.772060 0.481292 0.204188 0.341635
C45   C     C_2   0.088765 0.775007 0.546807 0.853346
O13   O     O_2   0.060514 0.846192 0.489861 -0.539103
O14   O     O_R   0.159273 0.785569 0.631803 -0.763235
H17   H     H_    0.182787 0.854776 0.634846 0.370480
C46   C     C_2   0.911246 0.222948 0.500932 0.869916
O15   O     O_2   0.939112 0.158004 0.433200 -0.531129
O16   O     O_R   0.841159 0.204095 0.582916 -0.747158
H18   H     H_    0.817693 0.135083 0.574972 0.353171
C47   C     C_2   0.626907 0.895080 0.198506 0.865284
O17   O     O_2   0.600647 0.906986 0.090464 -0.533923
O18   O     O_R   0.697643 0.832025 0.223658 -0.742652
H19   H     H_    0.720893 0.799606 0.144888 0.353435
C48   C     C_2   0.380744 0.104992 0.806726 0.847207
O19   O     O_2   0.301277 0.100111 0.827496 -0.526895
O20   O     O_R   0.435736 0.162144 0.883047 -0.752830
H20   H     H_    0.402070 0.195887 0.952729 0.347770
C49   C     C_2   0.384652 0.894068 0.809994 0.873030
O21   O     O_2   0.434641 0.845746 0.876262 -0.552412
O22   O     O_R   0.294236 0.898146 0.836979 -0.704746
H21   H     H_    0.278128 0.857954 0.913636 0.357911
C50   C     C_2   0.622012 0.105796 0.194641 0.889970
O23   O     O_2   0.700192 0.093996 0.169167 -0.521896
O24   O     O_R   0.569424 0.168320 0.121847 -0.742512
H22   H     H_    0.603234 0.198194 0.049322 0.371298

loop_
_geom_bond_atom_site_label_1
_geom_bond_atom_site_label_2
_geom_bond_distance
_ccdc_geom_bond_type
O18   H19   1.013858 S    
C49   O21   1.223029 D    
C33   C37   1.416015 A    
C13   C15   1.400082 A    
C44   O11   1.221602 D    
O22   H21   1.013841 S    
C8    C12   1.537547 S    
O3    C2    1.292801 A    
C50   O23   1.222876 D    
C25   C27   1.398712 A    
C45   O13   1.223266 D    
C5    C9    1.540736 S    
C19   C25   1.397635 A    
C29   H11   1.079000 S    
C8    H4    1.110367 S    
C21   C23   1.419814 A    
C27   C45   1.485656 S    
C35   C37   1.415431 A    
C36   C38   1.415505 A    
C40   C48   1.484363 S    
C7    C10   1.540827 S    
C29   C35   1.417548 A    
C26   H10   1.085157 S    
C8    C9    1.542158 S    
C23   C28   1.418701 A    
C43   O10   1.396375 S    
O7    Cu1   1.957647 S    
C46   O16   1.398533 S    
O16   H18   1.013975 S    
O6    Cu2   1.958496 S    
C17   C19   1.391138 A    
C48   O20   1.397600 S    
C20   C22   1.410608 A    
O3    Cu1   1.968309 S    
C6    C10   1.541437 S    
C34   C40   1.419226 A    
C26   C28   1.398507 A    
C37   C38   1.419751 A    
C49   O22   1.396938 S    
Cu1   Cu2   2.672948 S    
C44   O12   1.397016 S    
O2    C2    1.292018 A    
C28   C46   1.485636 S    
O2    Cu2   1.967983 S    
C50   O24   1.397709 S    
C32   N2    1.360963 A    
C35   C41   1.419295 A    
Cu1   N1    2.008279 S    
C45   O14   1.398388 S    
C36   C42   1.419523 A    
C47   O18   1.398185 S    
C30   C36   1.418565 A    
C24   C27   1.418894 A    
O8    Cu2   1.957648 S    
O20   H20   1.013903 S    
C5    C12   1.539428 S    
C3    C12   1.451724 S    
C47   O17   1.222994 D    
C14   H6    1.079557 S    
C46   O15   1.223285 D    
C34   C38   1.415759 A    
C31   N1    1.360411 A    
C21   C22   1.403415 A    
C18   C20   1.390939 A    
C39   C42   1.421784 A    
O5    C3    1.282531 A    
O12   H16   1.013871 S    
C40   C41   1.420337 A    
O24   H22   1.013123 S    
C7    H3    1.110349 S    
C14   C24   1.401534 A    
O6    C4    1.283158 A    
C31   H13   1.078642 S    
C30   H12   1.079636 S    
C39   C47   1.486863 S    
C6    C8    1.552144 S    
C42   C50   1.485559 S    
Cu2   N2    2.008279 S    
O1    C1    1.292138 A    
C9    C43   1.498296 S    
O1    Cu1   1.967983 S    
C25   H9    1.085151 S    
C1    C16   1.461066 S    
C6    C11   1.539152 S    
C5    C7    1.551854 S    
C6    H2    1.109476 S    
C18   H8    1.084618 S    
O4    C1    1.292835 A    
C32   H14   1.080080 S    
C41   C49   1.485486 S    
C4    C11   1.451822 S    
C7    C11   1.537773 S    
C14   C16   1.400332 A    
O10   H15   1.013754 S    
C30   N2    1.361120 A    
C16   C18   1.397189 A    
C5    H1    1.110536 S    
C10   C12   1.526819 S    
C13   C23   1.401155 A    
C29   N1    1.360540 A    
C33   C39   1.419497 A    
C22   C24   1.419906 A    
C19   C21   1.410621 A    
C10   C44   1.497844 S    
C31   C33   1.418411 A    
O4    Cu2   1.968309 S    
C43   O9    1.221970 D    
C9    C11   1.527099 S    
O7    C4    1.284253 A    
O8    C3    1.284793 A    
O14   H17   1.013768 S    
C13   H5    1.079707 S    
O5    Cu1   1.958497 S    
C2    C15   1.460716 S    
C15   C17   1.397083 A    
C17   H7    1.084611 S    
C20   C26   1.397746 A    
C48   O19   1.222224 D    
C32   C34   1.418319 A    
