data_mof_unit_44558.cif
_audit_creation_date              2012-12-11T15:56:59-0500
_audit_creation_method            fapswitch 2.2
_symmetry_space_group_name_H-M    P1
_symmetry_Int_Tables_number       1
_space_group_crystal_system       triclinic
_cell_length_a                    17.489973
_cell_length_b                    24.424825
_cell_length_c                    15.103111
_cell_angle_alpha                 90.0
_cell_angle_beta                  126.564289
_cell_angle_gamma                 89.99996
_cell_volume                      5182.08734396

loop_
_atom_site_label
_atom_site_type_symbol
_atom_type_description
_atom_site_fract_x
_atom_site_fract_y
_atom_site_fract_z
_atom_type_partial_charge
C1    C     C_R   0.308122 0.123557 0.905766 -0.146599
C2    C     C_R   0.554879 0.152676 0.909299 -0.135609
C3    C     C_R   0.812196 0.361902 0.997131 0.010365
C4    C     C_R   0.553939 0.001275 0.360498 0.033178
C5    C     C_R   0.053928 0.498725 0.360491 0.033177
C6    C     C_R   0.197016 0.000081 0.629533 -0.066102
C7    C     C_R   0.697016 0.499919 0.629532 -0.066101
C8    C     C_R   0.519433 0.046241 0.753304 -0.116439
C9    C     C_R   0.515309 0.954299 0.747220 -0.111328
C10   C     C_R   0.015310 0.545701 0.747222 -0.111330
C11   C     C_R   0.019431 0.453758 0.753302 -0.116434
C12   C     C_R   0.769111 0.954009 0.246177 -0.118468
C13   C     C_R   0.054879 0.347323 0.909299 -0.135597
C14   C     C_R   0.769109 0.045950 0.246034 -0.120434
C15   C     C_R   0.269109 0.454050 0.246035 -0.120436
C16   C     C_R   0.269110 0.545991 0.246177 -0.118468
C17   C     C_1   0.763968 0.172416 0.966164 0.051342
C18   C     C_1   0.780269 0.830101 0.992861 0.051862
C19   C     C_1   0.280264 0.669900 0.992851 0.051863
C20   C     C_1   0.263951 0.327579 0.966135 0.051346
C21   C     C_1   0.238917 0.901251 0.648424 -0.008089
C22   C     C_1   0.239496 0.098803 0.648672 -0.003375
C23   C     C_1   0.739495 0.401197 0.648672 -0.003374
C24   C     C_R   0.056253 0.652029 0.908719 -0.130412
C25   C     C_1   0.738917 0.598749 0.648424 -0.008089
C26   C     C_1   0.899205 0.001932 0.508690 0.013240
C27   C     C_1   0.399205 0.498072 0.508691 0.013240
C28   C     C_R   0.540729 0.000785 0.717116 0.006181
C29   C     C_R   0.040727 0.499214 0.717114 0.006186
C30   C     C_R   0.823813 0.999963 0.268469 0.038322
C31   C     C_R   0.323813 0.500037 0.268470 0.038321
C32   C     C_R   0.618473 0.183593 0.001080 0.009146
C33   C     C_R   0.620272 0.817236 0.000470 0.010558
C34   C     C_R   0.120272 0.682764 0.000470 0.010556
C35   C     C_R   0.308021 0.876796 0.905803 -0.147407
C36   C     C_R   0.118473 0.316407 0.001081 0.009138
C37   C     C_3   0.030442 0.955426 0.499196 -0.202614
C38   C     C_3   0.031071 0.045627 0.497106 -0.203100
C39   C     C_3   0.531071 0.454374 0.497109 -0.203099
C40   C     C_3   0.530443 0.544575 0.499193 -0.202615
C41   C     C_3   0.959541 0.000919 0.470812 0.099066
C42   C     C_3   0.459542 0.499083 0.470812 0.099066
C43   C     C_3   0.925758 0.999965 0.351376 0.121536
C44   C     C_3   0.425758 0.500035 0.351376 0.121537
C45   C     C_3   0.997075 0.954397 0.378581 -0.172628
C46   C     C_R   0.808021 0.623203 0.905803 -0.147407
C47   C     C_3   0.997679 0.044705 0.376461 -0.173649
C48   C     C_3   0.497679 0.455294 0.376463 -0.173649
C49   C     C_3   0.497075 0.545602 0.378579 -0.172629
C50   C     C_3   0.071565 0.999129 0.405843 -0.108911
C51   C     C_3   0.571565 0.500869 0.405843 -0.108911
C52   C     C_R   0.400956 0.876565 0.090901 -0.134008
C53   C     C_R   0.401195 0.123931 0.090872 -0.134751
C54   C     C_R   0.901195 0.376069 0.090871 -0.134751
C55   C     C_R   0.900956 0.623434 0.090901 -0.134007
C56   C     C_3   0.102758 0.000113 0.524670 0.190539
C57   C     C_R   0.808122 0.376443 0.905765 -0.146600
C58   C     C_3   0.602759 0.499888 0.524670 0.190539
C59   C     C_3   0.220115 0.830851 0.065460 -0.459532
C60   C     C_3   0.225681 0.169765 0.072330 -0.458272
C61   C     C_3   0.725676 0.330235 0.072322 -0.458272
C62   C     C_3   0.720114 0.669149 0.065459 -0.459533
C63   C     C_3   0.674174 0.279825 0.077371 -0.130048
C64   C     C_3   0.665413 0.719027 0.066543 -0.130413
C65   C     C_3   0.165416 0.780972 0.066548 -0.130412
C66   C     C_3   0.174185 0.220177 0.077384 -0.130047
C67   C     C_3   0.820769 0.265619 0.040211 -0.450819
C68   C     C_R   0.649768 0.151771 0.092355 -0.149180
C69   C     C_3   0.824585 0.733591 0.048252 -0.448332
C70   C     C_3   0.324585 0.766409 0.048250 -0.448332
C71   C     C_3   0.320766 0.234380 0.040205 -0.450821
C72   C     C_3   0.170261 0.802136 0.877937 -0.414303
C73   C     C_3   0.164656 0.194358 0.879173 -0.413584
C74   C     C_3   0.664662 0.305638 0.879170 -0.413582
C75   C     C_3   0.670262 0.697864 0.877936 -0.414305
C76   C     C_3   0.256831 0.816758 0.996913 0.373052
C77   C     C_3   0.255859 0.182757 0.996859 0.373924
C78   C     C_3   0.755860 0.317242 0.996858 0.373922
C79   C     C_R   0.650344 0.848372 0.092111 -0.144339
C80   C     C_3   0.756831 0.683242 0.996913 0.373052
C81   C     C_3   0.666314 0.233172 0.000432 0.296338
C82   C     C_3   0.667913 0.767653 0.000151 0.298547
C83   C     C_3   0.167913 0.732347 0.000151 0.298546
C84   C     C_3   0.166314 0.266827 0.000434 0.296339
C85   C     C_3   0.767321 0.215486 0.037588 -0.069505
C86   C     C_3   0.772937 0.783431 0.050040 -0.074411
C87   C     C_3   0.272936 0.716568 0.050036 -0.074409
C88   C     C_3   0.267316 0.284514 0.037575 -0.069505
C89   C     C_3   0.609831 0.257933 0.881836 -0.442759
C90   C     C_R   0.150344 0.651628 0.092111 -0.144341
C91   C     C_3   0.617504 0.746817 0.879698 -0.446366
C92   C     C_3   0.117502 0.753185 0.879698 -0.446363
C93   C     C_3   0.109824 0.242062 0.881840 -0.442754
C94   C     C_3   0.543637 0.062361 0.585292 -0.131211
C95   C     C_3   0.645137 0.976419 0.659457 -0.133568
C96   C     C_3   0.145139 0.523567 0.659457 -0.133579
C97   C     C_3   0.043602 0.437639 0.585267 -0.131208
C98   C     C_R   0.545063 0.046330 0.300993 -0.153220
C99   C     C_R   0.544405 0.955012 0.302442 -0.152968
C100  C     C_R   0.044401 0.544988 0.302439 -0.152967
C101  C     C_R   0.149768 0.348229 0.092355 -0.149186
C102  C     C_R   0.045056 0.453670 0.300989 -0.153222
C103  C     C_3   0.557327 0.061975 0.494357 -0.476344
C104  C     C_3   0.644238 0.971938 0.556238 -0.468580
C105  C     C_3   0.144241 0.528048 0.556239 -0.468574
C106  C     C_3   0.057286 0.438025 0.494327 -0.476346
C107  C     C_3   0.463821 0.969004 0.527443 -0.402468
C108  C     C_3   0.963825 0.531007 0.527448 -0.402467
C109  C     C_3   0.548864 0.001982 0.625371 0.327536
C110  C     C_3   0.048856 0.498017 0.625365 0.327540
C111  C     C_3   0.555882 0.002196 0.458387 0.383359
C112  C     C_R   0.556253 0.847971 0.908719 -0.130413
C113  C     C_3   0.055869 0.497804 0.458379 0.383361
C114  C     C_3   0.463718 0.973444 0.426961 -0.408671
C115  C     C_3   0.963720 0.526570 0.426964 -0.408679
C116  C     C_R   0.243819 0.954504 0.692521 0.038307
C117  C     C_R   0.243868 0.045602 0.692636 0.037555
C118  C     C_R   0.743868 0.454398 0.692636 0.037554
C119  C     C_R   0.743819 0.545496 0.692521 0.038307
C120  C     C_R   0.312195 0.138097 0.997132 0.010364
C121  C     C_R   0.312342 0.861941 0.997170 0.010613
C122  C     C_R   0.812342 0.638058 0.997170 0.010613
H1    H     H_    0.250288 0.129619 0.820278 0.107591
H2    H     H_    0.981955 0.080997 0.323861 0.116790
H3    H     H_    0.714855 0.292649 0.234419 0.106450
H4    H     H_    0.777310 0.738068 0.227983 0.103605
H5    H     H_    0.688697 0.702228 0.214031 0.109232
H6    H     H_    0.277317 0.761931 0.227985 0.103605
H7    H     H_    0.188708 0.797770 0.214040 0.109231
H8    H     H_    0.295395 0.242691 0.230601 0.105428
H9    H     H_    0.214886 0.207357 0.234442 0.106449
H10   H     H_    0.460219 0.131570 0.537218 0.097889
H11   H     H_    0.397323 0.075101 0.468447 0.123825
H12   H     H_    0.734334 0.911548 0.744330 0.121547
H13   H     H_    0.481955 0.419001 0.323865 0.116788
H14   H     H_    0.619465 0.893296 0.657809 0.106576
H15   H     H_    0.234363 0.588426 0.744349 0.121547
H16   H     H_    0.119501 0.606694 0.657835 0.106584
H17   H     H_    0.960157 0.368441 0.537177 0.097891
H18   H     H_    0.897282 0.424919 0.468428 0.123824
H19   H     H_    0.480885 0.582699 0.327710 0.117335
H20   H     H_    0.120766 0.998403 0.382299 0.105313
H21   H     H_    0.620766 0.501593 0.382299 0.105312
H22   H     H_    0.280709 0.842711 0.150634 0.150133
H23   H     H_    0.288708 0.158102 0.156172 0.147532
H24   H     H_    0.788700 0.341897 0.156166 0.147533
H25   H     H_    0.780707 0.657289 0.150633 0.150134
H26   H     H_    0.171737 0.866875 0.028749 0.154818
H27   H     H_    0.250009 0.871045 0.820278 0.108211
H28   H     H_    0.176917 0.133851 0.039191 0.155077
H29   H     H_    0.676913 0.366150 0.039181 0.155075
H30   H     H_    0.671736 0.633124 0.028746 0.154818
H31   H     H_    0.089557 0.793036 0.023635 0.133280
H32   H     H_    0.100533 0.207685 0.045159 0.132101
H33   H     H_    0.600519 0.292317 0.045133 0.132103
H34   H     H_    0.589553 0.706963 0.023627 0.133281
H35   H     H_    0.884133 0.271984 0.126991 0.139765
H36   H     H_    0.886498 0.724978 0.134770 0.138686
H37   H     H_    0.386497 0.775022 0.134769 0.138686
H38   H     H_    0.750009 0.628955 0.820278 0.108212
H39   H     H_    0.384130 0.228018 0.126985 0.139766
H40   H     H_    0.808312 0.197729 0.121954 0.093270
H41   H     H_    0.810310 0.796626 0.137112 0.092119
H42   H     H_    0.310310 0.703372 0.137106 0.092119
H43   H     H_    0.308311 0.302277 0.121937 0.093272
H44   H     H_    0.194097 0.790702 0.826569 0.160765
H45   H     H_    0.183501 0.205969 0.823113 0.161233
H46   H     H_    0.683511 0.294027 0.823115 0.161232
H47   H     H_    0.694099 0.709298 0.826570 0.160765
H48   H     H_    0.429259 0.868611 0.175622 0.087493
H49   H     H_    0.750289 0.370381 0.820278 0.107591
H50   H     H_    0.429804 0.132390 0.175508 0.086953
H51   H     H_    0.929804 0.367609 0.175508 0.086953
H52   H     H_    0.929259 0.631389 0.175622 0.087493
H53   H     H_    0.121162 0.837757 0.838507 0.157769
H54   H     H_    0.118568 0.157318 0.844734 0.157874
H55   H     H_    0.618571 0.342676 0.844727 0.157875
H56   H     H_    0.621163 0.662244 0.838506 0.157770
H57   H     H_    0.042583 0.764981 0.842736 0.156427
H58   H     H_    0.038372 0.227918 0.854762 0.158742
H59   H     H_    0.538374 0.272074 0.854746 0.158741
H60   H     H_    0.043281 0.919055 0.550511 0.120213
H61   H     H_    0.542584 0.735021 0.842733 0.156427
H62   H     H_    0.598631 0.227276 0.820694 0.165964
H63   H     H_    0.615609 0.779242 0.826612 0.167809
H64   H     H_    0.115602 0.720760 0.826609 0.167807
H65   H     H_    0.098613 0.272716 0.820689 0.165961
H66   H     H_    0.848633 0.258875 0.991090 0.165794
H67   H     H_    0.854349 0.741912 0.001597 0.165966
H68   H     H_    0.354349 0.758088 0.001596 0.165966
H69   H     H_    0.348630 0.241122 0.991082 0.165794
H70   H     H_    0.603231 0.086427 0.655812 0.117846
H71   H     H_    0.044211 0.082834 0.546592 0.120669
H72   H     H_    0.703480 0.004895 0.719225 0.128635
H73   H     H_    0.203471 0.495084 0.719217 0.128635
H74   H     H_    0.103190 0.413566 0.655777 0.117842
H75   H     H_    0.626486 0.081679 0.525119 0.153265
H76   H     H_    0.710454 0.990403 0.574746 0.165051
H77   H     H_    0.210447 0.509571 0.574740 0.165050
H78   H     H_    0.126433 0.418309 0.525078 0.153258
H79   H     H_    0.500249 0.086825 0.423399 0.151917
H80   H     H_    0.642880 0.928401 0.533690 0.157249
H81   H     H_    0.142905 0.571585 0.533706 0.157251
H82   H     H_    0.544210 0.417168 0.546597 0.120669
H83   H     H_    0.000192 0.413185 0.423359 0.151921
H84   H     H_    0.394739 0.983928 0.506566 0.161014
H85   H     H_    0.468041 0.925032 0.548580 0.149007
H86   H     H_    0.968062 0.574979 0.548598 0.149005
H87   H     H_    0.894737 0.516093 0.506566 0.161012
H88   H     H_    0.560896 0.088580 0.327214 0.090008
H89   H     H_    0.557259 0.913079 0.330907 0.084741
H90   H     H_    0.057256 0.586921 0.330906 0.084741
H91   H     H_    0.060887 0.411420 0.327210 0.090009
H92   H     H_    0.400122 0.996979 0.360945 0.158461
H93   H     H_    0.543282 0.580947 0.550505 0.120214
H94   H     H_    0.457307 0.931493 0.394337 0.148288
H95   H     H_    0.957329 0.568522 0.394357 0.148286
H96   H     H_    0.900111 0.503046 0.360939 0.158462
H97   H     H_    0.530586 0.088917 0.746138 0.109714
H98   H     H_    0.519288 0.912007 0.729449 0.096975
H99   H     H_    0.019294 0.587992 0.729455 0.096972
H100  H     H_    0.030580 0.411082 0.746131 0.109706
H101  H     H_    0.792861 0.911971 0.262509 0.092244
H102  H     H_    0.792911 0.087977 0.262278 0.092754
H103  H     H_    0.292911 0.412023 0.262279 0.092754
H104  H     H_    0.980884 0.917299 0.327715 0.117335
H105  H     H_    0.292861 0.588029 0.262508 0.092244
H106  H     H_    0.695418 0.163582 0.177914 0.104435
H107  H     H_    0.695896 0.836017 0.177471 0.099646
H108  H     H_    0.195896 0.663983 0.177471 0.099648
H109  H     H_    0.195418 0.336418 0.177915 0.104441
H110  H     H_    0.511167 0.835275 0.823402 0.088581
H111  H     H_    0.508633 0.165707 0.824280 0.091527
H112  H     H_    0.008633 0.334293 0.824280 0.091524
H113  H     H_    0.011166 0.664726 0.823402 0.088581
H114  H     H_    0.795374 0.257313 0.230599 0.105426
N1    N     N_R   0.392450 0.103580 0.942190 -0.036128
N2    N     N_R   0.525490 0.971610 0.207550 -0.033372
N3    N     N_R   0.025490 0.528390 0.207550 -0.033372
N4    N     N_R   0.025490 0.471610 0.207550 -0.033893
N5    N     N_R   0.317450 0.971190 0.792000 -0.067037
N6    N     N_R   0.317450 0.028810 0.792000 -0.066771
N7    N     N_R   0.817450 0.471190 0.792000 -0.066772
N8    N     N_R   0.817450 0.528810 0.792000 -0.067037
N9    N     N_R   0.473900 0.028390 0.792280 -0.043240
N10   N     N_R   0.473900 0.971610 0.792280 -0.044285
N11   N     N_R   0.973900 0.528390 0.792280 -0.044285
N12   N     N_R   0.392450 0.896420 0.942190 -0.036664
N13   N     N_R   0.973900 0.471610 0.792280 -0.043239
N14   N     N_R   0.682310 0.971180 0.208170 -0.040945
N15   N     N_R   0.682310 0.028820 0.208170 -0.040871
N16   N     N_R   0.182310 0.471180 0.208170 -0.040872
N17   N     N_R   0.182310 0.528820 0.208170 -0.040945
N18   N     N_R   0.606470 0.103570 0.057210 -0.036774
N19   N     N_R   0.606470 0.896430 0.057210 -0.036930
N20   N     N_R   0.106470 0.603570 0.057210 -0.036930
N21   N     N_R   0.106470 0.396430 0.057210 -0.036774
N22   N     N_R   0.549740 0.896000 0.943240 -0.034234
N23   N     N_R   0.892450 0.603580 0.942190 -0.036664
N24   N     N_R   0.549740 0.104000 0.943240 -0.035763
N25   N     N_R   0.049740 0.396000 0.943240 -0.035763
N26   N     N_R   0.049740 0.604000 0.943240 -0.034234
N27   N     N_3   0.722436 0.261974 0.191825 -0.230867
N28   N     N_3   0.703281 0.734101 0.179858 -0.229045
N29   N     N_3   0.203289 0.765898 0.179864 -0.229045
N30   N     N_3   0.222459 0.238031 0.191838 -0.230868
N31   N     N_1   0.761194 0.138760 0.910365 -0.109238
N32   N     N_1   0.786203 0.866676 0.948609 -0.099382
N33   N     N_1   0.286194 0.633327 0.948593 -0.099384
N34   N     N_R   0.892450 0.396420 0.942190 -0.036128
N35   N     N_1   0.261169 0.361230 0.910324 -0.109243
N36   N     N_3   0.453368 0.089745 0.546004 -0.217822
N37   N     N_3   0.665293 0.923223 0.714484 -0.209964
N38   N     N_3   0.165318 0.576760 0.714501 -0.209959
N39   N     N_3   0.953324 0.410268 0.545979 -0.217816
N40   N     N_1   0.235056 0.858487 0.612988 -0.110763
N41   N     N_1   0.236087 0.141522 0.613349 -0.108872
N42   N     N_1   0.736086 0.358478 0.613349 -0.108873
N43   N     N_1   0.735057 0.641513 0.612988 -0.110763
N44   N     N_1   0.851571 0.002747 0.538300 -0.105907
N45   N     N_R   0.450490 0.896000 0.057360 -0.037244
N46   N     N_1   0.351572 0.497259 0.538300 -0.105906
N47   N     N_R   0.450490 0.104000 0.057360 -0.037024
N48   N     N_R   0.950490 0.396000 0.057360 -0.037024
N49   N     N_R   0.950490 0.604000 0.057360 -0.037244
N50   N     N_R   0.525490 0.028390 0.207550 -0.033894
Ni1   Ni    Ni4+2 0.433780 0.065390 0.868430 0.220174
Ni2   Ni    Ni4+2 0.433780 0.934610 0.868430 0.218280
Ni3   Ni    Ni4+2 0.933780 0.565390 0.868430 0.218280
Ni4   Ni    Ni4+2 0.933780 0.434610 0.868430 0.220174
Ni5   Ni    Ni4+2 0.565800 0.934190 0.131570 0.211075
Ni6   Ni    Ni4+2 0.565800 0.065810 0.131570 0.210156
Ni7   Ni    Ni4+2 0.065800 0.434190 0.131570 0.210156
Ni8   Ni    Ni4+2 0.065800 0.565810 0.131570 0.211075

loop_
_geom_bond_atom_site_label_1
_geom_bond_atom_site_label_2
_ccdc_geom_bond_type
N20   N26   A    
C48   H13   S    
C73   C93   S    
C25   N43   T    
C23   C118  S    
C26   N44   T    
C22   N41   T    
C16   C31   A    
C32   C81   S    
C11   N13   A    
C62   H30   S    
H16   N38   S    
C17   C85   S    
C19   C87   S    
C3    C54   A    
N23   Ni3   S    
C100  N3    A    
C70   H37   S    
C103  H75   S    
C61   C63   S    
C62   C64   S    
C116  N5    A    
C37   C56   S    
C49   C51   S    
C101  N21   A    
C75   H47   S    
H6    N29   S    
C107  H85   S    
C39   H82   S    
C85   H40   S    
C41   C43   S    
C42   C44   S    
C21   C116  S    
N18   Ni6   S    
C25   C119  S    
C23   N42   T    
C67   C85   S    
C40   C58   S    
C114  H94   S    
C95   C109  S    
C52   H48   S    
C14   N15   A    
C24   C34   A    
C82   C91   S    
C1    C120  A    
C89   H59   S    
C61   H24   S    
C103  H79   S    
C12   H101  S    
C16   N17   A    
C102  H91   S    
C5    C100  A    
C46   H38   S    
N25   Ni4   S    
C9    N10   A    
C97   N39   S    
C6    C116  A    
N45   Ni5   S    
C3    C57   A    
C9    H98   S    
C8    N9    A    
C8    C28   A    
N21   N25   A    
C30   C43   S    
C37   C45   S    
C21   N40   T    
C70   H68   S    
C90   N20   A    
C71   H39   S    
C5    C113  S    
C72   H44   S    
C84   C88   S    
C95   N37   S    
H10   N36   S    
C68   H106  S    
C51   H21   S    
N47   Ni6   S    
C94   C109  S    
C38   H71   S    
N17   Ni8   S    
C45   C50   S    
N4    Ni7   S    
C84   C93   S    
C104  H76   S    
C71   C88   S    
N8    Ni3   S    
C105  H77   S    
H114  N27   S    
C73   C77   S    
C46   C122  A    
C86   H41   S    
N34   N48   A    
C43   C47   S    
C44   C48   S    
C9    C28   A    
N16   N17   A    
C113  C115  S    
N9    Ni1   S    
C96   N38   S    
C114  H92   S    
N10   Ni2   S    
H14   N37   S    
C108  H86   S    
C19   N33   T    
C99   H89   S    
C15   H103  S    
C108  C115  S    
C105  C113  S    
C92   H64   S    
N13   Ni4   S    
C40   C49   S    
H5    N28   S    
C2    C32   A    
N5    N6    A    
C72   H53   S    
C79   H107  S    
C65   H31   S    
C53   H50   S    
C112  N22   A    
C99   N2    A    
C96   H73   S    
C75   C91   S    
C40   C42   S    
C87   H42   S    
H17   N39   S    
C70   C87   S    
C47   C50   S    
C106  C113  S    
N16   Ni7   S    
C38   C41   S    
C1    N1    A    
C39   C58   S    
C50   C56   S    
C36   C101  A    
C43   C45   S    
C94   N36   S    
C67   H35   S    
C60   H28   S    
C61   H29   S    
C20   N35   T    
C4    C111  S    
C95   H72   S    
C71   C77   S    
C106  H78   S    
C119  N8    A    
C15   C31   A    
N26   Ni3   S    
N50   Ni6   S    
C8    H97   S    
C59   C65   S    
N20   Ni8   S    
C27   C42   S    
C108  C110  S    
C37   C41   S    
C38   C56   S    
C88   H43   S    
C4    C99   A    
H12   N37   S    
C90   H108  S    
C10   N11   A    
C71   H69   S    
N9    N10   A    
C59   C76   S    
C81   C85   S    
C50   H20   S    
C83   C87   S    
C96   C105  S    
C91   H61   S    
N3    N4    A    
C73   H45   S    
C77   C120  S    
C65   N29   S    
C27   N46   T    
C74   H46   S    
C53   C120  A    
N3    Ni8   S    
C80   C122  S    
C118  N7    A    
C35   N12   A    
C18   C86   S    
H18   N39   S    
C72   C92   S    
C105  H81   S    
C15   N16   A    
N7    N8    A    
H15   N38   S    
C55   N49   A    
C12   N14   A    
C103  C111  S    
C52   N45   A    
C93   H58   S    
C49   H19   S    
N49   Ni8   S    
C115  H96   S    
C33   C82   S    
C6    C117  A    
N21   Ni7   S    
C81   C89   S    
C117  N6    A    
C91   H63   S    
N19   N22   A    
C60   C66   S    
N15   Ni6   S    
C107  C109  S    
N12   N45   A    
C53   N47   A    
C39   C42   S    
N11   N13   A    
C29   C110  S    
C35   C121  A    
C66   H32   S    
C33   C79   A    
H11   N36   S    
N14   N15   A    
C82   C86   S    
C96   C110  S    
C1    H1    S    
C107  C114  S    
C92   H57   S    
C7    C119  A    
C52   C121  A    
N18   N24   A    
N11   Ni3   S    
H4    N28   S    
C51   C58   S    
C97   C106  S    
C94   C103  S    
C60   H23   S    
N1    Ni1   S    
H7    N29   S    
C67   H66   S    
C74   C89   S    
C62   C80   S    
C46   N23   A    
C5    C102  A    
C12   C30   A    
C63   N27   S    
N34   Ni4   S    
C97   H74   S    
C64   N28   S    
C102  N4    A    
C112  H110  S    
C73   H54   S    
C10   C29   A    
C47   H2    S    
C74   H55   S    
C57   N34   A    
C37   H60   S    
C20   C88   S    
C111  C114  S    
C45   H104  S    
H8    N30   S    
C68   N18   A    
C74   C78   S    
C24   N26   A    
C35   H27   S    
C3    C78   S    
C39   C48   S    
C44   C49   S    
C22   C117  S    
C2    N24   A    
C16   H105  S    
C4    C98   A    
C72   C76   S    
C106  H83   S    
C108  H87   S    
C55   H52   S    
H9    N30   S    
C83   C92   S    
C98   H88   S    
C63   C81   S    
C76   C121  S    
C54   H51   S    
C14   H102  S    
C65   C83   S    
N22   Ni2   S    
N23   N49   A    
C75   H56   S    
C107  H84   S    
C2    H111  S    
C10   H99   S    
C48   C51   S    
N19   Ni5   S    
C75   C80   S    
C7    C58   S    
C66   N30   S    
C32   C68   A    
C59   H26   S    
N7    Ni4   S    
C55   C122  A    
C7    C118  A    
H3    N27   S    
C67   C78   S    
C14   C30   A    
C11   H100  S    
C54   N48   A    
C60   C77   S    
C31   C44   S    
C89   H62   S    
C13   C36   A    
C69   H67   S    
N12   Ni2   S    
C100  H90   S    
N14   Ni5   S    
C104  H80   S    
C34   C90   A    
C61   C78   S    
C69   H36   S    
C101  H109  S    
C64   C82   S    
C38   C47   S    
C93   H65   S    
C59   H22   S    
C62   H25   S    
C70   C76   S    
C34   C83   S    
C95   C104  S    
C33   C112  A    
C6    C56   S    
N2    N50   A    
C104  C111  S    
N2    Ni5   S    
C28   C109  S    
C64   H34   S    
C63   H33   S    
C17   N31   T    
C24   H113  S    
C18   N32   T    
C97   C110  S    
N48   Ni7   S    
C36   C84   S    
C40   H93   S    
N5    Ni2   S    
N1    N47   A    
C94   H70   S    
N6    Ni1   S    
N24   Ni1   S    
C66   C84   S    
C11   C29   A    
C79   N19   A    
C115  H95   S    
C69   C80   S    
C13   N25   A    
C69   C86   S    
C98   N50   A    
C26   C41   S    
C13   H112  S    
C57   H49   S    
