data_mof_unit_20625.cif
_audit_creation_date              2012-10-26T21:12:36-0400
_audit_creation_method            fapswitch 2.2
_symmetry_space_group_name_H-M    P1
_symmetry_Int_Tables_number       1
_space_group_crystal_system       triclinic
_cell_length_a                    23.514316
_cell_length_b                    10.835071
_cell_length_c                    9.593798
_cell_angle_alpha                 90.75651
_cell_angle_beta                  89.676073
_cell_angle_gamma                 93.440455
_cell_volume                      2439.65401424

loop_
_atom_site_label
_atom_site_type_symbol
_atom_type_description
_atom_site_fract_x
_atom_site_fract_y
_atom_site_fract_z
_atom_type_partial_charge
C1    C     C_R   0.503540 0.263046 0.499326 0.539802
C2    C     C_R   0.122619 0.604091 0.478037 0.407853
C3    C     C_R   0.242001 0.566741 0.602345 -0.047273
C4    C     C_R   0.391085 0.496127 0.500252 0.523789
C5    C     C_R   0.301121 0.564226 0.600247 -0.138521
C6    C     C_R   0.328486 0.491595 0.501121 -0.030186
C7    C     C_R   0.295536 0.418040 0.404267 -0.016359
C8    C     C_R   0.236038 0.423338 0.406512 -0.014005
C9    C     C_R   0.209274 0.496796 0.505229 0.207175
C10   C     C_R   0.761817 0.508785 0.375022 -0.062051
C11   C     C_R   0.702494 0.508630 0.374069 -0.154117
C12   C     C_R   0.964421 0.275880 0.569814 0.003133
C13   C     C_R   0.671611 0.502024 0.499937 -0.000786
C14   C     C_R   0.701123 0.496418 0.626591 -0.161897
C15   C     C_R   0.760358 0.496392 0.627165 -0.063218
C16   C     C_R   0.494918 0.737054 0.502168 0.523278
C17   C     C_R   0.790866 0.502151 0.501497 0.250200
C18   C     C_R   0.551405 0.126959 0.731638 -0.066109
C19   C     C_R   0.552124 0.074137 0.864521 0.028249
C20   C     C_R   0.524139 0.958288 0.882604 -0.081951
C21   C     C_R   0.500502 0.892328 0.769214 -0.093772
C22   C     C_R   0.503735 0.940942 0.632814 0.007826
C23   C     C_R   0.024210 0.280181 0.570443 -0.107354
C24   C     C_R   0.521337 0.066385 0.620097 0.007715
C25   C     C_R   0.505927 0.128862 0.498945 -0.034436
C26   C     C_R   0.481802 0.062983 0.385465 -0.123820
C27   C     C_R   0.472699 0.934952 0.388664 -0.018090
C28   C     C_R   0.609002 0.500856 0.499761 0.538171
C29   C     C_R   0.488112 0.871606 0.509581 -0.043782
C30   C     C_R   0.577500 0.662491 0.144742 -0.106371
C31   C     C_R   0.617216 0.738169 0.073430 -0.157133
C32   C     C_R   0.618213 0.737826 0.928334 -0.021552
C33   C     C_R   0.577661 0.662022 0.857094 -0.101499
C34   C     C_R   0.056948 0.388577 0.540114 0.014548
C35   C     C_R   0.537844 0.580526 0.925841 0.116283
C36   C     C_R   0.537873 0.580356 0.075110 0.145488
C37   C     C_R   0.465068 0.421617 0.075298 0.039691
C38   C     C_R   0.464775 0.419589 0.927291 0.103965
C39   C     C_R   0.883918 0.605013 0.473501 0.395938
C40   C     C_R   0.875889 0.391216 0.533483 0.390414
C41   C     C_R   0.936075 0.385348 0.537260 0.033731
C42   C     C_R   0.969642 0.495445 0.507051 -0.040692
C43   C     C_R   0.943334 0.605413 0.474988 0.031242
C44   C     C_3   0.934370 0.151716 0.603833 -0.240096
C45   C     C_R   0.029818 0.496510 0.508484 -0.032598
C46   C     C_3   0.915373 0.081108 0.471470 -0.389555
C47   C     C_3   0.578384 0.139423 0.991715 -0.270206
C48   C     C_3   0.612790 0.260923 0.963733 -0.442814
C49   C     C_2   0.441044 0.871573 0.271461 0.248470
C50   C     C_3   0.660751 0.816944 0.843128 -0.275884
C51   C     C_3   0.707492 0.888448 0.926339 -0.427630
C52   C     C_2   0.425441 0.324890 0.859093 0.262394
C53   C     C_2   0.321758 0.330094 0.306462 0.259512
C54   C     C_R   0.062976 0.605853 0.477826 0.033073
C55   C     C_R   0.035962 0.713942 0.446693 -0.120840
C56   C     C_R   0.976824 0.713753 0.445417 -0.127713
C57   C     C_R   0.116750 0.391235 0.540322 0.403436
Cu1   Cu    Cu3+1 0.500000 0.499990 0.640660 0.895073
Cu2   Cu    Cu3+1 0.500000 0.500010 0.359340 0.912555
H1    H     H_    0.680908 0.513413 0.275013 0.126171
H2    H     H_    0.580217 0.671678 0.254810 0.187396
H3    H     H_    0.646782 0.797220 0.133756 0.124691
H4    H     H_    0.578998 0.671081 0.747230 0.188588
H5    H     H_    0.060398 0.799091 0.423010 0.172181
H6    H     H_    0.957438 0.798962 0.420844 0.154282
H7    H     H_    0.221533 0.622988 0.679668 0.153195
H8    H     H_    0.325683 0.620499 0.675268 0.146037
H9    H     H_    0.209914 0.368188 0.333553 0.181234
H10   H     H_    0.785249 0.513126 0.277531 0.123898
H11   H     H_    0.891232 0.993765 0.499992 0.172170
H12   H     H_    0.678522 0.491523 0.725262 0.126879
H13   H     H_    0.887861 0.136360 0.406181 0.200692
H14   H     H_    0.953253 0.057786 0.408908 0.139525
H15   H     H_    0.963550 0.092642 0.660110 0.125843
H16   H     H_    0.898693 0.161643 0.678259 0.200010
H17   H     H_    0.648232 0.245412 0.889748 0.148224
H18   H     H_    0.585002 0.330462 0.921406 0.167364
H19   H     H_    0.631238 0.298411 0.063005 0.148057
H20   H     H_    0.543760 0.158294 0.066983 0.175611
H21   H     H_    0.606962 0.076024 0.042892 0.137879
H22   H     H_    0.420787 0.779870 0.284120 0.152874
H23   H     H_    0.782647 0.491537 0.725225 0.123780
H24   H     H_    0.688930 0.957305 0.997100 0.145723
H25   H     H_    0.732228 0.823922 0.987390 0.159614
H26   H     H_    0.737103 0.938925 0.853359 0.155613
H27   H     H_    0.681910 0.755828 0.767429 0.149836
H28   H     H_    0.637318 0.883846 0.782140 0.155357
H29   H     H_    0.416373 0.325030 0.749877 0.179181
H30   H     H_    0.364833 0.302938 0.322390 0.124672
H31   H     H_    0.467506 0.112475 0.295917 0.181643
H32   H     H_    0.573647 0.215555 0.714978 0.145708
H33   H     H_    0.521588 0.917342 0.984938 0.166159
H34   H     H_    0.476794 0.806971 0.793235 0.169297
H35   H     H_    0.436895 0.358551 0.133554 0.167928
H36   H     H_    0.045472 0.196914 0.593831 0.168049
N1    N     N_R   0.851772 0.499393 0.502434 -0.395040
N2    N     N_R   0.148238 0.497664 0.508603 -0.399553
N3    N     N_R   0.500540 0.501210 0.147910 -0.266415
N4    N     N_R   0.500560 0.501290 0.852040 -0.282825
O1    O     O_R   0.500000 0.319640 0.618810 -0.526888
O2    O     O_R   0.582120 0.500020 0.618760 -0.528009
O3    O     O_R   0.582120 0.500050 0.381190 -0.515524
O4    O     O_2   0.858233 0.709719 0.444305 -0.519606
O5    O     O_2   0.435433 0.922864 0.160276 -0.507132
O6    O     O_2   0.401689 0.241935 0.926784 -0.486536
O7    O     O_2   0.295062 0.284934 0.207548 -0.454171
O8    O     O_2   0.841125 0.290795 0.559368 -0.527176
O9    O     O_2   0.143296 0.288412 0.572698 -0.478224
O10   O     O_2   0.154752 0.707409 0.446353 -0.477228
O11   O     O_R   0.500000 0.319660 0.381240 -0.511448
O12   O     O_R   0.417880 0.499950 0.618810 -0.517736
O13   O     O_R   0.417880 0.499980 0.381240 -0.508555
O14   O     O_R   0.500000 0.680340 0.618760 -0.527401
O15   O     O_R   0.500000 0.680360 0.381190 -0.526587

loop_
_geom_bond_atom_site_label_1
_geom_bond_atom_site_label_2
_ccdc_geom_bond_type
C55   C56   A    
C2    O10   S    
C22   C29   A    
C27   C29   A    
C41   C42   A    
C48   H17   S    
C19   C20   A    
C47   H20   S    
C5    H8    S    
C16   O14   A    
C51   H26   S    
C49   O5    D    
C7    C8    A    
C20   H33   S    
C12   C23   A    
C26   C27   A    
C37   C38   A    
C18   C24   A    
C18   H32   S    
Cu1   O2    S    
C30   C31   A    
C19   C47   S    
C38   C52   S    
C10   C17   A    
C49   H22   S    
C56   H6    S    
Cu2   O11   S    
C18   C19   A    
C14   H12   S    
C48   H19   S    
C28   O2    A    
C31   C32   A    
C2    N2    A    
C8    C9    A    
C34   C57   A    
C13   C28   S    
C46   H13   S    
C4    O13   A    
C13   C14   A    
C1    C25   S    
C31   H3    S    
C47   H21   S    
C40   N1    A    
C35   N4    A    
C53   O7    D    
C1    O1    A    
C37   N3    A    
C44   C46   S    
C50   C51   S    
C15   H23   S    
Cu1   O12   S    
C52   H29   S    
Cu1   O1    S    
C24   C25   A    
C4    C6    S    
C2    C54   A    
C34   C45   A    
C39   C43   A    
C16   C29   S    
C42   C45   A    
C48   H18   S    
C44   H16   S    
C12   C41   A    
C3    C9    A    
C1    O11   A    
Cu1   O14   S    
C47   C48   S    
C33   H4    S    
C23   C34   A    
C57   N2    A    
C55   H5    S    
Cu2   O13   S    
C17   N1    S    
C44   H15   S    
C32   C50   S    
C50   H28   S    
C40   O8    S    
C40   C41   A    
C4    O12   A    
C52   O6    D    
C8    H9    S    
C53   H30   S    
C22   C24   A    
Cu1   Cu2   S    
C3    H7    S    
C42   C43   A    
C7    C53   S    
C11   H1    S    
C51   H24   S    
C15   C17   A    
C54   C55   A    
C9    N2    S    
Cu2   O3    S    
Cu1   N4    S    
C38   N4    A    
C3    C5    A    
C16   O15   A    
C45   C54   A    
C39   O4    S    
C6    C7    A    
C26   H31   S    
C30   C36   A    
C32   C33   A    
C25   C26   A    
C12   C44   S    
C11   C13   A    
C5    C6    A    
C21   H34   S    
Cu2   O15   S    
C33   C35   A    
C23   H36   S    
C37   H35   S    
C39   N1    A    
C46   H11   S    
C10   C11   A    
C50   H27   S    
C10   H10   S    
C28   O3    A    
C43   C56   A    
C57   O9    S    
C20   C21   A    
C30   H2    S    
Cu2   N3    S    
C14   C15   A    
C36   N3    A    
C35   C36   A    
C21   C22   A    
C51   H25   S    
C46   H14   S    
C27   C49   S    
