data_mof_unit_5046.cif
_audit_creation_date              2013-03-05T16:04:41-0500
_audit_creation_method            fapswitch 2.2
_symmetry_space_group_name_H-M    P1
_symmetry_Int_Tables_number       1
_space_group_crystal_system       triclinic
_cell_length_a                    6.938268
_cell_length_b                    23.108767
_cell_length_c                    23.59096
_cell_angle_alpha                 112.469394
_cell_angle_beta                  90.455363
_cell_angle_gamma                 90.65848
_cell_volume                      3494.76046751

loop_
_atom_site_label
_atom_site_type_symbol
_atom_site_description
_atom_site_fract_x
_atom_site_fract_y
_atom_site_fract_z
_atom_type_partial_charge
O1    O     O_R   0.505740 0.453370 0.547760 -0.615352
O2    O     O_R   0.169520 0.427650 0.423350 -0.573156
O3    O     O_R   0.005620 0.546630 0.452240 -0.570051
C1    C     C_R   0.336233 0.409770 0.398753 1.003764
O4    O     O_R   0.175610 0.445960 0.545510 -0.615696
O5    O     O_R   0.011740 0.565080 0.575280 -0.556472
C2    C     C_R   0.344529 0.434008 0.562554 0.920921
O6    O     O_R   0.499610 0.434920 0.424720 -0.578732
O7    O     O_3   0.341310 0.539060 0.509620 -0.217116
V1    V     V_3+5 0.063960 0.492750 0.498220 1.259323
O8    O     O_R   0.682400 0.572350 0.576650 -0.581773
C3    C     C_R   0.851788 0.590157 0.601126 1.006494
O9    O     O_R   0.676320 0.554040 0.454490 -0.555825
C4    C     C_R   0.844988 0.566577 0.437978 1.042193
V2    V     V_3+5 0.564740 0.507250 0.501780 1.280768
O10   O     O_3   0.837250 0.460940 0.490380 -0.291762
C5    C     C_R   0.890034 0.835363 0.075923 -0.178357
H1    H     H_    0.845273 0.815040 0.028141 0.132737
C6    C     C_R   0.885875 0.798101 0.110773 -0.084282
H2    H     H_    0.838490 0.749680 0.089166 0.135385
C7    C     C_R   0.945571 0.822665 0.172584 0.075601
C8    C     C_R   0.004171 0.885908 0.199268 -0.036202
H3    H     H_    0.045482 0.906111 0.247356 0.153856
C9    C     C_R   0.011890 0.923665 0.164750 0.513198
C10   C     C_R   0.955195 0.897847 0.101873 -0.284015
C11   C     C_R   0.102214 0.779485 0.246479 0.349664
C12   C     C_R   0.083970 0.744550 0.283883 -0.261146
H4    H     H_    0.205224 0.741960 0.312001 0.170456
C13   C     C_R   0.911383 0.712794 0.285293 0.077623
C14   C     C_R   0.756505 0.715253 0.247847 -0.102471
H5    H     H_    0.622715 0.690453 0.247450 0.133724
C15   C     C_R   0.773068 0.749033 0.209995 -0.094905
H6    H     H_    0.651136 0.749659 0.181459 0.188258
C16   C     C_R   0.942696 0.782751 0.209639 -0.063102
C17   C     C_R   0.735617 0.684701 0.364128 -0.221820
H7    H     H_    0.627771 0.718972 0.366138 0.164201
C18   C     C_R   0.716105 0.650024 0.401537 0.356312
C19   C     C_R   0.856268 0.605011 0.399543 -0.337267
C20   C     C_R   0.014262 0.597265 0.360338 0.001777
H8    H     H_    0.123442 0.563185 0.357336 0.191857
C21   C     C_R   0.033487 0.632655 0.324011 -0.110477
H9    H     H_    0.156412 0.625093 0.294138 0.134363
C22   C     C_R   0.893529 0.676298 0.325088 0.073934
C23   C     C_R   0.859974 0.644203 0.661447 -0.416825
C24   C     C_R   0.953655 0.858607 0.836615 -0.331019
C25   C     C_R   0.111791 0.801732 0.738354 0.286676
C26   C     C_R   0.093263 0.856255 0.792063 0.432013
C27   C     C_R   0.828429 0.807215 0.824823 -0.181654
C28   C     C_R   0.841555 0.753456 0.770382 0.051032
C29   C     C_R   0.978920 0.750706 0.725281 -0.229756
C30   C     C_R   0.977428 0.697002 0.668659 0.537461
C31   C     C_R   0.734104 0.646509 0.709416 0.504119
C32   C     C_R   0.721745 0.701524 0.761768 -0.101399
H10   H     H_    0.620155 0.702924 0.796947 0.149498
H11   H     H_    0.725293 0.808078 0.859440 0.142429
C33   C     C_R   0.336677 0.356257 0.337896 -0.374604
C34   C     C_R   0.468119 0.149258 0.157868 -0.322222
C35   C     C_R   0.620075 0.211992 0.256779 0.594915
C36   C     C_R   0.614807 0.158769 0.201730 -0.264280
C37   C     C_R   0.323476 0.194951 0.168800 0.337367
C38   C     C_R   0.327629 0.250240 0.224017 -0.240113
C39   C     C_R   0.475805 0.257534 0.268490 0.067216
C40   C     C_R   0.478923 0.310510 0.324365 -0.103357
C41   C     C_R   0.192848 0.350285 0.293343 0.274292
C42   C     C_R   0.190211 0.298913 0.236468 0.283579
H12   H     H_    0.590057 0.315731 0.358581 0.196124
H13   H     H_    0.725359 0.123818 0.193372 0.163972
C43   C     C_R   0.287577 0.104958 0.865942 -0.085588
H14   H     H_    0.161699 0.077623 0.867828 0.125630
C44   C     C_R   0.279999 0.140040 0.829071 -0.084888
H15   H     H_    0.148097 0.139426 0.803971 0.171417
C45   C     C_R   0.438902 0.176488 0.825208 -0.057053
C46   C     C_R   0.610314 0.176386 0.858430 0.361962
C47   C     C_R   0.616175 0.140446 0.895112 -0.232726
H16   H     H_    0.747622 0.140113 0.920059 0.186987
C48   C     C_R   0.455807 0.104546 0.899315 -0.173876
C49   C     C_R   0.436318 0.281075 0.815721 -0.119914
H17   H     H_    0.462189 0.302659 0.864770 0.181909
C50   C     C_R   0.423058 0.318797 0.780869 0.337289
C51   C     C_R   0.391426 0.289503 0.716451 -0.096617
C52   C     C_R   0.371071 0.224028 0.689301 -0.183667
H18   H     H_    0.345668 0.201094 0.640317 0.147788
C53   C     C_R   0.383915 0.187483 0.724655 -0.093532
H19   H     H_    0.369194 0.137044 0.702438 0.135095
C54   C     C_R   0.419450 0.215585 0.787963 0.121026
C55   C     C_R   0.543310 0.337194 0.648419 -0.062542
H20   H     H_    0.681582 0.319839 0.655965 0.111350
C56   C     C_R   0.532301 0.372199 0.611429 -0.158139
H21   H     H_    0.663270 0.380916 0.591107 0.126311
C57   C     C_R   0.354673 0.395547 0.600818 -0.119385
C58   C     C_R   0.188272 0.382658 0.628110 -0.141607
H22   H     H_    0.049311 0.399942 0.621143 0.126720
C59   C     C_R   0.199956 0.348136 0.665664 -0.093777
H23   H     H_    0.070561 0.339296 0.686664 0.126836
C60   C     C_R   0.377731 0.325515 0.676328 0.176773
O11   O     O_R   0.309730 0.065160 0.075230 -0.574202
O12   O     O_R   0.633800 0.053970 0.954410 -0.602848
O13   O     O_R   0.797580 0.934860 0.924760 -0.587333
C61   C     C_R   0.464981 0.065947 0.937408 1.007231
O14   O     O_R   0.639820 0.072410 0.076610 -0.566465
O15   O     O_R   0.803650 0.953440 0.047830 -0.591468
C62   C     C_R   0.472230 0.091920 0.099999 1.038816
O16   O     O_R   0.303670 0.046590 0.952160 -0.591184
O17   O     O_3   0.468000 0.960960 0.990410 -0.280596
V3    V     V_3+5 0.745380 0.007240 0.001780 1.233661
O18   O     O_R   0.132940 0.946010 0.045600 -0.590341
C63   C     C_R   0.964324 0.934646 0.062702 0.925452
O19   O     O_R   0.126920 0.927560 0.923400 -0.588785
C64   C     C_R   0.957967 0.910440 0.898430 0.941779
V4    V     V_3+5 0.244590 0.992720 0.998240 1.227804
O20   O     O_3   0.972110 0.039040 0.009600 -0.233672
N1    N     N_R   0.558387 0.663533 0.443119 0.234606
O21   O     O_R   0.411881 0.624958 0.430962 -0.394477
O22   O     O_R   0.540639 0.719918 0.484171 -0.338626
O23   O     O_3   0.075472 0.696500 0.617855 -0.679184
H24   H     H_    0.059055 0.738061 0.615488 0.346755
O24   O     O_3   0.618428 0.596526 0.706961 -0.713068
H25   H     H_    0.669606 0.557361 0.676315 0.306665
N2    N     N_R   0.276655 0.797138 0.700457 0.260593
O25   O     O_R   0.318618 0.841831 0.681661 -0.309331
O26   O     O_R   0.395444 0.751067 0.689578 -0.354672
O27   O     O_3   0.219815 0.905588 0.800492 -0.700170
H26   H     H_    0.158920 0.945151 0.826931 0.302160
N3    N     N_R   0.055506 0.398958 0.303664 0.247348
O28   O     O_R   0.888876 0.395136 0.326987 -0.361239
O29   O     O_R   0.084764 0.441350 0.280855 -0.379483
O30   O     O_3   0.766198 0.220548 0.299580 -0.761173
H27   H     H_    0.857221 0.185323 0.283917 0.324936
N4    N     N_R   0.054059 0.299556 0.190719 0.276282
O31   O     O_R   0.112127 0.315005 0.146032 -0.268801
O32   O     O_R   0.870181 0.296942 0.200029 -0.311102
N5    N     N_R   0.173841 0.184519 0.123617 0.255462
O33   O     O_R   0.214903 0.184606 0.069918 -0.341404
O34   O     O_R   0.004386 0.165235 0.132646 -0.377711
N6    N     N_R   0.780277 0.210970 0.854497 0.222877
O35   O     O_R   0.903039 0.231128 0.900119 -0.354182
O36   O     O_R   0.824368 0.216575 0.803301 -0.423249
N7    N     N_R   0.440932 0.385920 0.811805 0.246103
O37   O     O_R   0.502070 0.420789 0.783304 -0.365663
O38   O     O_R   0.408626 0.412348 0.870353 -0.331484
O39   O     O_3   0.073654 0.985069 0.194642 -0.747580
H28   H     H_    0.063869 0.007844 0.166790 0.304471
N8    N     N_R   0.284324 0.809469 0.245284 0.219994
O40   O     O_R   0.345502 0.813242 0.194792 -0.433164
O41   O     O_R   0.399029 0.827303 0.292998 -0.396010

loop_
_geom_bond_atom_site_label_1
_geom_bond_atom_site_label_2
_geom_bond_distance
_ccdc_geom_bond_type
O15   C63   1.294551 A    
C27   H11   1.084680 S    
C61   O16   1.299055 A    
C35   C39   1.411476 A    
C59   H23   1.083217 S    
O11   C62   1.300893 A    
C12   C13   1.404498 A    
C21   H9    1.083250 S    
C17   H7    1.083895 S    
C1    O6    1.303717 A    
C37   N5    1.432614 S    
N1    O22   1.300720 A    
C52   H18   1.083424 S    
N6    O35   1.301510 A    
C20   C21   1.398578 A    
C49   H17   1.083248 S    
C48   C61   1.490073 S    
C34   C62   1.496327 S    
C11   C12   1.410788 A    
C18   C19   1.420050 A    
O13   V3    1.982818 S    
C47   C48   1.406963 A    
O16   V4    1.982226 S    
C11   N8    1.439710 S    
C7    C8    1.405897 A    
C17   C18   1.406867 A    
O5    C3    1.301799 A    
C14   H5    1.083395 S    
C24   C64   1.491816 S    
C34   C36   1.399691 A    
C4    C19   1.494039 S    
O18   C63   1.296859 A    
V2    O10   2.151070 S    
N8    O41   1.301497 A    
C36   H13   1.083732 S    
O19   C64   1.295332 A    
C5    H1    1.083544 S    
C46   C47   1.410598 A    
C24   C26   1.421117 A    
V4    O20   2.151047 S    
N1    O21   1.299727 A    
C18   N1    1.431109 S    
O12   C61   1.301657 A    
O8    V2    1.991749 S    
C11   C16   1.422231 A    
C46   N6    1.440382 S    
N5    O33   1.301401 A    
C33   C41   1.410263 A    
C44   H15   1.083061 S    
O1    V2    1.980437 S    
C14   C15   1.397258 A    
C13   C14   1.401070 A    
C17   C22   1.403762 A    
O7    V1    2.155243 S    
C45   C46   1.419647 A    
O12   V3    1.985490 S    
C31   O24   1.381466 S    
C23   C31   1.420142 A    
N2    O26   1.301256 A    
V3    O20   1.707024 S    
C40   H12   1.083595 S    
C49   C54   1.403590 A    
C35   O30   1.383112 S    
C59   C60   1.402980 A    
O13   C64   1.303880 A    
O9    C4    1.300347 A    
C1    C33   1.494484 S    
C21   C22   1.401459 A    
O17   V3    2.155174 S    
C52   C53   1.398465 A    
C45   C54   1.488028 S    
C49   C50   1.411662 A    
O15   V3    1.981485 S    
C44   C45   1.404349 A    
C47   H16   1.083191 S    
C9    C10   1.421205 A    
C55   C60   1.402452 A    
C58   H22   1.082895 S    
O4    C2    1.302451 A    
C55   H20   1.083338 S    
C43   H14   1.083144 S    
C34   C37   1.417368 A    
C7    C16   1.493831 S    
C35   C36   1.406370 A    
C32   H10   1.084400 S    
C2    C57   1.491135 S    
O11   V4    1.987683 S    
C30   O23   1.379083 S    
C37   C38   1.434051 A    
C15   C16   1.405850 A    
O2    C1    1.297605 A    
C39   C40   1.414960 A    
C58   C59   1.403007 A    
C53   H19   1.083130 S    
C9    O39   1.382311 S    
N2    O25   1.301257 A    
O14   C62   1.300725 A    
C29   C30   1.434177 A    
O14   V3    1.983567 S    
C33   C40   1.401639 A    
C51   C60   1.483246 S    
O3    C4    1.300845 A    
N7    O38   1.301632 A    
C23   C30   1.413508 A    
N5    O34   1.300295 A    
C27   C28   1.409244 A    
C53   C54   1.400750 A    
C56   C57   1.409344 A    
O6    V2    1.987401 S    
O9    V2    1.982326 S    
C8    C9    1.403557 A    
O30   H27   0.991773 S    
O2    V1    1.983447 S    
C20   H8    1.082140 S    
C31   C32   1.397492 A    
C10   C63   1.476965 S    
N3    O29   1.300194 A    
N4    O31   1.300880 A    
O18   V4    1.982393 S    
C24   C27   1.400931 A    
N6    O36   1.301381 A    
C25   C26   1.412610 A    
C6    C7    1.404412 A    
O1    C2    1.298904 A    
C51   C52   1.404408 A    
C26   O27   1.382444 S    
O5    V1    1.982838 S    
C42   N4    1.433095 S    
O8    C3    1.296318 A    
C43   C48   1.404891 A    
C25   C29   1.424063 A    
C5    C10   1.403213 A    
C15   H6    1.080637 S    
C6    H2    1.082986 S    
O7    V2    1.704278 S    
O4    V1    1.985291 S    
C3    C23   1.492198 S    
O3    V1    1.981837 S    
C41   N3    1.432282 S    
O24   H25   0.989555 S    
C41   C42   1.411197 A    
O17   V4    1.703701 S    
C57   C58   1.409497 A    
C19   C20   1.408271 A    
C28   C32   1.400164 A    
C5    C6    1.399699 A    
O19   V4    1.991926 S    
C25   N2    1.437173 S    
C55   C56   1.400574 A    
C38   C39   1.424708 A    
N7    O37   1.300806 A    
C50   C51   1.421556 A    
C38   C42   1.427242 A    
C50   N7    1.443219 S    
C56   H21   1.082901 S    
C43   C44   1.398518 A    
C28   C29   1.417832 A    
C12   H4    1.083505 S    
C8    H3    1.083511 S    
V1    O10   1.706954 S    
O23   H24   0.990896 S    
O27   H26   0.990237 S    
O39   H28   0.988821 S    
C13   C22   1.487515 S    
N8    O40   1.301222 A    
N3    O28   1.300802 A    
N4    O32   1.300906 A    
