data_mof_unit_13883.cif
_audit_creation_date              2013-03-05T15:42:41-0500
_audit_creation_method            fapswitch 2.2
_symmetry_space_group_name_H-M    P1
_symmetry_Int_Tables_number       1
_space_group_crystal_system       triclinic
_cell_length_a                    7.724048
_cell_length_b                    8.637509
_cell_length_c                    27.488161
_cell_angle_alpha                 91.461372
_cell_angle_beta                  85.33608
_cell_angle_gamma                 94.011355
_cell_volume                      1823.00236559

loop_
_atom_site_label
_atom_site_type_symbol
_atom_site_description
_atom_site_fract_x
_atom_site_fract_y
_atom_site_fract_z
_atom_type_partial_charge
O1    O     O_R   0.389250 0.738570 0.503220 -0.548895
O2    O     O_R   0.610750 0.261430 0.496780 -0.559836
O3    O     O_R   0.678390 0.711630 0.494810 -0.645060
O4    O     O_R   0.321610 0.288370 0.505190 -0.637081
C1    C     C_R   0.545868 0.794659 0.498750 0.916188
C2    C     C_R   0.454158 0.205282 0.500845 0.924095
O5    O     O_R   0.355440 0.513440 0.575450 -0.591058
O6    O     O_R   0.644560 0.486560 0.424550 -0.576619
O7    O     O_R   0.644590 0.486500 0.567040 -0.603118
O8    O     O_R   0.355410 0.513500 0.432960 -0.601375
C3    C     C_R   0.501835 0.503750 0.594087 0.999184
C4    C     C_R   0.497969 0.498337 0.405810 0.997698
Zn1   Zn    Zn3+2 0.306940 0.517990 0.505620 1.091779
Zn2   Zn    Zn3+2 0.693060 0.482010 0.494380 1.093672
C5    C     C_R   0.517423 0.693792 0.824604 0.644037
C6    C     C_R   0.364184 0.398441 0.175016 0.636139
O9    O     O_2   0.633917 0.793189 0.800192 -0.436437
O10   O     O_2   0.342589 0.257894 0.195797 -0.437180
N1    N     N_R   0.444449 0.568556 0.800365 -0.336120
N2    N     N_R   0.428891 0.523227 0.201328 -0.336576
C7    C     C_R   0.325063 0.465086 0.823333 0.649165
C8    C     C_R   0.468247 0.663745 0.179940 0.655742
C9    C     C_R   0.576083 0.439054 0.726356 0.274043
C10   C     C_R   0.616880 0.556077 0.270734 0.285905
C11   C     C_R   0.589816 0.423250 0.674939 0.152514
C12   C     C_R   0.629262 0.560172 0.321604 0.171454
C13   C     C_R   0.412391 0.646302 0.670130 0.275834
C14   C     C_R   0.340264 0.423039 0.332561 0.282202
C15   C     C_R   0.398303 0.658876 0.720582 -0.148036
C16   C     C_R   0.319922 0.441828 0.283335 -0.107748
C17   C     C_R   0.477203 0.556582 0.748599 0.069833
C18   C     C_R   0.456469 0.506113 0.252067 0.053888
C19   C     C_R   0.370946 0.598551 0.899948 -0.089884
C20   C     C_R   0.384797 0.555192 0.102691 -0.101592
C21   C     C_R   0.474098 0.716393 0.874828 -0.227053
C22   C     C_R   0.325738 0.415650 0.126102 -0.160504
C23   C     C_R   0.523204 0.853970 0.900532 0.288157
C24   C     C_R   0.242603 0.294571 0.099311 0.214066
C25   C     C_R   0.286537 0.477866 0.873721 -0.042770
C26   C     C_R   0.465656 0.676281 0.129592 -0.029404
C27   C     C_R   0.504480 0.525312 0.646967 -0.313188
C28   C     C_R   0.490403 0.492782 0.352629 -0.318646
H1    H     H_    0.324702 0.749301 0.738584 0.217283
H2    H     H_    0.198856 0.400386 0.268652 0.239771
C29   C     C_R   0.451838 0.706226 0.028247 0.050352
C30   C     C_R   0.253027 0.478612 0.976003 0.087749
C31   C     C_R   0.274925 0.455363 0.026077 0.016208
C32   C     C_R   0.435572 0.723154 0.977537 -0.098825
C33   C     C_R   0.367788 0.573344 0.052368 -0.043126
C34   C     C_R   0.353520 0.600077 0.951377 -0.053150
C35   C     C_R   0.564902 0.807817 0.054724 0.422616
C36   C     C_R   0.131384 0.388366 0.949161 0.517610
C37   C     C_R   0.555797 0.801004 0.105568 -0.132076
C38   C     C_R   0.158331 0.379723 0.898125 -0.205421
O11   O     O_2   0.512111 0.790523 0.207189 -0.454543
O12   O     O_2   0.244851 0.350380 0.797433 -0.462705
C39   C     C_R   0.490886 0.861033 0.951456 0.450818
C40   C     C_R   0.223235 0.311616 0.049138 0.403461
H3    H     H_    0.632901 0.885792 0.125891 0.210040
H4    H     H_    0.075428 0.300278 0.877674 0.227042
C41   C     C_2   0.567961 0.957929 0.504316 0.269658
C42   C     C_2   0.432380 0.041973 0.495096 0.237755
N3    N     N_2   0.950320 0.457960 0.486880 -0.135536
N4    N     N_2   0.049680 0.542040 0.513120 -0.141932
H5    H     H_    0.014290 0.382120 0.463479 0.236340
H6    H     H_    0.985689 0.617828 0.536547 0.213659
N5    N     N_R   0.336138 0.759939 0.642871 0.237205
O13   O     O_R   0.429684 0.833717 0.608227 -0.374433
O14   O     O_R   0.185259 0.809115 0.658049 -0.307901
N6    N     N_R   0.212854 0.325823 0.360994 0.235772
O15   O     O_R   0.052342 0.310017 0.349520 -0.306048
O16   O     O_R   0.263767 0.228966 0.391484 -0.395537
N7    N     N_R   0.583666 0.993377 0.875259 0.282897
O17   O     O_R   0.718053 0.077080 0.889177 -0.309071
O18   O     O_R   0.488736 0.049195 0.843765 -0.276139
N8    N     N_R   0.176279 0.153678 0.122708 0.233180
O19   O     O_R   0.031316 0.150758 0.150405 -0.285334
O20   O     O_R   0.257706 0.027384 0.115201 -0.371274
N9    N     N_R   0.779382 0.636792 0.341659 0.263553
O21   O     O_R   0.934960 0.597057 0.327332 -0.295397
O22   O     O_R   0.761351 0.754372 0.371756 -0.330189
N10   N     N_R   0.688111 0.303449 0.651420 0.251759
O23   O     O_R   0.614590 0.201520 0.622598 -0.298706
O24   O     O_R   0.850186 0.293285 0.659897 -0.280664
N11   N     N_R   0.764833 0.604234 0.238111 0.238420
O25   O     O_R   0.849444 0.737946 0.244433 -0.238988
O26   O     O_R   0.808628 0.518462 0.200092 -0.361480
N12   N     N_R   0.655061 0.332902 0.755930 0.260589
O27   O     O_R   0.645637 0.184835 0.745605 -0.214124
O28   O     O_R   0.729815 0.382704 0.794655 -0.322630
O29   O     O_3   0.694119 0.902438 0.030473 -0.704563
H7    H     H_    0.762506 0.962712 0.054422 0.359425
O30   O     O_3   0.979802 0.323025 0.972741 -0.689495
H8    H     H_    0.907684 0.268961 0.948446 0.385030
O31   O     O_3   0.492741 0.006904 0.973263 -0.650280
H9    H     H_    0.415540 0.001049 0.003813 0.373003
O32   O     O_3   0.174043 0.183777 0.020845 -0.710225
H10   H     H_    0.109775 0.102579 0.041180 0.370135
O33   O     O_3   0.716513 0.024798 0.524033 -0.699767
H11   H     H_    0.792857 0.943263 0.532205 0.366168
O34   O     O_3   0.283297 0.974692 0.475766 -0.719972
H12   H     H_    0.200768 0.054714 0.471037 0.384615

loop_
_geom_bond_atom_site_label_1
_geom_bond_atom_site_label_2
_geom_bond_distance
_ccdc_geom_bond_type
N3    H5    1.029152 S    
O30   H8    0.991240 S    
C13   C15   1.384347 A    
N7    O17   1.300780 A    
N12   O28   1.301310 A    
O31   H9    0.989875 S    
N1    C17   1.427253 S    
O32   H10   0.988385 S    
C37   H3    1.084120 S    
C32   C39   1.427366 A    
C31   C33   1.421171 A    
C38   H4    1.083670 S    
N11   O25   1.301475 A    
C5    N1    1.367772 A    
O34   H12   0.990299 S    
O1    C1    1.268898 A    
N1    C7    1.366191 A    
C10   C12   1.408683 A    
C25   C38   1.397429 A    
C29   C35   1.423345 A    
C30   C36   1.419772 A    
C14   C28   1.414708 A    
O4    Zn1   1.994158 S    
C4    C28   1.467185 S    
C35   O29   1.383459 S    
C24   C40   1.411793 A    
N6    O15   1.301128 A    
C10   N11   1.438418 S    
C6    N2    1.370525 A    
C42   O34   1.391479 S    
C32   C34   1.410583 A    
C15   H1    1.083863 S    
N7    O18   1.301345 A    
C16   H2    1.082891 S    
C41   O33   1.391531 S    
C40   O32   1.383487 S    
C5    C21   1.405810 A    
C36   C38   1.402248 A    
N11   O26   1.301362 A    
N5    O13   1.299879 A    
N8    O19   1.300921 A    
O4    C2    1.286873 A    
C11   C27   1.414614 A    
O29   H7    0.991990 S    
N9    O22   1.301328 A    
C24   N8    1.433938 S    
C19   C34   1.408960 A    
O2    C2    1.268599 A    
N5    O14   1.301454 A    
N4    H6    1.029328 S    
O5    C3    1.287529 A    
O7    Zn2   2.001825 S    
C10   C18   1.414922 A    
C13   C27   1.414175 A    
O33   H11   0.990905 S    
C7    C25   1.396043 A    
C29   C33   1.429346 A    
O6    C4    1.292823 A    
C8    C26   1.392830 A    
C1    C41   1.414537 S    
C36   O30   1.382861 S    
C19   C25   1.405165 A    
O7    C3    1.294146 A    
O3    Zn2   1.994158 S    
O8    C4    1.291578 A    
N2    C8    1.366346 A    
C26   C37   1.392122 A    
N10   O24   1.301171 A    
C9    N12   1.438960 S    
C11   N10   1.435671 S    
C20   C26   1.405364 A    
N9    O21   1.300311 A    
O1    Zn1   1.966900 S    
C12   C28   1.416236 A    
N2    C18   1.440730 S    
C29   C32   1.421837 A    
C5    O9    1.349141 S    
C23   N7    1.435917 S    
C30   C31   1.421368 A    
C20   C33   1.413802 A    
O6    Zn2   1.987260 S    
C21   C23   1.411695 A    
C14   N6    1.441268 S    
N8    O20   1.300595 A    
O3    C1    1.286288 A    
O8    Zn1   2.001825 S    
C7    O12   1.349896 S    
C8    O11   1.349988 S    
C30   C34   1.413601 A    
C12   N9    1.436802 S    
C2    C42   1.415192 S    
C22   C24   1.411394 A    
C15   C17   1.389806 A    
C6    C22   1.414010 A    
C31   C40   1.425654 A    
C16   C18   1.397992 A    
Zn1   N4    2.005773 S    
Zn2   N3    2.005772 S    
C14   C16   1.389734 A    
C19   C21   1.407337 A    
C3    C27   1.462330 S    
C20   C22   1.410616 A    
C9    C11   1.412531 A    
C41   C42   1.358969 D    
O2    Zn2   1.966900 S    
C13   N5    1.435946 S    
N3    N4    1.273579 D    
O5    Zn1   1.987259 S    
N12   O27   1.301278 A    
C6    O10   1.348861 S    
N10   O23   1.301128 A    
C39   O31   1.381073 S    
N6    O16   1.300914 A    
C35   C37   1.396207 A    
C23   C39   1.402324 A    
C9    C17   1.410171 A    
