data_mof_unit_58324.cif
_audit_creation_date              2012-12-10T18:23:12-0500
_audit_creation_method            fapswitch 2.2
_symmetry_space_group_name_H-M    P1
_symmetry_Int_Tables_number       1
_space_group_crystal_system       triclinic
_cell_length_a                    15.000487
_cell_length_b                    14.0131
_cell_length_c                    10.534545
_cell_angle_alpha                 90.894492
_cell_angle_beta                  89.97107
_cell_angle_gamma                 90.044956
_cell_volume                      2214.12557838

loop_
_atom_site_label
_atom_site_type_symbol
_atom_type_description
_atom_site_fract_x
_atom_site_fract_y
_atom_site_fract_z
_atom_type_partial_charge
C1    C     C_R   0.326509 0.499974 0.500003 0.896723
C2    C     C_R   0.953852 0.669636 0.450409 -0.218983
C3    C     C_R   0.539351 0.797086 0.402063 -0.072514
C4    C     C_R   0.460648 0.202914 0.597937 -0.072514
C5    C     C_R   0.460676 0.799279 0.597964 -0.074003
C6    C     C_R   0.539324 0.200720 0.402036 -0.074003
C7    C     C_R   0.460018 0.899950 0.600571 0.018283
C8    C     C_R   0.539982 0.100049 0.399429 0.018283
C9    C     C_R   0.540006 0.897690 0.399449 0.019251
C10   C     C_R   0.459994 0.102310 0.600551 0.019251
C11   C     C_R   0.500001 0.949398 0.500001 0.084691
C12   C     C_R   0.673491 0.500026 0.499997 0.896723
C13   C     C_R   0.499999 0.050602 0.499999 0.084691
C14   C     C_R   0.420485 0.952109 0.700793 -0.209092
C15   C     C_R   0.579515 0.047891 0.299207 -0.209092
C16   C     C_R   0.579561 0.947591 0.299246 -0.213876
C17   C     C_R   0.420439 0.052409 0.700754 -0.213876
C18   C     C_R   0.498820 0.499077 0.257511 0.909439
C19   C     C_R   0.501180 0.500923 0.742489 0.909439
C20   C     C_3   0.427607 0.544680 0.042066 0.224592
C21   C     C_3   0.572393 0.455320 0.957934 0.224593
C22   C     C_3   0.501903 0.590834 0.965230 0.237976
C23   C     C_R   0.953625 0.500016 0.500044 0.061220
C24   C     C_3   0.498097 0.409166 0.034771 0.237976
C25   C     C_3   0.425222 0.455921 0.953452 -0.300310
C26   C     C_3   0.574778 0.544079 0.046548 -0.300309
C27   C     C_3   0.501129 0.502870 0.876635 -0.186196
C28   C     C_3   0.498871 0.497130 0.123365 -0.186196
C29   C     C_R   0.815121 0.584711 0.475517 -0.263011
C30   C     C_R   0.184879 0.415289 0.524483 -0.263011
C31   C     C_R   0.769317 0.500055 0.500101 -0.073329
C32   C     C_R   0.230682 0.499945 0.499899 -0.073329
C33   C     C_R   0.814966 0.415395 0.524744 -0.255795
C34   C     C_R   0.046375 0.499985 0.499957 0.061219
C35   C     C_R   0.185034 0.584605 0.475258 -0.255796
C36   C     C_R   0.907171 0.414742 0.524961 0.117795
C37   C     C_R   0.092829 0.585258 0.475040 0.117795
C38   C     C_3   0.287876 0.627942 0.000830 -0.770825
C39   C     C_3   0.712125 0.372058 0.999170 -0.770826
C40   C     C_3   0.510985 0.760432 0.022266 -0.825345
C41   C     C_3   0.489015 0.239568 0.977734 -0.825346
C42   C     C_R   0.907334 0.585319 0.475211 0.118935
C43   C     C_R   0.092666 0.414681 0.524789 0.118935
C44   C     C_R   0.953522 0.330397 0.549686 -0.219123
C45   C     C_R   0.046478 0.669603 0.450315 -0.219122
C46   C     C_R   0.046148 0.330364 0.549591 -0.218982
H1    H     H_    0.365222 0.420833 0.912300 0.155290
H2    H     H_    0.918644 0.735354 0.431194 0.146189
H3    H     H_    0.570287 0.756135 0.326067 0.135846
H4    H     H_    0.429713 0.243865 0.673933 0.135846
H5    H     H_    0.429792 0.760011 0.673987 0.148329
H6    H     H_    0.570208 0.239989 0.326013 0.148329
H7    H     H_    0.389604 0.915351 0.779160 0.146405
H8    H     H_    0.610396 0.084649 0.220840 0.146406
H9    H     H_    0.610549 0.909095 0.220954 0.142030
H10   H     H_    0.389451 0.090905 0.779045 0.142030
H11   H     H_    0.361704 0.637423 0.168175 0.232352
H12   H     H_    0.634778 0.579167 0.087700 0.155290
H13   H     H_    0.227138 0.655171 0.049496 0.236181
H14   H     H_    0.267570 0.570810 0.932509 0.245027
H15   H     H_    0.319315 0.687427 0.948611 0.251992
H16   H     H_    0.638296 0.362577 0.831825 0.232352
H17   H     H_    0.772862 0.344829 0.950504 0.236181
H18   H     H_    0.680685 0.312574 0.051389 0.251992
H19   H     H_    0.732430 0.429191 0.067490 0.245027
H20   H     H_    0.552236 0.698885 0.853234 0.245361
H21   H     H_    0.509045 0.832450 0.979850 0.239487
H22   H     H_    0.574608 0.752813 0.075060 0.230477
H23   H     H_    0.779148 0.649955 0.455838 0.160917
H24   H     H_    0.454194 0.754808 0.088951 0.255962
H25   H     H_    0.447764 0.301115 0.146765 0.245361
H26   H     H_    0.490954 0.167550 0.020150 0.239487
H27   H     H_    0.545807 0.245191 0.911050 0.255962
H28   H     H_    0.425394 0.247188 0.924938 0.230477
H29   H     H_    0.220852 0.350044 0.544160 0.160917
H30   H     H_    0.778878 0.350162 0.544459 0.162293
H31   H     H_    0.221122 0.649839 0.455544 0.162294
H32   H     H_    0.918184 0.264703 0.568965 0.146531
H33   H     H_    0.081816 0.735297 0.431037 0.146531
H34   H     H_    0.081356 0.264646 0.568805 0.146189
N1    N     N_R   0.500000 0.750030 0.500000 -0.104949
N2    N     N_R   0.500000 0.249970 0.500000 -0.104949
N3    N     N_2   0.348936 0.590775 0.093856 -0.304283
N4    N     N_2   0.651064 0.409225 0.906144 -0.304283
N5    N     N_2   0.504838 0.688657 0.922558 -0.297008
N6    N     N_2   0.495161 0.311343 0.077442 -0.297008
O1    O     O_R   0.367850 0.580280 0.500030 -0.626587
O2    O     O_R   0.632150 0.419720 0.499970 -0.626586
O3    O     O_R   0.632150 0.580280 0.499970 -0.625224
O4    O     O_R   0.367850 0.419720 0.500030 -0.625224
O5    O     O_R   0.499970 0.580260 0.313950 -0.634653
O6    O     O_R   0.500030 0.419740 0.686050 -0.634653
O7    O     O_R   0.500030 0.580260 0.686050 -0.630180
O8    O     O_R   0.499970 0.419740 0.313950 -0.630179
Zn1   Zn    Zn3+2 0.500000 0.607200 0.500000 0.935711
Zn2   Zn    Zn3+2 0.500000 0.392800 0.500000 0.935711

loop_
_geom_bond_atom_site_label_1
_geom_bond_atom_site_label_2
_ccdc_geom_bond_type
C1    O1    A    
C46   H34   S    
C21   C26   S    
O2    Zn2   S    
C1    O4    A    
C6    N2    A    
C38   N3    S    
C34   C37   A    
H20   N5    S    
C3    H3    S    
C7    C11   A    
C41   N6    S    
C8    C13   A    
C23   C42   A    
C40   H24   S    
C18   O5    A    
C35   C37   A    
C9    C16   A    
C39   N4    S    
C29   C42   A    
C20   C25   S    
C10   C17   A    
C15   C16   A    
O6    Zn2   S    
C33   C36   A    
C22   N5    S    
C19   O6    A    
C41   H28   S    
C26   H12   S    
C7    C14   A    
C40   H21   S    
O1    Zn1   S    
C3    N1    A    
C31   C33   A    
C19   C27   S    
C25   H1    S    
C19   O7    A    
C39   H18   S    
C38   H15   S    
C21   C27   S    
O7    Zn1   S    
C39   H19   S    
C14   C17   A    
C44   C46   A    
C29   H23   S    
C2    C45   A    
N2    Zn2   S    
C12   O2    A    
C32   C35   A    
C12   O3    A    
C18   C28   S    
C24   C25   S    
C5    C7    A    
C6    C8    A    
C20   C28   S    
C2    H2    S    
C41   H27   S    
C35   H31   S    
C1    C32   S    
C4    H4    S    
C40   N5    S    
O3    Zn1   S    
C15   H8    S    
C3    C9    A    
H25   N6    S    
C5    N1    A    
C33   H30   S    
C21   N4    S    
C23   C34   A    
H11   N3    S    
C45   H33   S    
O8    Zn2   S    
C9    C11   A    
C17   H10   S    
C41   H26   S    
C38   H14   S    
C20   C22   S    
C8    C15   A    
C22   C27   S    
C12   C31   S    
C22   C26   S    
C18   O8    A    
C30   C43   A    
C36   C44   A    
C21   C24   S    
C37   C45   A    
H16   N4    S    
C34   C43   A    
C24   C28   S    
C10   C13   A    
O4    Zn2   S    
C25   C27   S    
C39   H17   S    
C26   C28   S    
C44   H32   S    
C16   H9    S    
C29   C31   A    
C30   C32   A    
C30   H29   S    
C11   C13   A    
C24   N6    S    
C2    C42   A    
N1    Zn1   S    
C43   C46   A    
O5    Zn1   S    
C38   H13   S    
C14   H7    S    
C4    N2    A    
C23   C36   A    
C40   H22   S    
C20   N3    S    
C5    H5    S    
C6    H6    S    
C4    C10   A    
