data_mof_unit_18592.cif
_audit_creation_date              2012-12-10T17:33:05-0500
_audit_creation_method            fapswitch 2.2
_symmetry_space_group_name_H-M    P1
_symmetry_Int_Tables_number       1
_space_group_crystal_system       triclinic
_cell_length_a                    15.509567
_cell_length_b                    15.541901
_cell_length_c                    17.868407
_cell_angle_alpha                 90.957817
_cell_angle_beta                  109.631394
_cell_angle_gamma                 68.723815
_cell_volume                      3753.03458453

loop_
_atom_site_label
_atom_site_type_symbol
_atom_type_description
_atom_site_fract_x
_atom_site_fract_y
_atom_site_fract_z
_atom_type_partial_charge
C1    C     C_R   0.465002 0.739981 0.532294 0.621215
C2    C     C_R   0.582366 0.399803 0.075731 -0.075722
C3    C     C_R   0.639349 0.341614 0.036153 -0.074248
C4    C     C_R   0.534252 0.260214 0.468546 0.566920
C5    C     C_R   0.616092 0.362554 0.954560 0.045506
C6    C     C_R   0.532899 0.443477 0.911822 -0.004247
C7    C     C_R   0.678470 0.306813 0.916009 0.396612
C8    C     C_R   0.660980 0.332624 0.836428 -0.050132
C9    C     C_R   0.524771 0.473021 0.835002 -0.089711
C10   C     C_R   0.476598 0.940490 0.642344 -0.069283
C11   C     C_R   0.460063 0.834037 0.543448 0.025590
C12   C     C_R   0.354215 0.670781 0.162503 0.375139
C13   C     C_R   0.504905 0.163833 0.361481 -0.106794
C14   C     C_R   0.466820 0.097694 0.329964 -0.103919
C15   C     C_R   0.459882 0.035757 0.380558 -0.036713
C16   C     C_R   0.757818 0.447874 0.532582 0.530308
C17   C     C_R   0.501641 0.031605 0.464421 0.032974
C18   C     C_R   0.539823 0.100016 0.497219 0.014472
C19   C     C_R   0.497671 0.966591 0.516525 -0.006674
C20   C     C_R   0.504722 0.987979 0.595227 -0.091574
C21   C     C_R   0.547493 0.051238 0.628054 -0.070345
C22   C     C_R   0.576617 0.098391 0.581749 0.270522
C23   C     C_R   0.443419 0.507824 0.153734 0.184385
C24   C     C_R   0.489993 0.880308 0.495432 0.122621
C25   C     C_R   0.449445 0.866864 0.614689 0.357065
C26   C     C_R   0.534639 0.169811 0.444115 0.044372
C27   C     C_R   0.023198 0.389859 0.653479 0.253949
C28   C     C_R   0.241968 0.552915 0.469723 0.497788
C29   C     C_R   0.861900 0.429382 0.550060 -0.028451
C30   C     C_R   0.066091 0.628984 0.383037 -0.168340
C31   C     C_R   0.966828 0.643761 0.362301 -0.062748
C32   C     C_R   0.935562 0.599946 0.409380 0.395496
C33   C     C_R   0.004916 0.539241 0.479912 0.043741
C34   C     C_R   0.435241 0.533100 0.075076 0.012660
C35   C     C_R   0.103917 0.535102 0.506079 -0.024987
C36   C     C_R   0.979718 0.485154 0.527055 0.005811
C37   C     C_R   0.048797 0.440175 0.604554 0.020655
C38   C     C_R   0.140747 0.448467 0.632224 -0.045220
C39   C     C_R   0.167516 0.495037 0.584383 -0.095644
C40   C     C_R   0.560479 0.440534 0.711754 0.539938
C41   C     C_R   0.888722 0.473156 0.499480 -0.091261
C42   C     C_R   0.928782 0.387617 0.626151 -0.081464
C43   C     C_R   0.135955 0.574258 0.454335 0.009055
C44   C     C_R   0.439987 0.558090 0.287222 0.594126
C45   C     C_R   0.366027 0.621700 0.036008 -0.092441
C46   C     C_R   0.412517 0.579305 0.200228 0.025178
C47   C     C_R   0.585063 0.416430 0.796525 -0.021804
C48   C     C_R   0.325987 0.690067 0.080033 -0.077525
C49   C     C_R   0.493386 0.474419 0.033802 0.046637
C50   C     C_R   0.466035 0.495884 0.949766 0.032618
C51   C     C_R   0.374494 0.570898 0.908927 0.261455
C52   C     C_R   0.333236 0.638447 0.952842 -0.065396
F1    F     F_    0.756235 0.227604 0.955248 -0.596836
F2    F     F_    0.424424 0.820184 0.662254 -0.592350
F3    F     F_    0.836454 0.625450 0.388315 -0.610364
F4    F     F_    0.320794 0.740821 0.204557 -0.558563
H1    H     H_    0.269578 0.700689 0.921692 0.177472
H2    H     H_    0.835650 0.498964 0.439938 0.218331
H3    H     H_    0.088215 0.660614 0.342896 0.169439
H4    H     H_    0.913329 0.689396 0.308614 0.177022
H5    H     H_    0.237944 0.501847 0.611368 0.176867
H6    H     H_    0.707506 0.288132 0.806369 0.180357
H7    H     H_    0.705461 0.283278 0.070796 0.197040
H8    H     H_    0.275086 0.759181 0.050953 0.172474
H9    H     H_    0.610836 0.387342 0.140111 0.184682
H10   H     H_    0.671199 0.708983 0.510109 0.359624
H11   H     H_    0.799229 0.087780 0.744044 0.387053
H12   H     H_    0.566325 0.057522 0.691543 0.176307
H13   H     H_    0.188537 0.375925 0.857208 0.395352
H14   H     H_    0.441003 0.274651 0.119936 0.375772
H15   H     H_    0.257279 0.643783 0.693523 0.365388
H16   H     H_    0.478047 0.958847 0.701425 0.174323
H17   H     H_    0.501321 0.216477 0.320292 0.195566
H18   H     H_    0.419804 0.992476 0.353395 0.187994
H19   H     H_    0.436960 0.098140 0.265747 0.159708
H20   H     H_    0.905479 0.355487 0.665025 0.172993
H21   H     H_    0.472514 0.540223 0.804101 0.200597
H22   H     H_    0.194021 0.418563 0.691207 0.238707
O1    O     O_3   0.500000 0.500000 0.500000 -0.489192
O2    O     O_R   0.596500 0.492780 0.688380 -0.531160
O3    O     O_R   0.388780 0.611210 0.325000 -0.462803
O4    O     O_R   0.499860 0.410860 0.661600 -0.484757
O5    O     O_R   0.514860 0.485140 0.325020 -0.490656
O6    O     O_2   0.462477 0.818428 0.350688 -0.199686
O7    O     O_2   0.608092 0.859369 0.406156 -0.235068
O8    O     O_3   0.614851 0.706107 0.464333 -0.488887
O9    O     O_2   0.729077 0.144076 0.581545 -0.263755
O10   O     O_2   0.630652 0.229395 0.661159 -0.304152
O11   O     O_3   0.751489 0.059595 0.714724 -0.485534
O12   O     O_R   0.707110 0.418540 0.472990 -0.511345
O13   O     O_2   0.057803 0.285283 0.787896 -0.235514
O14   O     O_2   0.197935 0.262348 0.744684 -0.263989
O15   O     O_3   0.132486 0.412615 0.808777 -0.464615
O16   O     O_2   0.556070 0.337764 0.238993 -0.289730
O17   O     O_2   0.379950 0.399521 0.219901 -0.296827
O18   O     O_3   0.430399 0.337820 0.099280 -0.492877
O19   O     O_2   0.327166 0.477461 0.782525 -0.311762
O20   O     O_2   0.191463 0.600241 0.807956 -0.218201
O21   O     O_3   0.298347 0.650525 0.747579 -0.513593
O22   O     O_R   0.267620 0.606720 0.435250 -0.540940
O23   O     O_R   0.540230 0.674660 0.578090 -0.505970
O24   O     O_R   0.485030 0.300080 0.513670 -0.512769
O25   O     O_R   0.403610 0.721990 0.472930 -0.492623
O26   O     O_R   0.571130 0.303270 0.435320 -0.501318
O27   O     O_R   0.717650 0.497270 0.578120 -0.526534
O28   O     O_R   0.307610 0.477470 0.513630 -0.553933
S1    S     S_3+6 0.543844 0.817582 0.426212 0.044642
S2    S     S_3+6 0.672991 0.136758 0.633742 0.027086
S3    S     S_3+6 0.104660 0.333215 0.750652 0.041990
S4    S     S_3+6 0.453941 0.393106 0.180990 0.002581
S5    S     S_3+6 0.295747 0.572221 0.809795 0.000443
Zn1   Zn    Zn3+2 0.572030 0.427990 0.434470 1.070483
Zn2   Zn    Zn3+2 0.587090 0.540470 0.584680 1.032714
Zn3   Zn    Zn3+2 0.449010 0.423430 0.546420 1.008688
Zn4   Zn    Zn3+2 0.391880 0.608100 0.434430 1.062451

loop_
_geom_bond_atom_site_label_1
_geom_bond_atom_site_label_2
_ccdc_geom_bond_type
C40   C47   S    
C16   O12   A    
O1    Zn4   S    
C29   C42   A    
O23   Zn2   S    
O25   Zn4   S    
O8    S1    S    
C18   C26   A    
O12   Zn1   S    
C12   C48   A    
C2    H9    S    
O6    S1    D    
C6    C9    A    
C7    C8    A    
O1    Zn1   S    
O28   Zn3   S    
O27   Zn2   S    
C36   C37   A    
C41   H2    S    
H13   O15   S    
C30   C31   A    
O19   S5    D    
C22   S2    S    
O14   S3    D    
C48   H8    S    
C11   C25   A    
C11   C24   A    
H11   O11   S    
C33   C36   A    
C17   C19   A    
C21   C22   A    
O9    S2    D    
C19   C20   A    
C28   O28   A    
C4    O24   A    
C40   O2    A    
C35   C43   A    
C1    O25   A    
C32   F3    S    
C44   O5    A    
C23   C46   A    
C13   C14   A    
C36   C41   A    
O22   Zn4   S    
C44   C46   S    
C50   C51   A    
C38   C39   A    
C39   H5    S    
C51   C52   A    
C40   O4    A    
C25   F2    S    
O4    Zn3   S    
C12   C46   A    
C44   O3    A    
C10   C20   A    
C5    C7    A    
O2    Zn2   S    
C38   H22   S    
C45   C52   A    
C16   C29   S    
H15   O21   S    
O16   S4    D    
C31   H4    S    
H14   O18   S    
O5    Zn1   S    
C37   C38   A    
O24   Zn3   S    
C2    C49   A    
C31   C32   A    
C23   C34   A    
O21   S5    S    
C30   H3    S    
O3    Zn4   S    
C17   C18   A    
C24   S1    S    
C9    H21   S    
C6    C50   A    
C12   F4    S    
C34   C45   A    
C16   O27   A    
C10   C25   A    
C13   H17   S    
C9    C47   A    
O1    Zn2   S    
C21   H12   S    
C30   C43   A    
C7    F1    S    
C1    O23   A    
O26   Zn1   S    
C45   C48   A    
C15   C17   A    
C23   S4    S    
C34   C49   A    
C51   S5    S    
O20   S5    D    
C29   C41   A    
C18   C22   A    
C3    C5    A    
O17   S4    D    
H10   O8    S    
C4    C26   S    
C3    H7    S    
C28   C43   S    
C42   H20   S    
C14   H19   S    
O13   S3    D    
C2    C3    A    
C8    C47   A    
C32   C33   A    
C27   C42   A    
C28   O22   A    
C5    C6    A    
O18   S4    S    
C27   C37   A    
O10   S2    D    
C35   C39   A    
C4    O26   A    
O11   S2    S    
C33   C35   A    
C19   C24   A    
C13   C26   A    
C52   H1    S    
C15   H18   S    
C20   C21   A    
C27   S3    S    
C49   C50   A    
O1    Zn3   S    
O15   S3    S    
C14   C15   A    
C1    C11   S    
O7    S1    D    
C8    H6    S    
C10   H16   S    
