data_mof_unit_8354.cif
_audit_creation_date              2012-12-10T19:03:08-0500
_audit_creation_method            fapswitch 2.2
_symmetry_space_group_name_H-M    P1
_symmetry_Int_Tables_number       1
_space_group_crystal_system       triclinic
_cell_length_a                    10.737105
_cell_length_b                    10.814591
_cell_length_c                    9.542414
_cell_angle_alpha                 90.024464
_cell_angle_beta                  89.732845
_cell_angle_gamma                 90.111563
_cell_volume                      1108.0260526

loop_
_atom_site_label
_atom_site_type_symbol
_atom_type_description
_atom_site_fract_x
_atom_site_fract_y
_atom_site_fract_z
_atom_type_partial_charge
C1    C     C_R   0.497374 0.262339 0.499958 0.790363
C2    C     C_3   0.878228 0.494743 0.499139 0.135883
C3    C     C_3   0.929729 0.621508 0.547169 -0.401404
C4    C     C_3   0.928462 0.468109 0.349220 -0.370916
C5    C     C_R   0.487763 0.063739 0.625829 0.118778
C6    C     C_R   0.484603 0.129273 0.500008 -0.099384
C7    C     C_R   0.463958 0.064399 0.374485 -0.225600
C8    C     C_R   0.464416 0.935450 0.374478 -0.225757
C9    C     C_R   0.485368 0.870808 0.500018 -0.103268
C10   C     C_R   0.488258 0.936509 0.625826 0.131507
C11   C     C_3   0.579487 0.930651 0.743344 -0.481457
C12   C     C_R   0.260024 0.494570 0.500009 0.752595
C13   C     C_3   0.578615 0.071028 0.743620 -0.462972
C14   C     C_R   0.560553 0.591025 0.073315 0.260051
C15   C     C_R   0.430823 0.417149 0.074746 -0.083743
C16   C     C_R   0.430794 0.417142 0.925843 -0.088077
C17   C     C_R   0.560396 0.591158 0.925819 0.265311
C18   C     C_3   0.696063 0.619967 0.918855 -0.517136
C19   C     C_3   0.696462 0.618587 0.077566 -0.516502
C20   C     C_R   0.497805 0.737699 0.499973 0.801055
C21   C     C_R   0.740193 0.497693 0.499722 0.764271
C22   C     C_3   0.070330 0.398858 0.609852 -0.369865
C23   C     C_3   0.926853 0.392728 0.599854 -0.382298
C24   C     C_3   0.073130 0.621987 0.536483 -0.439331
C25   C     C_3   0.071201 0.453727 0.350434 0.045635
C26   C     C_3   0.122017 0.490849 0.498869 0.159853
Cu1   Cu    Cu3+1 0.499990 0.499980 0.640670 0.928639
Cu2   Cu    Cu3+1 0.500010 0.500020 0.359330 0.925563
H1    H     H_    0.096772 0.430102 0.716864 0.170907
H2    H     H_    0.905000 0.547149 0.279856 0.142288
H3    H     H_    0.103270 0.689336 0.454835 0.154885
H4    H     H_    0.891207 0.697018 0.481113 0.151556
H5    H     H_    0.453494 0.112599 0.275765 0.158728
H6    H     H_    0.454275 0.887123 0.275727 0.161911
H7    H     H_    0.537988 0.889706 0.839713 0.195036
H8    H     H_    0.670479 0.890755 0.710593 0.187753
H9    H     H_    0.536219 0.111097 0.839930 0.194418
H10   H     H_    0.669164 0.112692 0.711560 0.192927
H11   H     H_    0.376879 0.348457 0.130763 0.134258
H12   H     H_    0.110954 0.305212 0.595497 0.154157
H13   H     H_    0.376707 0.348534 0.870241 0.134941
H14   H     H_    0.752135 0.543842 0.872577 0.213854
H15   H     H_    0.714778 0.712916 0.873998 0.186681
H16   H     H_    0.750731 0.540058 0.119905 0.212049
H17   H     H_    0.716619 0.710336 0.124947 0.191887
H18   H     H_    0.897796 0.300048 0.561079 0.151843
H19   H     H_    0.886469 0.404360 0.706614 0.166373
H20   H     H_    0.112754 0.653706 0.637977 0.176951
H21   H     H_    0.900864 0.640103 0.657372 0.173869
H22   H     H_    0.109971 0.518922 0.270925 0.156989
H23   H     H_    0.882162 0.384556 0.305005 0.175306
N1    N     N_R   0.500800 0.500930 0.147930 -0.183679
N2    N     N_R   0.500800 0.500890 0.852020 -0.183421
O1    O     O_R   0.500000 0.319640 0.618810 -0.581138
O2    O     O_R   0.500010 0.319680 0.381230 -0.589511
O3    O     O_R   0.317690 0.499960 0.618790 -0.588337
O4    O     O_R   0.317700 0.500000 0.381210 -0.590071
O5    O     O_R   0.499990 0.680320 0.618770 -0.574757
O6    O     O_R   0.500000 0.680360 0.381190 -0.583301
O7    O     O_R   0.682300 0.500000 0.618790 -0.587376
O8    O     O_R   0.682310 0.500040 0.381210 -0.586259
C27   C     C_3   0.108347 0.321874 0.303453 -0.911496
H24   H     H_    0.084011 0.308842 0.191385 0.226249
H25   H     H_    0.209674 0.305469 0.314218 0.240879
H26   H     H_    0.058151 0.250338 0.365206 0.240854

loop_
_geom_bond_atom_site_label_1
_geom_bond_atom_site_label_2
_ccdc_geom_bond_type
C2    C4    S    
C1    O1    A    
C19   H17   S    
C27   H24   S    
C22   H1    S    
C11   C13   S    
C9    C10   A    
C9    C20   S    
C21   O8    A    
C25   C27   S    
C22   H12   S    
Cu2   O8    S    
C2    C21   S    
Cu1   N2    S    
C4    C25   S    
C3    H21   S    
Cu1   O1    S    
C15   N1    A    
C5    C10   A    
C23   H18   S    
C8    H6    S    
C18   H15   S    
C16   N2    A    
C20   O6    A    
Cu2   N1    S    
C14   C17   A    
C15   H11   S    
C3    C24   S    
C12   O3    A    
C5    C6    A    
C12   O4    A    
C5    C13   S    
C11   H7    S    
C11   H8    S    
Cu2   O2    S    
C24   C26   S    
C17   C18   S    
C6    C7    A    
C2    C3    S    
Cu1   O7    S    
C18   H14   S    
C1    O2    A    
C3    H4    S    
C4    H2    S    
C24   H3    S    
C23   H19   S    
C10   C11   S    
C7    H5    S    
C4    H23   S    
C20   O5    A    
C1    C6    S    
C24   H20   S    
C17   N2    A    
C7    C8    A    
C19   H16   S    
Cu2   O4    S    
C21   O7    A    
C18   C19   S    
C22   C26   S    
Cu2   O6    S    
C2    C23   S    
C25   H22   S    
C14   C19   S    
C27   H25   S    
C27   H26   S    
C25   C26   S    
Cu1   O3    S    
C13   H9    S    
C16   H13   S    
C22   C23   S    
C14   N1    A    
C13   H10   S    
C15   C16   A    
C12   C26   S    
C8    C9    A    
Cu1   Cu2   S    
Cu1   O5    S    
