data_mof_unit_8929.cif
_audit_creation_date              2013-03-05T16:10:11-0500
_audit_creation_method            fapswitch 2.2
_symmetry_space_group_name_H-M    P1
_symmetry_Int_Tables_number       1
_space_group_crystal_system       triclinic
_cell_length_a                    15.099284
_cell_length_b                    7.380427
_cell_length_c                    13.342891
_cell_angle_alpha                 90.000798
_cell_angle_beta                  100.887028
_cell_angle_gamma                 90.001058
_cell_volume                      1460.15826745

loop_
_atom_site_label
_atom_site_type_symbol
_atom_site_description
_atom_site_fract_x
_atom_site_fract_y
_atom_site_fract_z
_atom_type_partial_charge
O1    O     O_R   0.648180 0.355050 0.151550 -0.556327
O2    O     O_R   0.351820 0.644950 0.848450 -0.556294
O3    O     O_R   0.851820 0.855050 0.348450 -0.556083
O4    O     O_R   0.148180 0.144950 0.651550 -0.556213
O5    O     O_R   0.835240 0.681980 0.154280 -0.552926
O6    O     O_R   0.164760 0.318020 0.845720 -0.553001
O7    O     O_R   0.664760 0.181980 0.345720 -0.553035
O8    O     O_R   0.335240 0.818020 0.654280 -0.553033
C1    C     C_R   0.862219 0.515406 0.131242 0.982118
C2    C     C_R   0.137783 0.484593 0.868760 0.982090
C3    C     C_R   0.637778 0.015406 0.368755 0.982087
C4    C     C_R   0.362217 0.984594 0.631240 0.982083
O9    O     O_R   0.647870 0.684600 0.139630 -0.509360
O10   O     O_R   0.352130 0.315400 0.860370 -0.509373
O11   O     O_R   0.852130 0.184600 0.360370 -0.509477
O12   O     O_R   0.147870 0.815400 0.639630 -0.509420
O13   O     O_R   0.663110 0.857440 0.333700 -0.566727
O14   O     O_R   0.336890 0.142560 0.666300 -0.566778
O15   O     O_R   0.836890 0.357440 0.166300 -0.566987
O16   O     O_R   0.163110 0.642560 0.833700 -0.566840
C5    C     C_R   0.613801 0.516361 0.115631 1.042790
C6    C     C_R   0.386201 0.483639 0.884366 1.042711
C7    C     C_R   0.886198 0.016362 0.384370 1.042489
C8    C     C_R   0.113800 0.983636 0.615633 1.042592
O17   O     O_3   0.755220 0.522230 0.313690 -0.248878
O18   O     O_3   0.244780 0.477770 0.686310 -0.248894
O19   O     O_3   0.744780 0.022230 0.186310 -0.248958
O20   O     O_3   0.255220 0.977770 0.813690 -0.248914
V1    V     V_3+5 0.749030 0.796100 0.238190 1.431469
V2    V     V_3+5 0.250970 0.203900 0.761810 1.431425
V3    V     V_3+5 0.750970 0.296100 0.261810 1.431327
V4    V     V_3+5 0.249030 0.703900 0.738190 1.431379
C9    C     C_1   0.966678 0.005600 0.465868 0.054261
C10   C     C_1   0.033316 0.994390 0.534140 0.054085
C11   C     C_1   0.533319 0.505605 0.034136 0.053913
C12   C     C_1   0.466683 0.494397 0.965862 0.053980
C13   C     C_R   0.555772 0.989319 0.718653 0.162086
C14   C     C_R   0.444220 0.010657 0.281346 0.162140
C15   C     C_R   0.944222 0.489301 0.781348 0.162099
C16   C     C_R   0.055807 0.510747 0.218672 0.162221
C17   C     C_R   0.646895 0.962473 0.764927 0.213172
C18   C     C_R   0.353095 0.037496 0.235069 0.213075
C19   C     C_R   0.853093 0.462487 0.735076 0.213179
C20   C     C_R   0.146952 0.537452 0.264936 0.213313
C21   C     C_R   0.711632 0.945456 0.702925 0.177717
C22   C     C_R   0.288355 0.054495 0.297071 0.177744
C23   C     C_R   0.788362 0.445466 0.797084 0.177693
C24   C     C_R   0.211672 0.554472 0.202917 0.177563
C25   C     C_R   0.685792 0.960683 0.596181 0.231800
C26   C     C_R   0.314198 0.039267 0.403815 0.231837
C27   C     C_R   0.814207 0.460685 0.903827 0.231775
C28   C     C_R   0.185812 0.539285 0.096177 0.231788
C29   C     C_R   0.593546 0.981813 0.546278 -0.023854
C30   C     C_R   0.406445 0.018167 0.453718 -0.023875
C31   C     C_R   0.906456 0.481817 0.953729 -0.023824
C32   C     C_R   0.093560 0.518171 0.046285 -0.023803
C33   C     C_R   0.526366 0.986202 0.609361 -0.055302
C34   C     C_R   0.473626 0.013785 0.390636 -0.055234
C35   C     C_R   0.973634 0.486199 0.890642 -0.055359
C36   C     C_R   0.026383 0.513814 0.109376 -0.055468
C37   C     C_R   0.567656 0.002783 0.436673 -0.144166
C38   C     C_R   0.432337 0.997211 0.563323 -0.144181
C39   C     C_R   0.932349 0.502798 0.063336 -0.144268
C40   C     C_R   0.067664 0.497207 0.936679 -0.144221
N1    N     N_R   0.674343 0.977571 0.875015 0.306085
O21   O     O_R   0.753109 0.041225 0.916366 -0.306070
O22   O     O_R   0.619436 0.935108 0.935571 -0.239333
N2    N     N_R   0.325649 0.022398 0.124982 0.306062
O23   O     O_R   0.246880 0.958760 0.083629 -0.306070
O24   O     O_R   0.380558 0.064861 0.064428 -0.239343
N3    N     N_R   0.825634 0.477598 0.624988 0.306095
O25   O     O_R   0.746859 0.541222 0.583649 -0.306074
O26   O     O_R   0.880537 0.435191 0.564417 -0.239226
N4    N     N_R   0.174437 0.522271 0.375022 0.306123
O27   O     O_R   0.253212 0.458590 0.416318 -0.306217
O28   O     O_R   0.119560 0.564632 0.435631 -0.239012
N5    N     N_R   0.500206 0.069103 0.782110 0.239285
O29   O     O_R   0.456052 0.967446 0.835509 -0.326949
O30   O     O_R   0.511736 0.239710 0.804659 -0.355331
N6    N     N_R   0.499779 0.930819 0.217904 0.239295
O31   O     O_R   0.543923 0.032410 0.164463 -0.326916
O32   O     O_R   0.488330 0.760150 0.195497 -0.355388
N7    N     N_R   0.999812 0.568942 0.717870 0.239272
O33   O     O_R   0.043945 0.467134 0.664515 -0.326970
O34   O     O_R   0.988247 0.739488 0.695170 -0.355316
N8    N     N_R   0.000158 0.431452 0.282202 0.239237
O35   O     O_R   0.956080 0.533611 0.335452 -0.327085
O36   O     O_R   0.011779 0.261032 0.305229 -0.355264
N9    N     N_R   0.193681 0.061305 0.251823 0.287955
O37   O     O_R   0.163788 0.177436 0.180515 -0.375576
O38   O     O_R   0.138342 0.938990 0.273704 -0.343946
N10   N     N_R   0.806305 0.938640 0.748175 0.287996
O39   O     O_R   0.836192 0.822522 0.819492 -0.375463
O40   O     O_R   0.861643 0.060965 0.726303 -0.343836
N11   N     N_R   0.306348 0.561300 0.248147 0.288053
O41   O     O_R   0.336242 0.677427 0.319461 -0.375402
O42   O     O_R   0.361678 0.438963 0.226275 -0.343732
N12   N     N_R   0.693689 0.438652 0.751841 0.288037
O43   O     O_R   0.663794 0.322513 0.680535 -0.375420
O44   O     O_R   0.638359 0.561000 0.773703 -0.343786
N13   N     N_R   0.757171 0.979434 0.541712 0.199371
O45   O     O_R   0.782199 0.143060 0.525836 -0.370344
O46   O     O_R   0.814646 0.848167 0.543447 -0.352676
N14   N     N_R   0.242820 0.020500 0.458285 0.199366
O47   O     O_R   0.217799 0.856869 0.474160 -0.370355
O48   O     O_R   0.185341 0.151757 0.456553 -0.352639
N15   N     N_R   0.742829 0.479439 0.958296 0.199366
O49   O     O_R   0.717810 0.643069 0.974176 -0.370330
O50   O     O_R   0.685341 0.348185 0.956546 -0.352718
N16   N     N_R   0.257183 0.520546 0.041697 0.199354
O51   O     O_R   0.282208 0.356921 0.025819 -0.370320
O52   O     O_R   0.314664 0.651811 0.043444 -0.352772

loop_
_geom_bond_atom_site_label_1
_geom_bond_atom_site_label_2
_geom_bond_distance
_ccdc_geom_bond_type
O17   V3    1.803283 S    
C26   N14   1.415917 S    
N13   O45   1.294712 A    
C16   C36   1.442177 A    
C24   N11   1.443761 S    
C31   C35   1.435622 A    
O19   V1    1.803303 S    
O13   V1    2.033861 S    
O3    C7    1.350016 A    
C11   C12   1.225895 T    
C17   N1    1.453214 S    
O15   V3    2.033857 S    
N14   O48   1.297951 A    
O4    V2    1.974839 S    
C33   C38   1.438832 A    
C22   N9    1.443790 S    
N5    O29   1.301726 A    
O1    C5    1.350038 A    
C35   C40   1.438839 A    
C26   C30   1.434356 A    
C23   N12   1.443761 S    
N4    O28   1.300570 A    
C36   C39   1.438914 A    
O9    V1    1.995205 S    
C14   C18   1.411641 A    
C25   N13   1.415919 S    
O4    C8    1.350029 A    
N8    O36   1.298781 A    
O1    V3    1.974860 S    
O2    V4    1.974858 S    
C18   C22   1.400420 A    
C16   N8    1.426933 S    
O3    V1    1.974837 S    
C21   N10   1.443769 S    
N16   O51   1.294711 A    
C14   C34   1.442079 A    
C29   C37   1.448996 A    
C1    O15   1.338617 A    
N11   O41   1.296701 A    
C2    O16   1.338614 A    
N2    O23   1.300651 A    
C7    C9    1.471849 S    
C31   C39   1.449022 A    
O2    C6    1.350038 A    
N15   O49   1.294717 A    
C32   C40   1.449006 A    
O14   V2    2.033860 S    
C21   C25   1.408363 A    
N9    O38   1.300192 A    
C16   C20   1.411719 A    
C34   C37   1.438844 A    
O11   C7    1.358939 A    
O12   C8    1.358926 A    
C1    C39   1.520963 S    
C18   N2    1.453207 S    
N15   O50   1.297968 A    
O10   V2    1.995204 S    
N14   O47   1.294713 A    
O5    V1    2.051315 S    
N5    O30   1.298644 A    
O7    V3    2.051309 S    
N4    O27   1.300663 A    
O8    V4    2.051307 S    
N6    O32   1.298591 A    
N3    O26   1.300555 A    
C29   C33   1.435620 A    
O18   V4    1.803284 S    
C23   C27   1.408355 A    
C30   C38   1.448986 A    
N1    O22   1.300556 A    
C13   N5    1.426852 S    
C8    C10   1.471846 S    
C32   C36   1.435654 A    
O7    C3    1.348753 A    
O5    C1    1.348755 A    
C4    C38   1.520951 S    
N7    O33   1.301784 A    
C28   N16   1.415903 S    
O8    C4    1.348743 A    
C15   C35   1.442126 A    
N10   O40   1.300189 A    
C9    C10   1.225897 T    
O9    C5    1.358919 A    
C20   N4    1.453298 S    
N2    O24   1.300549 A    
O6    V2    2.051316 S    
N12   O43   1.296693 A    
N12   O44   1.300189 A    
C30   C34   1.435609 A    
O16   V4    2.033859 S    
C3    O13   1.338611 A    
C19   N3    1.453254 S    
N7    O34   1.298689 A    
N8    O35   1.301882 A    
C2    C40   1.520957 S    
N6    O31   1.301705 A    
C3    C37   1.520991 S    
O6    C2    1.348746 A    
C15   C19   1.411656 A    
N11   O42   1.300192 A    
O11   V3    1.995243 S    
C5    C11   1.471842 S    
O12   V4    1.995244 S    
C6    C12   1.471845 S    
C22   C26   1.408361 A    
N13   O46   1.297955 A    
O10   C6    1.358922 A    
O20   V2    1.803304 S    
C15   N7    1.426882 S    
N3    O25   1.300656 A    
C14   N6    1.426813 S    
C25   C29   1.434354 A    
N10   O39   1.296695 A    
C27   C31   1.434381 A    
C13   C17   1.411631 A    
N16   O52   1.297960 A    
C28   C32   1.434376 A    
C24   C28   1.408322 A    
C27   N15   1.415918 S    
N1    O21   1.300654 A    
C4    O14   1.338609 A    
C17   C21   1.400407 A    
N9    O37   1.296697 A    
C19   C23   1.400384 A    
C13   C33   1.442093 A    
C20   C24   1.400347 A    
