data_mof_unit_34843.cif
_audit_creation_date              2012-12-11T15:49:12-0500
_audit_creation_method            fapswitch 2.2
_symmetry_space_group_name_H-M    P1
_symmetry_Int_Tables_number       1
_space_group_crystal_system       triclinic
_cell_length_a                    21.608687
_cell_length_b                    7.178183
_cell_length_c                    14.875267
_cell_angle_alpha                 89.874619
_cell_angle_beta                  106.332768
_cell_angle_gamma                 89.949887
_cell_volume                      2214.19845637

loop_
_atom_site_label
_atom_site_type_symbol
_atom_type_description
_atom_site_fract_x
_atom_site_fract_y
_atom_site_fract_z
_atom_type_partial_charge
O1    O     O_R   0.335860 0.638190 0.002110 -0.540746
O2    O     O_R   0.664140 0.361810 0.997890 -0.540709
O3    O     O_R   0.164140 0.138190 0.997890 -0.540774
O4    O     O_R   0.835860 0.861810 0.002110 -0.540807
O5    O     O_R   0.217530 0.305920 0.861960 -0.538741
O6    O     O_R   0.782470 0.694080 0.138040 -0.537084
O7    O     O_R   0.282470 0.805920 0.138040 -0.536991
O8    O     O_R   0.717530 0.194080 0.861960 -0.537293
C1    C     C_R   0.206057 0.477084 0.825852 0.678875
C2    C     C_R   0.794315 0.523021 0.174111 0.678715
C3    C     C_R   0.294046 0.976459 0.174210 0.678949
C4    C     C_R   0.705540 0.023491 0.825850 0.678433
O9    O     O_R   0.338690 0.308320 0.993240 -0.544030
O10   O     O_R   0.661310 0.691680 0.006760 -0.544194
O11   O     O_R   0.161310 0.808320 0.006760 -0.543988
O12   O     O_R   0.838690 0.191680 0.993240 -0.544038
O13   O     O_R   0.286170 0.140430 0.130100 -0.536309
O14   O     O_R   0.713830 0.859570 0.869900 -0.535828
O15   O     O_R   0.213830 0.640430 0.869900 -0.534633
O16   O     O_R   0.786170 0.359570 0.130100 -0.536034
C5    C     C_R   0.364970 0.477179 0.997766 0.672748
C6    C     C_R   0.635036 0.522814 0.002261 0.673048
C7    C     C_R   0.135031 0.977274 0.002238 0.673191
C8    C     C_R   0.864965 0.022723 0.997744 0.673444
O17   O     O_3   0.232630 0.472410 0.044750 -0.375378
O18   O     O_3   0.767370 0.527590 0.955250 -0.375309
O19   O     O_3   0.267370 0.972410 0.955250 -0.375198
O20   O     O_3   0.732630 0.027590 0.044750 -0.375325
V1    V     V_3+5 0.253220 0.196620 0.991700 1.406619
V2    V     V_3+5 0.746780 0.803380 0.008300 1.408910
V3    V     V_3+5 0.246780 0.696620 0.008300 1.410391
V4    V     V_3+5 0.753220 0.303380 0.991700 1.409371
C9    C     C_R   0.030065 0.826257 0.004164 -0.164550
C10   C     C_R   0.969923 0.173732 0.995777 -0.164421
C11   C     C_R   0.470077 0.326226 0.995992 -0.161622
C12   C     C_R   0.529942 0.673751 0.004103 -0.166757
C13   C     C_R   0.965052 0.837583 0.002465 -0.154836
C14   C     C_R   0.034935 0.162406 0.997470 -0.154988
C15   C     C_R   0.535087 0.337657 0.997702 -0.152918
C16   C     C_R   0.464936 0.662318 0.002407 -0.157723
H1    H     H_    0.939229 0.709171 0.004568 0.121227
H2    H     H_    0.060756 0.290818 0.995359 0.121242
H3    H     H_    0.561015 0.209273 0.995721 0.121172
H4    H     H_    0.439011 0.790703 0.004403 0.121612
C17   C     C_R   0.933994 0.011508 0.998258 -0.039273
C18   C     C_R   0.065997 0.988483 0.001694 -0.039352
C19   C     C_R   0.566008 0.511612 0.001763 -0.039394
C20   C     C_R   0.434008 0.488368 0.998315 -0.039420
C21   C     C_R   0.677407 0.015736 0.724453 -0.019665
C22   C     C_R   0.321327 0.981964 0.275802 -0.021275
C23   C     C_R   0.822278 0.514320 0.275461 -0.018995
C24   C     C_R   0.178557 0.486904 0.724459 -0.019948
C25   C     C_R   0.689835 0.010528 0.568808 -0.171628
C26   C     C_R   0.308474 0.953674 0.430799 -0.173155
C27   C     C_R   0.809601 0.505516 0.430888 -0.171272
C28   C     C_R   0.191486 0.523305 0.570012 -0.172087
C29   C     C_R   0.716845 0.020325 0.665153 -0.190192
C30   C     C_R   0.281789 0.958185 0.334219 -0.184490
C31   C     C_R   0.782658 0.514864 0.334511 -0.190653
C32   C     C_R   0.218241 0.511561 0.666398 -0.188114
C33   C     C_R   0.610607 0.004818 0.687595 -0.193696
C34   C     C_R   0.387876 0.997631 0.313713 -0.197374
C35   C     C_R   0.889112 0.507572 0.312524 -0.194426
C36   C     C_R   0.111911 0.476524 0.686580 -0.194328
C37   C     C_R   0.581164 0.995540 0.589573 0.063743
C38   C     C_R   0.417128 0.983094 0.411584 0.063893
C39   C     C_R   0.918526 0.504031 0.410642 0.063656
C40   C     C_R   0.082634 0.494780 0.588880 0.063456
C41   C     C_R   0.622287 0.997321 0.529337 0.111803
C42   C     C_R   0.375940 0.966942 0.471213 0.114534
C43   C     C_R   0.877266 0.499545 0.470639 0.112888
C44   C     C_R   0.123926 0.514116 0.529508 0.114345
C45   C     C_R   0.512523 0.985227 0.550174 0.023043
C46   C     C_R   0.485736 0.984158 0.451201 0.022521
C47   C     C_R   0.987244 0.505215 0.450293 0.023579
C48   C     C_R   0.013974 0.494836 0.549181 0.022927
C49   C     C_R   0.528233 0.978105 0.394397 -0.211031
C50   C     C_R   0.469943 0.973790 0.606846 -0.212314
C51   C     C_R   0.971333 0.488814 0.605854 -0.212598
C52   C     C_R   0.029933 0.520263 0.393931 -0.212325
C53   C     C_R   0.595201 0.984181 0.431376 0.119278
C54   C     C_R   0.402997 0.962570 0.569430 0.118846
C55   C     C_R   0.904354 0.490014 0.568693 0.118876
C56   C     C_R   0.096939 0.525431 0.431442 0.119105
H5    H     H_    0.230089 0.943957 0.304985 0.105401
H6    H     H_    0.768720 0.030678 0.693558 0.107953
H7    H     H_    0.270075 0.520778 0.695716 0.106228
H8    H     H_    0.730712 0.521313 0.305881 0.107878
H9    H     H_    0.722905 0.014285 0.526293 0.128469
H10   H     H_    0.275279 0.937744 0.472631 0.126969
H11   H     H_    0.776383 0.504771 0.473195 0.128135
H12   H     H_    0.224755 0.540664 0.528400 0.127513
H13   H     H_    0.510696 0.963961 0.319592 0.121895
H14   H     H_    0.487307 0.970443 0.681922 0.121540
H15   H     H_    0.988578 0.488217 0.680965 0.123097
H16   H     H_    0.012634 0.530979 0.319030 0.121294
H17   H     H_    0.052027 0.689855 0.007246 0.118535
H18   H     H_    0.947962 0.310134 0.992699 0.118429
H19   H     H_    0.448226 0.189829 0.993023 0.118390
H20   H     H_    0.551790 0.810149 0.007065 0.118729
C57   C     C_3   0.635899 0.974382 0.363050 -0.358909
C58   C     C_3   0.657298 0.168125 0.341529 -0.749901
H21   H     H_    0.614517 0.255235 0.307780 0.226534
H22   H     H_    0.685749 0.238462 0.406303 0.223603
H23   H     H_    0.687680 0.156044 0.292745 0.221979
H24   H     H_    0.678152 0.881246 0.389844 0.172069
H25   H     H_    0.608068 0.910739 0.295727 0.175042
C59   C     C_3   0.362232 0.947429 0.637561 -0.361633
C60   C     C_3   0.331571 0.134454 0.649310 -0.742243
H26   H     H_    0.369701 0.239480 0.678019 0.223800
H27   H     H_    0.300005 0.186302 0.581551 0.225103
H28   H     H_    0.301966 0.118356 0.698954 0.222737
H29   H     H_    0.324854 0.837929 0.615103 0.169811
H30   H     H_    0.392139 0.902032 0.707914 0.175446
C61   C     C_3   0.863666 0.480643 0.637077 -0.359367
C62   C     C_3   0.839709 0.673599 0.654802 -0.749400
H31   H     H_    0.881304 0.765863 0.686699 0.226053
H32   H     H_    0.810295 0.738169 0.588742 0.224149
H33   H     H_    0.809549 0.661633 0.703907 0.222406
H34   H     H_    0.822686 0.382835 0.612059 0.171730
H35   H     H_    0.892220 0.422757 0.705633 0.175042
C63   C     C_3   0.137845 0.542751 0.363566 -0.362500
C64   C     C_3   0.167291 0.355373 0.349063 -0.740350
H36   H     H_    0.198458 0.298835 0.416027 0.224587
H37   H     H_    0.128476 0.253243 0.318736 0.224488
H38   H     H_    0.197061 0.373050 0.299741 0.222418
H39   H     H_    0.108303 0.592751 0.293877 0.174911
H40   H     H_    0.175926 0.649769 0.387651 0.169231
H41   H     H_    0.415060 0.021093 0.264188 0.093894
H42   H     H_    0.583560 0.006312 0.738230 0.090760
H43   H     H_    0.084880 0.453251 0.736234 0.090903
H44   H     H_    0.916157 0.504665 0.261897 0.090946

loop_
_geom_bond_atom_site_label_1
_geom_bond_atom_site_label_2
_ccdc_geom_bond_type
O17   V3    S    
O18   V4    S    
C57   C58   S    
C61   H35   S    
C27   C31   A    
O19   V1    S    
O13   V1    S    
C45   C46   A    
O3    C7    A    
C48   C51   A    
C52   C56   A    
C25   C41   A    
C4    C21   S    
C21   C29   A    
C64   H36   S    
C53   C57   S    
C59   C60   S    
O1    C5    A    
C58   H23   S    
C8    C17   S    
C36   C40   A    
O9    V1    S    
C14   H2    S    
C60   H27   S    
O16   V4    S    
C11   C15   A    
O4    C8    A    
C64   H37   S    
C11   C20   A    
C56   C63   S    
C61   C62   S    
C38   C46   A    
O1    V3    S    
C37   C45   A    
C29   H6    S    
C12   C19   A    
O2    V4    S    
C59   H30   S    
C63   H39   S    
O3    V1    S    
C31   H8    S    
C27   H11   S    
C24   C32   A    
C1    O15   A    
C2    O16   A    
C28   C44   A    
C46   C49   A    
O2    C6    A    
C45   C50   A    
O14   V2    S    
C54   C59   S    
C52   H16   S    
C47   C52   A    
C43   C55   A    
C23   C35   A    
C40   C44   A    
C5    C20   S    
O11   C7    A    
C6    C19   S    
O15   V3    S    
O12   C8    A    
C7    C18   S    
C63   H40   S    
C9    C18   A    
C34   H41   S    
C1    C24   S    
O10   V2    S    
C11   H19   S    
C2    C23   S    
C32   H7    S    
O5    V1    S    
C35   C39   A    
O7    V3    S    
C34   C38   A    
O8    V4    S    
C55   C61   S    
C12   C16   A    
C21   C33   A    
C24   C36   A    
C60   H28   S    
C25   C29   A    
C64   H38   S    
C15   H3    S    
C9    C13   A    
C28   C32   A    
C22   C30   A    
C59   H29   S    
O7    C3    A    
C47   C48   A    
O5    C1    A    
C50   C54   A    
C26   C42   A    
C36   H43   S    
C49   C53   A    
O8    C4    A    
C28   H12   S    
O9    C5    A    
C12   H20   S    
C10   C17   A    
C35   H44   S    
C58   H22   S    
C44   C56   A    
C33   H42   S    
C26   H10   S    
O6    V2    S    
C25   H9    S    
C22   C34   A    
C23   C31   A    
C13   C17   A    
C30   H5    S    
C15   C19   A    
C26   C30   A    
C57   H24   S    
C16   C20   A    
C3    O13   A    
C10   C14   A    
O6    C2    A    
O11   V3    S    
O12   V4    S    
C62   H33   S    
O10   C6    A    
O20   V2    S    
C3    C22   S    
C60   H26   S    
C51   C55   A    
C40   C48   A    
C38   C42   A    
C50   H14   S    
C37   C41   A    
C49   H13   S    
C10   H18   S    
C62   H32   S    
C62   H31   S    
C39   C43   A    
C13   H1    S    
C58   H21   S    
C42   C54   A    
O4    V2    S    
C14   C18   A    
C41   C53   A    
C33   C37   A    
C16   H4    S    
C39   C47   A    
C61   H34   S    
C4    O14   A    
C57   H25   S    
C9    H17   S    
C63   C64   S    
C51   H15   S    
C27   C43   A    
