data_mof_unit_44636.cif
_audit_creation_date              2012-12-10T17:49:41-0500
_audit_creation_method            fapswitch 2.2
_symmetry_space_group_name_H-M    P1
_symmetry_Int_Tables_number       1
_space_group_crystal_system       triclinic
_cell_length_a                    10.533013
_cell_length_b                    10.628831
_cell_length_c                    10.008707
_cell_angle_alpha                 92.059707
_cell_angle_beta                  88.195666
_cell_angle_gamma                 92.354023
_cell_volume                      1118.33657449

loop_
_atom_site_label
_atom_site_type_symbol
_atom_type_description
_atom_site_fract_x
_atom_site_fract_y
_atom_site_fract_z
_atom_type_partial_charge
Br1   Br    Br    0.288654 0.261524 0.208341 -0.505454
Br2   Br    Br    0.008389 0.339943 0.082626 -0.555635
Br3   Br    Br    0.227003 0.221483 0.683547 -0.518708
C1    C     C_R   0.487776 0.260110 0.498362 0.933710
C2    C     C_R   0.439960 0.061075 0.612749 -0.019670
C3    C     C_R   0.473129 0.125219 0.494652 -0.047546
C4    C     C_R   0.257821 0.497353 0.501729 0.949459
C5    C     C_R   0.523748 0.061344 0.382209 -0.173944
C6    C     C_R   0.545175 0.935606 0.388262 -0.209754
C7    C     C_R   0.527478 0.875912 0.509968 -0.097950
C8    C     C_R   0.276572 0.417216 0.119569 0.261269
C9    C     C_R   0.161620 0.440902 0.057323 0.269861
C10   C     C_R   0.163163 0.527250 0.955392 -0.287734
C11   C     C_R   0.278009 0.556044 0.887779 -0.173296
C12   C     C_3   0.967762 0.528410 0.376040 -0.187223
C13   C     C_R   0.390067 0.510063 0.934817 0.129014
C14   C     C_R   0.389450 0.478239 0.071188 0.030504
C15   C     C_R   0.610002 0.514492 0.065290 0.222017
C16   C     C_R   0.511832 0.740349 0.502740 0.857764
C17   C     C_R   0.609430 0.500906 0.923165 -0.121337
C18   C     C_R   0.742377 0.505592 0.498755 0.874680
C19   C     C_3   0.033630 0.478766 0.626707 -0.163260
C20   C     C_3   0.947359 0.392882 0.537343 -0.168179
C21   C     C_3   0.877903 0.509160 0.497677 -0.049686
C22   C     C_3   0.962439 0.594547 0.586903 0.204884
C23   C     C_3   0.039190 0.411782 0.416212 -0.117138
C24   C     C_3   0.053207 0.613558 0.466167 0.163761
C25   C     C_3   0.444932 0.915253 0.009208 -0.865864
C26   C     C_3   0.626126 0.832959 0.795549 -0.826747
C27   C     C_3   0.735463 0.545816 0.124894 -0.812959
C28   C     C_3   0.923424 0.699886 0.684014 -0.927884
C29   C     C_3   0.116533 0.738496 0.425702 -0.868567
C30   C     C_3   0.122825 0.498261 0.504984 -0.044648
C31   C     C_R   0.357656 0.107547 0.715929 0.252104
C32   C     C_R   0.355425 0.054787 0.841581 -0.193498
C33   C     C_R   0.438572 0.960323 0.868447 0.169245
C34   C     C_R   0.513513 0.908012 0.762329 0.203634
C35   C     C_R   0.495628 0.946128 0.629136 -0.004121
H1    H     H_    0.900445 0.301918 0.566058 0.175452
H2    H     H_    0.291301 0.090493 0.919413 0.217459
H3    H     H_    0.376310 0.963220 0.078322 0.264576
H4    H     H_    0.422109 0.812349 0.010384 0.235690
H5    H     H_    0.541590 0.934907 0.047823 0.240393
H6    H     H_    0.593984 0.745417 0.845223 0.248964
H7    H     H_    0.683997 0.809290 0.704916 0.232687
H8    H     H_    0.688974 0.889678 0.863640 0.234976
H9    H     H_    0.808644 0.574288 0.048157 0.206212
H10   H     H_    0.727431 0.627491 0.196424 0.243033
H11   H     H_    0.769001 0.460123 0.169957 0.289760
H12   H     H_    0.575452 0.885034 0.297617 0.169180
H13   H     H_    0.007875 0.737507 0.738288 0.251307
H14   H     H_    0.884931 0.776707 0.627305 0.245048
H15   H     H_    0.851229 0.663419 0.757419 0.246748
H16   H     H_    0.042651 0.805958 0.404655 0.252587
H17   H     H_    0.175999 0.777928 0.508004 0.241649
H18   H     H_    0.177502 0.723568 0.334485 0.251462
H19   H     H_    0.075030 0.559406 0.918773 0.176701
H20   H     H_    0.279387 0.618019 0.804883 0.192303
H21   H     H_    0.698001 0.502329 0.865599 0.169373
H22   H     H_    0.061694 0.450823 0.726069 0.205817
H23   H     H_    0.944340 0.554240 0.274052 0.183257
H24   H     H_    0.071750 0.331497 0.353241 0.232789
H25   H     H_    0.548322 0.108485 0.290150 0.193204
N1    N     N_R   0.498800 0.498800 0.142780 -0.103159
N2    N     N_R   0.498760 0.498720 0.857170 -0.122746
O1    O     O_R   0.500000 0.316780 0.614690 -0.588657
O2    O     O_R   0.499990 0.316750 0.385360 -0.580456
O3    O     O_R   0.313960 0.499980 0.614650 -0.614162
O4    O     O_R   0.313940 0.499960 0.385310 -0.606362
O5    O     O_R   0.500010 0.683250 0.614640 -0.624837
O6    O     O_R   0.500000 0.683220 0.385310 -0.620794
O7    O     O_R   0.686060 0.500040 0.614690 -0.628552
O8    O     O_R   0.686040 0.500020 0.385350 -0.630299
Zn1   Zn    Zn3+2 0.500010 0.500020 0.653130 0.963184
Zn2   Zn    Zn3+2 0.499990 0.499980 0.346870 0.975105

loop_
_geom_bond_atom_site_label_1
_geom_bond_atom_site_label_2
_ccdc_geom_bond_type
C22   C28   S    
O6    Zn2   S    
O8    Zn2   S    
C16   O6    A    
C32   C33   A    
Br1   C8    S    
C28   H14   S    
Br2   C9    S    
C24   C30   S    
C27   H10   S    
C33   C34   A    
C14   N1    A    
C19   H22   S    
C2    C3    A    
C10   H19   S    
O3    Zn1   S    
O1    Zn1   S    
C18   O8    A    
C25   H3    S    
C31   C32   A    
C20   C23   S    
C4    O3    A    
C13   C14   A    
C19   C22   S    
O5    Zn1   S    
C20   C21   S    
C15   C27   S    
C6    C7    A    
C29   H17   S    
C10   C11   A    
C4    C30   S    
C29   H16   S    
C11   H20   S    
C18   O7    A    
C27   H9    S    
C21   C22   S    
C1    C3    S    
C5    C6    A    
C12   C23   S    
C3    C5    A    
Br3   C31   S    
N2    Zn1   S    
C26   H7    S    
C34   C35   A    
C17   N2    A    
C23   C30   S    
C12   C24   S    
C7    C16   S    
C2    C31   A    
C12   H23   S    
C28   H15   S    
C17   H21   S    
O7    Zn1   S    
C12   C21   S    
C27   H11   S    
C26   H6    S    
C11   C13   A    
O2    Zn2   S    
C19   C30   S    
C8    C14   A    
C24   C29   S    
C6    H12   S    
C28   H13   S    
C4    O4    A    
C1    O2    A    
C8    C9    A    
C22   C24   S    
C25   H5    S    
C26   H8    S    
C7    C35   A    
C32   H2    S    
C23   H24   S    
C1    O1    A    
C15   N1    A    
C20   H1    S    
C25   H4    S    
N1    Zn2   S    
O4    Zn2   S    
C15   C17   A    
C5    H25   S    
C9    C10   A    
C25   C33   S    
C18   C21   S    
C26   C34   S    
C19   C20   S    
C16   O5    A    
C13   N2    A    
C2    C35   A    
C29   H18   S    
