data_mof_unit_28481.cif
_audit_creation_date              2012-12-10T17:35:02-0500
_audit_creation_method            fapswitch 2.2
_symmetry_space_group_name_H-M    P1
_symmetry_Int_Tables_number       1
_space_group_crystal_system       triclinic
_cell_length_a                    12.366392
_cell_length_b                    13.181964
_cell_length_c                    13.834615
_cell_angle_alpha                 105.395219
_cell_angle_beta                  73.805361
_cell_angle_gamma                 116.910401
_cell_volume                      1905.5197063

loop_
_atom_site_label
_atom_site_type_symbol
_atom_type_description
_atom_site_fract_x
_atom_site_fract_y
_atom_site_fract_z
_atom_type_partial_charge
C1    C     C_R   0.144300 0.713437 0.509112 0.871788
C2    C     C_1   0.977503 0.510987 0.792126 -0.149194
C3    C     C_R   0.734254 0.966776 0.384455 0.466122
C4    C     C_R   0.773759 0.163732 0.467526 -0.127659
C5    C     C_R   0.182110 0.910389 0.596024 -0.259254
C6    C     C_R   0.261311 0.022472 0.627348 0.496362
C7    C     C_R   0.387490 0.057448 0.589028 -0.209835
C8    C     C_R   0.434165 0.987481 0.508045 0.006819
C9    C     C_R   0.350725 0.877789 0.468447 -0.081507
C10   C     C_R   0.562244 0.021042 0.469954 -0.012584
C11   C     C_R   0.606854 0.941304 0.401346 -0.125683
C12   C     C_R   0.984478 0.504689 0.686409 0.820089
C13   C     C_R   0.523095 0.840576 0.350427 0.351183
C14   C     C_R   0.395616 0.812881 0.380253 0.384362
C15   C     C_R   0.647435 0.132797 0.498130 -0.202782
C16   C     C_R   0.817510 0.079725 0.414486 -0.283890
C17   C     C_R   0.225513 0.836482 0.519526 -0.133656
C18   C     C_R   0.647893 0.683764 0.659738 0.358488
C19   C     C_R   0.249543 0.346350 0.367201 0.593144
C20   C     C_R   0.337539 0.301015 0.353269 0.224385
C21   C     C_R   0.436527 0.360465 0.404570 -0.285355
C22   C     C_R   0.446991 0.462178 0.474697 -0.035005
C23   C     C_R   0.856001 0.286103 0.485367 0.819597
C24   C     C_R   0.347182 0.495974 0.496770 0.131210
C25   C     C_R   0.549275 0.526993 0.527769 -0.097938
C26   C     C_R   0.546448 0.620617 0.607688 -0.044624
C27   C     C_R   0.442233 0.647099 0.632777 0.326588
C28   C     C_R   0.347523 0.586940 0.577125 -0.194169
C29   C     C_R   0.655308 0.502320 0.503905 0.022570
C30   C     C_R   0.745985 0.650569 0.634278 -0.049136
C31   C     C_R   0.014375 0.493625 0.313591 0.822420
C32   C     C_1   0.019049 0.485029 0.208079 -0.156631
C33   C     C_2   0.019932 0.470216 0.014760 -0.272213
C34   C     C_2   0.968259 0.525534 0.987302 0.421388
C35   C     C_1   0.972406 0.517513 0.881277 -0.025812
C36   C     C_1   0.020575 0.477693 0.119607 0.075443
Cu1   Cu    Cu3+1 0.899780 0.525060 0.522890 0.941434
Cu2   Cu    Cu3+1 0.100220 0.474940 0.477110 0.986821
H1    H     H_    0.821993 0.696577 0.675254 0.149967
H2    H     H_    0.666566 0.436185 0.442055 0.145642
H3    H     H_    0.501015 0.322014 0.391401 0.189694
H4    H     H_    0.272489 0.611977 0.602827 0.229455
H5    H     H_    0.062405 0.417957 0.958014 0.119290
H6    H     H_    0.915698 0.102375 0.392899 0.200825
H7    H     H_    0.617067 0.199806 0.538867 0.160065
H8    H     H_    0.087132 0.879340 0.635899 0.162938
H9    H     H_    0.446363 0.137459 0.628222 0.132754
N1    N     N_R   0.748810 0.563010 0.557590 -0.208767
N2    N     N_R   0.250540 0.437620 0.443020 -0.245184
O1    O     O_R   0.025040 0.682470 0.528790 -0.607414
O2    O     O_R   0.194310 0.640150 0.490130 -0.550856
O3    O     O_R   0.903380 0.524130 0.659910 -0.566600
O4    O     O_R   0.072660 0.481800 0.621240 -0.609965
O5    O     O_R   0.805690 0.359850 0.509870 -0.593004
O6    O     O_R   0.974960 0.317530 0.471210 -0.544203
O7    O     O_R   0.927340 0.518200 0.378760 -0.574195
O8    O     O_R   0.096620 0.475870 0.340090 -0.530674
Cl1   Cl    Cl    0.896025 0.609747 0.076905 -0.618744
O9    O     O_3   0.314849 0.719486 0.324489 -0.581289
C37   C     C_3   0.308293 0.751847 0.237195 0.037035
H10   H     H_    0.286417 0.673944 0.177434 0.169676
H11   H     H_    0.396141 0.818538 0.204516 0.137082
C38   C     C_3   0.206450 0.794638 0.259708 -0.419741
H12   H     H_    0.228590 0.874920 0.316763 0.239363
H13   H     H_    0.117757 0.728206 0.291446 0.222143
C39   C     C_3   0.193832 0.819699 0.162684 -0.732405
H14   H     H_    0.280842 0.888963 0.131935 0.269101
H15   H     H_    0.118148 0.848568 0.179452 0.271248
H16   H     H_    0.172496 0.740895 0.103897 0.266517
Cl2   Cl    Cl    0.418114 0.751565 0.736423 -0.612030
O10   O     O_3   0.651070 0.774441 0.738759 -0.568626
C40   C     C_3   0.723979 0.878965 0.700036 0.090317
H17   H     H_    0.676585 0.887732 0.647074 0.169091
H18   H     H_    0.817112 0.883160 0.659763 0.100730
C41   C     C_3   0.741164 0.980382 0.787774 -0.278578
H19   H     H_    0.649450 0.977409 0.830534 0.256687
H20   H     H_    0.789998 0.973969 0.840783 0.212771
C42   C     C_3   0.816039 0.095112 0.748132 -0.932810
H21   H     H_    0.907886 0.099566 0.704444 0.254445
H22   H     H_    0.829743 0.167387 0.813343 0.260254
H23   H     H_    0.766586 0.105055 0.697783 0.265580
O11   O     O_3   0.153645 0.293825 0.313115 -0.584191
C43   C     C_3   0.193915 0.290466 0.205700 0.068638
H24   H     H_    0.112879 0.274306 0.174526 0.163324
H25   H     H_    0.216747 0.215112 0.170056 0.203808
C44   C     C_3   0.300853 0.401744 0.170958 -0.383968
H26   H     H_    0.282527 0.478596 0.211568 0.261579
H27   H     H_    0.388412 0.412309 0.187856 0.230105
C45   C     C_3   0.318306 0.396710 0.056322 -0.893759
H28   H     H_    0.336010 0.319891 0.013524 0.272254
H29   H     H_    0.398350 0.474991 0.032178 0.261180
H30   H     H_    0.234836 0.392581 0.037092 0.249044
Cl3   Cl    Cl    0.321329 0.164892 0.280446 -0.691418
O12   O     O_3   0.562138 0.766044 0.272712 -0.549285
C46   C     C_3   0.622778 0.816399 0.182687 0.117624
H31   H     H_    0.724133 0.852838 0.176955 0.211326
H32   H     H_    0.599494 0.887719 0.179371 0.084860
C47   C     C_3   0.590605 0.722590 0.089662 -0.359376
H33   H     H_    0.620280 0.654667 0.089926 0.265103
H34   H     H_    0.489350 0.682179 0.093515 0.209653
C48   C     C_3   0.653242 0.771254 0.990173 -0.827383
H35   H     H_    0.622026 0.836966 0.986940 0.260622
H36   H     H_    0.628629 0.700559 0.924568 0.285964
H37   H     H_    0.755121 0.811071 0.983609 0.257964
O13   O     O_3   0.776909 0.881572 0.337948 -0.591779
C49   C     C_3   0.824740 0.858372 0.407394 0.105114
H38   H     H_    0.785295 0.763262 0.402950 0.165628
H39   H     H_    0.795801 0.891699 0.488584 0.100107
C50   C     C_3   0.965768 0.903023 0.377352 -0.321054
H40   H     H_    0.990478 0.828013 0.349071 0.209148
H41   H     H_    0.001097 0.954620 0.314755 0.259561
C51   C     C_3   0.029877 0.976897 0.467062 -0.896112
H42   H     H_    0.009676 0.054681 0.495851 0.255194
H43   H     H_    0.131198 0.004847 0.442589 0.282723
H44   H     H_    0.997605 0.926182 0.529542 0.240292
O14   O     O_3   0.216708 0.090510 0.707410 -0.603350
C52   C     C_3   0.233686 0.189745 0.673515 0.046895
H45   H     H_    0.177832 0.164817 0.613618 0.149918
H46   H     H_    0.332433 0.239564 0.642067 0.144061
C53   C     C_3   0.191784 0.268437 0.763359 -0.351373
H47   H     H_    0.091433 0.223833 0.792473 0.222841
H48   H     H_    0.242300 0.289092 0.825922 0.236226
C54   C     C_3   0.217311 0.380290 0.731107 -0.874101
H49   H     H_    0.317943 0.427345 0.705466 0.264015
H50   H     H_    0.185370 0.436425 0.796174 0.260882
H51   H     H_    0.168359 0.361351 0.668060 0.270622

loop_
_geom_bond_atom_site_label_1
_geom_bond_atom_site_label_2
_ccdc_geom_bond_type
C2    C35   T    
C39   H15   S    
C20   Cl3   S    
C38   H13   S    
C48   H35   S    
C52   H45   S    
C46   H31   S    
C18   C26   A    
C9    C14   A    
C2    C12   S    
C51   H43   S    
C46   C47   S    
C54   H49   S    
Cu2   N2    S    
C3    O13   S    
C14   O9    S    
C26   C27   A    
C37   C38   S    
C32   C36   T    
C30   N1    A    
C10   C15   A    
C52   H46   S    
C5    C6    A    
C44   H27   S    
C54   H50   S    
C39   H16   S    
C5    C17   A    
C49   H38   S    
C18   O10   S    
C33   C36   S    
O14   C52   S    
C37   H11   S    
C34   C35   S    
Cu1   O7    S    
Cu2   O6    S    
C31   C32   S    
C8    C9    A    
C22   C25   A    
C18   C30   A    
C31   O7    A    
C45   H29   S    
C19   O11   S    
C1    O1    A    
C16   H6    S    
C12   O4    A    
C53   C54   S    
C39   H14   S    
C38   C39   S    
O9    C37   S    
C48   H36   S    
C13   C14   A    
C40   C41   S    
C51   H42   S    
C12   O3    A    
C53   H48   S    
C25   C29   A    
C29   N1    A    
C33   H5    S    
C7    C8    A    
C40   H18   S    
C50   C51   S    
Cu1   O3    S    
C42   H21   S    
C54   H51   S    
Cu2   O2    S    
C25   C26   A    
C37   H10   S    
C45   H30   S    
C7    H9    S    
C4    C16   A    
C41   H19   S    
Cu1   Cu2   S    
Cu2   O8    S    
C1    O2    A    
C19   N2    A    
C43   H24   S    
C33   C34   D    
Cu1   N1    S    
C41   H20   S    
C6    O14   S    
C27   Cl2   S    
C21   H3    S    
Cu1   O5    S    
C9    C17   A    
C43   H25   S    
C47   H33   S    
C48   H37   S    
C47   H34   S    
C22   C24   A    
C52   C53   S    
C15   H7    S    
C53   H47   S    
C23   O5    A    
O13   C49   S    
C24   N2    A    
C4    C23   S    
C44   H26   S    
C24   C28   A    
C40   H17   S    
C44   C45   S    
C46   H32   S    
C23   O6    A    
C6    C7    A    
C47   C48   S    
C5    H8    S    
C1    C17   S    
C13   O12   S    
C31   O8    A    
C19   C20   A    
C50   H41   S    
O10   C40   S    
C50   H40   S    
Cu1   O1    S    
C11   C13   A    
C42   H23   S    
Cu2   O4    S    
C49   H39   S    
C4    C15   A    
C29   H2    S    
C28   H4    S    
C30   H1    S    
C42   H22   S    
O12   C46   S    
C41   C42   S    
C3    C11   A    
C10   C11   A    
C38   H12   S    
C43   C44   S    
C20   C21   A    
C8    C10   A    
O11   C43   S    
C27   C28   A    
C34   Cl1   S    
C45   H28   S    
C21   C22   A    
C51   H44   S    
C3    C16   A    
C49   C50   S    
