data_mof_unit_67132.cif
_audit_creation_date              2012-12-11T17:44:50-0500
_audit_creation_method            fapswitch 2.2
_symmetry_space_group_name_H-M    P1
_symmetry_Int_Tables_number       1
_space_group_crystal_system       triclinic
_cell_length_a                    8.189231
_cell_length_b                    12.740612
_cell_length_c                    14.93243
_cell_angle_alpha                 97.02258
_cell_angle_beta                  97.291953
_cell_angle_gamma                 98.878686
_cell_volume                      1510.79016931

loop_
_atom_site_label
_atom_site_type_symbol
_atom_type_description
_atom_site_fract_x
_atom_site_fract_y
_atom_site_fract_z
_atom_type_partial_charge
Ba1   Ba    Ba6+2 0.843760 0.550230 0.455610 1.674347
Ba2   Ba    Ba6+2 0.346080 0.449860 0.544400 1.656967
C1    C     C_3   0.570095 0.911037 0.161805 -0.399364
C2    C     C_R   0.108826 0.470676 0.207316 0.087021
C3    C     C_R   0.918449 0.483363 0.768696 -0.272865
C4    C     C_3   0.150533 0.863733 0.218973 0.280971
C5    C     C_R   0.820341 0.440640 0.829216 0.049447
C6    C     C_R   0.885229 0.447987 0.921230 -0.076286
C7    C     C_R   0.048651 0.503743 0.955969 -0.002351
C8    C     C_R   0.144213 0.553568 0.893554 -0.024661
C9    C     C_R   0.119804 0.511963 0.050504 0.037416
C10   C     C_R   0.286296 0.568496 0.080127 -0.024846
C11   C     C_R   0.371659 0.620970 0.018158 -0.092954
C12   C     C_3   0.589478 0.828769 0.226496 0.401939
C13   C     C_R   0.301425 0.614738 0.927465 -0.019933
C14   C     C_R   0.033523 0.463402 0.116266 -0.023604
C15   C     C_R   0.271541 0.525097 0.233880 -0.249531
C16   C     C_3   0.100543 0.920360 0.138357 -0.311121
C17   C     C_R   0.078779 0.541185 0.798726 -0.014176
C18   C     C_R   0.771208 0.182067 0.543866 -0.287722
C19   C     C_R   0.420921 0.809606 0.465122 -0.256897
C20   C     C_R   0.387282 0.988209 0.438305 -0.098657
C21   C     C_R   0.323241 0.879640 0.429721 -0.044269
C22   C     C_R   0.581048 0.847956 0.513539 0.082870
C23   C     C_3   0.450029 0.263196 0.261439 0.248731
C24   C     C_R   0.646602 0.960127 0.525409 -0.064944
C25   C     C_R   0.548333 0.030383 0.485825 -0.053227
C26   C     C_R   0.613026 0.141369 0.495407 0.053833
C27   C     C_R   0.871617 0.114075 0.579391 -0.000513
C28   C     C_3   0.158669 0.799346 0.718627 0.268190
C29   C     C_R   0.807747 0.004494 0.573599 -0.088874
C30   C     C_3   0.153187 0.843256 0.817757 -0.373657
C31   C     C_3   0.930454 0.222253 0.350308 0.283809
C32   C     C_3   0.884580 0.100912 0.329333 -0.384362
C33   C     C_3   0.727196 0.714570 0.743518 0.313422
C34   C     C_3   0.475562 0.224074 0.164299 -0.198735
C35   C     C_3   0.711186 0.767161 0.839354 -0.212629
C36   C     C_2   0.764897 0.703713 0.912356 0.786084
C37   C     C_2   0.433670 0.301770 0.101894 0.787710
C38   C     C_2   0.030314 0.164917 0.930179 0.866219
C39   C     C_3   0.211461 0.890340 0.665426 -0.271769
C40   C     C_3   0.123185 0.245540 0.795966 0.320403
C41   C     C_3   0.166805 0.234692 0.896073 -0.170261
C42   C     C_3   0.593347 0.172669 0.756149 0.335277
C43   C     C_3   0.589705 0.069772 0.798118 -0.360461
C44   C     C_R   0.363084 0.571375 0.171521 -0.005562
H1    H     H_    0.669021 0.868695 0.291210 0.064765
H2    H     H_    0.840870 0.678058 0.746284 -0.123115
H3    H     H_    0.621299 0.650329 0.717162 0.102554
H4    H     H_    0.513630 0.977203 0.193773 0.087861
H5    H     H_    0.790551 0.848018 0.854411 0.122978
H6    H     H_    0.580668 0.779691 0.841924 0.051611
H7    H     H_    0.463711 0.797421 0.242254 -0.148703
H8    H     H_    0.487804 0.872338 0.097645 0.100459
H9    H     H_    0.319324 0.276821 0.262655 0.028103
H10   H     H_    0.537810 0.339683 0.286177 0.054245
H11   H     H_    0.393529 0.145245 0.139191 0.060438
H12   H     H_    0.278420 0.886130 0.851578 0.120071
H13   H     H_    0.607636 0.213308 0.163721 0.099690
H14   H     H_    0.693949 0.945101 0.145205 0.132041
H15   H     H_    0.181435 0.906772 0.085248 0.099593
H16   H     H_    0.209107 0.316556 0.783428 0.091913
H17   H     H_    0.993212 0.260846 0.782777 -0.102505
H18   H     H_    0.186219 0.316468 0.934863 0.077705
H19   H     H_    0.285211 0.202633 0.907696 0.113395
H20   H     H_    0.721170 0.196989 0.740222 -0.050896
H21   H     H_    0.502859 0.156774 0.691995 0.078878
H22   H     H_    0.626548 0.006628 0.750500 0.090152
H23   H     H_    0.062508 0.899084 0.820642 0.168967
H24   H     H_    0.462370 0.042308 0.813501 0.122438
H25   H     H_    0.164007 0.780195 0.193558 0.013656
H26   H     H_    0.677625 0.084290 0.862867 0.154899
H27   H     H_    0.330099 0.527244 0.303377 0.057224
H28   H     H_    0.494342 0.668343 0.039147 0.130876
H29   H     H_    0.908905 0.417988 0.099009 0.125701
H30   H     H_    0.866649 0.474563 0.697288 0.067124
H31   H     H_    0.803678 0.411118 0.963765 0.133621
H32   H     H_    0.372434 0.658461 0.883808 0.105427
H33   H     H_    0.306704 0.038549 0.409132 0.106980
H34   H     H_    0.113533 0.776386 0.855387 0.112825
H35   H     H_    0.886581 0.955081 0.604802 0.107913
H36   H     H_    0.820941 0.266673 0.548481 0.060848
H37   H     H_    0.271484 0.910131 0.255085 -0.023035
H38   H     H_    0.368354 0.725298 0.459083 0.076144
H39   H     H_    0.968110 0.889777 0.108769 0.181970
H40   H     H_    0.114950 0.008057 0.160984 0.102322
H41   H     H_    0.034749 0.757969 0.684784 0.084995
H42   H     H_    0.931504 0.694929 0.021555 0.313706
H43   H     H_    0.508017 0.397935 0.011941 0.326842
H44   H     H_    0.858007 0.154709 0.015555 0.308833
H45   H     H_    0.829695 0.254986 0.380892 0.001376
H46   H     H_    0.347326 0.920733 0.682525 0.092943
H47   H     H_    0.184785 0.860142 0.591565 0.107455
H48   H     H_    0.142990 0.957017 0.680165 0.119070
H49   H     H_    0.046941 0.242505 0.399782 0.081620
H50   H     H_    0.759251 0.078884 0.287841 0.116540
H51   H     H_    0.882515 0.065154 0.393169 0.086918
H52   H     H_    0.977788 0.068195 0.291300 0.146144
O1    O     O_2   0.827930 0.435360 0.277760 -0.464573
O2    O     O_2   0.214475 0.118546 0.573444 -0.497057
O3    O     O_3   0.145307 0.153308 0.740096 -0.599271
O4    O     O_3   0.100310 0.439010 0.391180 -0.507389
O5    O     O_3   0.587770 0.631830 0.546230 -0.487232
O6    O     O_2   0.332600 0.233710 0.456170 -0.472835
O7    O     O_3   0.479664 0.182394 0.313569 -0.665331
O8    O     O_2   0.479025 0.443304 0.824218 -0.454298
O9    O     O_3   0.548008 0.250937 0.818329 -0.591605
O10   O     O_3   0.625610 0.634200 0.333270 -0.481570
O11   O     O_2   0.697924 0.548328 0.174863 -0.450361
O12   O     O_3   0.737985 0.796285 0.688892 -0.658415
O13   O     O_3   0.952031 0.263401 0.269081 -0.619696
O14   O     O_3   0.667866 0.748891 0.185286 -0.573055
O15   O     O_2   0.857120 0.766320 0.543890 -0.470931
O16   O     O_3   0.056570 0.691100 0.379020 -0.464403
O17   O     O_2   0.992058 0.879970 0.444608 -0.482892
O18   O     O_2   0.678585 0.619419 0.919918 -0.624252
O19   O     O_R   0.911858 0.742667 0.973107 -0.778963
O20   O     O_2   0.293861 0.324360 0.094165 -0.650226
O21   O     O_R   0.552469 0.346693 0.051887 -0.737974
O22   O     O_2   0.996154 0.069065 0.901288 -0.637275
O23   O     O_3   0.025903 0.861598 0.275251 -0.572418
O24   O     O_R   0.944922 0.209792 0.996385 -0.741764
O25   O     O_2   0.361790 0.564680 0.722290 -0.451038
O26   O     O_3   0.089410 0.561080 0.608830 -0.479887
O27   O     O_3   0.564100 0.365890 0.666740 -0.493556
O28   O     O_3   0.277689 0.732398 0.716093 -0.613585
O29   O     O_3   0.601940 0.368260 0.453780 -0.480032
O30   O     O_3   0.133140 0.308990 0.620990 -0.490973
P1    P     P_3+3 0.998770 0.403620 0.291990 1.002984
P2    P     P_3+3 0.687370 0.751000 0.571300 0.985618
P3    P     P_3+3 0.103042 0.829613 0.381486 0.972310
P4    P     P_3+3 0.190950 0.596470 0.708020 0.976858
P5    P     P_3+3 0.090791 0.171448 0.626535 0.944880
P6    P     P_3+3 0.587080 0.624516 0.214475 0.996570
P7    P     P_3+3 0.510950 0.232034 0.429763 0.932102
P8    P     P_3+3 0.603445 0.377016 0.785381 0.987533

loop_
_geom_bond_atom_site_label_1
_geom_bond_atom_site_label_2
_ccdc_geom_bond_type
C27   P5    S    
C28   O28   S    
O6    P7    D    
C18   H36   S    
O25   P4    D    
C14   H29   S    
O16   P3    S    
C42   H20   S    
C23   H10   S    
C30   H12   S    
C34   H13   S    
Ba1   O1    S    
Ba1   O10   S    
C23   O7    S    
C5    C6    A    
O17   P3    D    
Ba2   O25   S    
C42   C43   S    
C12   O14   S    
C24   C25   A    
C16   H40   S    
C33   C35   S    
O29   P7    S    
C20   H33   S    
Ba1   P1    S    
C8    C13   A    
C31   H45   S    
C35   H5    S    
C1    H8    S    
C33   O12   S    
C13   H32   S    
C30   H34   S    
Ba2   O4    S    
C26   P7    S    
C32   H51   S    
O26   P4    S    
Ba1   Ba2   S    
C36   O19   S    
O13   P1    S    
C38   C41   S    
C39   H47   S    
H43   O21   S    
C6    C7    A    
C33   H3    S    
Ba2   P4    S    
O4    P1    S    
C28   C39   S    
C31   O13   S    
Ba2   O6    S    
C7    C8    A    
C40   H16   S    
O7    P7    S    
Ba2   O29   S    
O8    P8    D    
O11   P6    D    
C24   C29   A    
C43   H26   S    
C15   H27   S    
H44   O24   S    
Ba1   O15   S    
O23   P3    S    
C33   H2    S    
C31   H49   S    
C1    H4    S    
C41   H18   S    
C18   C27   A    
C4    H25   S    
C4    C16   S    
C16   H39   S    
O15   P2    D    
O1    P1    D    
C23   H9    S    
C15   C44   A    
C10   C44   A    
Ba1   P2    S    
C3    C5    A    
C35   H6    S    
C18   C26   A    
C2    C14   A    
O10   P6    S    
C35   C36   S    
C44   P6    S    
C36   O18   D    
C9    C14   A    
C39   H48   S    
C19   H38   S    
O28   P4    S    
C8    C17   A    
C41   H19   S    
C39   H46   S    
C43   H22   S    
C31   C32   S    
C2    P1    S    
C21   P3    S    
C11   H28   S    
C7    C9    A    
C30   H23   S    
C1    C12   S    
C2    C15   A    
O27   P8    S    
C38   O22   D    
C34   H11   S    
O3    P5    S    
C20   C25   A    
C19   C21   A    
C6    H31   S    
C40   C41   S    
C40   O3    S    
O2    P5    D    
C42   O9    S    
C17   P4    S    
Ba1   O5    S    
C4    H37   S    
C43   H24   S    
C34   C37   S    
Ba1   O29   S    
O14   P6    S    
C9    C10   A    
C16   H15   S    
C12   H1    S    
C3    C17   A    
Ba2   O26   S    
C37   O20   D    
C38   O24   S    
C29   H35   S    
C3    H30   S    
C11   C13   A    
H42   O19   S    
Ba1   O26   S    
C5    P8    S    
C27   C29   A    
O30   P5    S    
C1    H14   S    
C28   C30   S    
C22   C24   A    
Ba2   O5    S    
C37   O21   S    
Ba1   O4    S    
C32   H52   S    
O12   P2    S    
O5    P2    S    
C23   C34   S    
Ba2   O27   S    
C22   P2    S    
C12   H7    S    
C10   C11   A    
Ba1   O16   S    
C19   C22   A    
C25   C26   A    
C20   C21   A    
C42   H21   S    
C4    O23   S    
C28   H41   S    
C40   H17   S    
C32   H50   S    
O9    P8    S    
Ba2   O30   S    
