data_mof_unit_20205.cif
_audit_creation_date              2012-12-11T16:29:54-0500
_audit_creation_method            fapswitch 2.2
_symmetry_space_group_name_H-M    P1
_symmetry_Int_Tables_number       1
_space_group_crystal_system       triclinic
_cell_length_a                    8.248141
_cell_length_b                    17.381602
_cell_length_c                    22.885769
_cell_angle_alpha                 95.593356
_cell_angle_beta                  89.941702
_cell_angle_gamma                 95.920546
_cell_volume                      3247.86357752

loop_
_atom_site_label
_atom_site_type_symbol
_atom_type_description
_atom_site_fract_x
_atom_site_fract_y
_atom_site_fract_z
_atom_type_partial_charge
Ba1   Ba    Ba6+2 0.852790 0.535910 0.472200 1.642139
Ba2   Ba    Ba6+2 0.337030 0.464150 0.527810 1.649580
C1    C     C_3   0.666821 0.821512 0.321116 -0.366225
C2    C     C_3   0.645602 0.740650 0.341812 0.357684
C3    C     C_3   0.489074 0.353814 0.349133 0.274338
C4    C     C_3   0.475042 0.332467 0.283002 -0.402174
C5    C     C_3   0.057648 0.295253 0.686723 0.288662
C6    C     C_3   0.086973 0.275718 0.748935 -0.333844
C7    C     C_3   0.560784 0.267077 0.658088 0.352616
C8    C     C_3   0.573652 0.187785 0.679793 -0.369427
C9    C     C_R   0.344980 0.520211 0.332280 -0.288754
C10   C     C_R   0.116033 0.566256 0.937961 -0.010544
C11   C     C_R   0.070576 0.563162 0.877974 0.587452
C12   C     C_3   0.117557 0.701608 0.311865 0.323203
C13   C     C_R   0.935642 0.434444 0.881716 0.593932
C14   C     C_R   0.978087 0.436187 0.941921 -0.072146
C15   C     C_R   0.068383 0.502461 0.970217 -0.055515
C16   C     C_R   0.207008 0.632218 0.966627 -0.079132
C17   C     C_R   0.249480 0.634911 0.025934 -0.072056
C18   C     C_R   0.203029 0.571682 0.058717 -0.002077
C19   C     C_R   0.112027 0.504984 0.030745 -0.114088
C20   C     C_R   0.930235 0.373136 0.974448 -0.148016
C21   C     C_R   0.964876 0.376213 0.035234 0.433003
C22   C     C_R   0.063942 0.441375 0.063182 -0.078733
C23   C     C_3   0.096079 0.724489 0.250167 -0.326615
C24   C     C_R   0.116429 0.444720 0.122845 0.601542
C25   C     C_R   0.244895 0.574462 0.118889 0.570079
C26   C     C_2   0.773853 0.476720 0.771252 -0.073812
C27   C     C_3   0.724384 0.481962 0.707957 -0.063139
C28   C     C_1   0.007668 0.513959 0.685710 0.048097
C29   C     C_2   0.054276 0.517042 0.741784 -0.103480
C30   C     C_2   0.932002 0.496027 0.788399 0.198841
C31   C     C_R   0.410618 0.544516 0.231935 -0.102575
C32   C     C_R   0.454284 0.549483 0.291533 -0.013375
C33   C     C_R   0.192204 0.484610 0.314679 0.000841
C34   C     C_3   0.213634 0.699905 0.596489 0.312285
C35   C     C_R   0.142366 0.485118 0.255604 -0.125462
C36   C     C_R   0.251724 0.513971 0.212851 0.202328
C37   C     C_2   0.867817 0.475951 0.667690 -0.273607
C38   C     C_R   0.410749 0.719781 0.473140 -0.294969
C39   C     C_R   0.555328 0.744521 0.503814 0.070788
C40   C     C_R   0.613371 0.823761 0.509935 -0.116009
C41   C     C_R   0.524516 0.878340 0.486225 -0.010196
C42   C     C_R   0.374315 0.852991 0.457671 -0.133339
C43   C     C_R   0.316660 0.773563 0.452174 0.010793
C44   C     C_R   0.592149 0.163954 0.485776 -0.118394
C45   C     C_3   0.237590 0.787493 0.611907 -0.380671
C46   C     C_R   0.645095 0.243552 0.491009 0.027647
C47   C     C_R   0.890208 0.219812 0.541158 0.021168
C48   C     C_R   0.838640 0.139579 0.536185 -0.141211
C49   C     C_R   0.688203 0.111407 0.508506 0.000040
C50   C     C_1   0.633089 0.028905 0.501200 -0.001700
C51   C     C_1   0.583717 0.960357 0.494275 0.000750
C52   C     C_R   0.792218 0.270857 0.519016 -0.255005
C53   C     C_3   0.925731 0.293288 0.331427 0.308938
C54   C     C_3   0.976832 0.282170 0.266931 -0.356588
C55   C     C_3   0.670901 0.639615 0.652884 0.292894
C56   C     C_3   0.615920 0.662758 0.715208 -0.351977
H1    H     H_    0.715761 0.742181 0.383428 0.082971
H2    H     H_    0.324947 0.802103 0.649212 0.127859
H3    H     H_    0.286398 0.816888 0.573876 0.062786
H4    H     H_    0.119131 0.809341 0.624270 0.130076
H5    H     H_    0.815803 0.324819 0.333631 0.056993
H6    H     H_    0.983852 0.338165 0.247470 0.128018
H7    H     H_    0.884220 0.241407 0.240977 0.092431
H8    H     H_    0.096874 0.259881 0.262595 0.120803
H9    H     H_    0.800230 0.627849 0.653829 0.001925
H10   H     H_    0.593686 0.586552 0.635123 0.063067
H11   H     H_    0.797801 0.839170 0.313431 0.141442
H12   H     H_    0.694741 0.714675 0.734678 0.129492
H13   H     H_    0.622604 0.615141 0.743695 0.063753
H14   H     H_    0.487519 0.677016 0.714295 0.135596
H15   H     H_    0.513891 0.725428 0.349899 -0.057697
H16   H     H_    0.620942 0.863865 0.355023 0.072086
H17   H     H_    0.369581 0.369500 0.365734 0.049813
H18   H     H_    0.582739 0.404443 0.357756 0.053584
H19   H     H_    0.384207 0.281137 0.273398 0.127538
H20   H     H_    0.435579 0.381485 0.261078 0.077020
H21   H     H_    0.594238 0.318164 0.264710 0.107609
H22   H     H_    0.597059 0.822075 0.279688 0.123161
H23   H     H_    0.105702 0.673307 0.217890 0.121803
H24   H     H_    0.127733 0.352119 0.681679 0.089444
H25   H     H_    0.925538 0.299644 0.680728 -0.021598
H26   H     H_    0.056128 0.323852 0.781024 0.127858
H27   H     H_    0.010069 0.221837 0.757359 0.122324
H28   H     H_    0.217082 0.267304 0.755026 0.142860
H29   H     H_    0.673205 0.283352 0.633362 -0.052462
H30   H     H_    0.452674 0.262391 0.628487 0.098170
H31   H     H_    0.596926 0.145054 0.642444 0.076491
H32   H     H_    0.457985 0.167399 0.700931 0.131697
H33   H     H_    0.035937 0.647729 0.316412 0.098468
H34   H     H_    0.675376 0.191496 0.711840 0.130053
H35   H     H_    0.864849 0.321391 0.952296 0.123931
H36   H     H_    0.319430 0.687035 0.046072 0.120884
H37   H     H_    0.500330 0.564682 0.200842 0.117837
H38   H     H_    0.245691 0.682282 0.943269 0.121692
H39   H     H_    0.180903 0.533864 0.754083 0.129901
H40   H     H_    0.680119 0.464442 0.803349 0.108314
H41   H     H_    0.018594 0.463724 0.242955 0.117918
H42   H     H_    0.381510 0.522438 0.377855 0.079781
H43   H     H_    0.246258 0.690009 0.317683 -0.045421
H44   H     H_    0.859406 0.437728 0.627096 0.063348
H45   H     H_    0.479534 0.142906 0.462450 0.076199
H46   H     H_    0.301015 0.894651 0.441331 0.079281
H47   H     H_    0.914969 0.099680 0.553227 0.081728
H48   H     H_    0.724711 0.843035 0.534574 0.091403
H49   H     H_    0.365028 0.658874 0.469544 0.070994
H50   H     H_    0.833650 0.332249 0.521674 0.075228
H51   H     H_    0.974071 0.744859 0.245034 0.148621
H52   H     H_    0.191510 0.771779 0.241254 0.119326
H53   H     H_    0.332769 0.678920 0.585496 -0.001492
H54   H     H_    0.129435 0.686792 0.558194 0.066481
N1    N     N_R   0.981082 0.497628 0.850167 -0.424814
N2    N     N_R   0.202971 0.511259 0.150753 -0.430168
O1    O     O_2   0.894270 0.458150 0.360790 -0.482518
O2    O     O_3   0.657051 0.702608 0.620384 -0.635537
O3    O     O_3   0.076072 0.761994 0.352630 -0.601117
O4    O     O_2   0.295430 0.541870 0.639250 -0.479037
O5    O     O_3   0.054960 0.541130 0.568170 -0.483452
O6    O     O_3   0.526510 0.403350 0.604440 -0.482138
O7    O     O_3   0.148969 0.665582 0.645298 -0.624748
O8    O     O_3   0.623640 0.408350 0.471030 -0.471215
O9    O     O_3   0.112120 0.364170 0.575770 -0.484052
O10   O     O_2   0.228811 0.228168 0.541782 -0.486150
O11   O     O_3   0.110682 0.236648 0.646717 -0.603238
O12   O     O_3   0.134750 0.458940 0.431830 -0.443414
O13   O     O_3   0.566070 0.591710 0.528970 -0.492478
O14   O     O_2   0.362610 0.313970 0.472520 -0.433153
O15   O     O_3   0.532936 0.289488 0.375514 -0.655656
O16   O     O_2   0.385024 0.443090 0.705479 -0.500676
O17   O     O_3   0.543595 0.321877 0.706234 -0.590793
O18   O     O_2   0.108391 0.619524 0.850850 -0.597875
O19   O     O_2   0.858161 0.376379 0.857393 -0.603446
O20   O     O_2   0.089786 0.387177 0.149364 -0.566503
O21   O     O_2   0.318060 0.633859 0.142930 -0.612925
O22   O     O_3   0.663190 0.596710 0.395570 -0.486294
O23   O     O_2   0.790833 0.546604 0.292871 -0.502645
O24   O     O_3   0.052943 0.333583 0.366845 -0.624744
O25   O     O_3   0.704531 0.687569 0.298722 -0.597666
O26   O     O_2   0.827090 0.686050 0.527520 -0.455244
O27   O     O_3   0.077580 0.635890 0.424230 -0.492852
O28   O     O_2   0.980618 0.774290 0.461419 -0.487660
P1    P     P_3+3 0.063260 0.435680 0.369690 0.995479
P2    P     P_3+3 0.650710 0.674870 0.544690 0.989238
P3    P     P_3+3 0.112334 0.737125 0.423330 0.940741
P4    P     P_3+3 0.126450 0.564380 0.630310 0.998780
P5    P     P_3+3 0.085479 0.262079 0.575406 0.955311
P6    P     P_3+3 0.654272 0.593612 0.318949 0.949360
P7    P     P_3+3 0.543364 0.312026 0.451707 0.954730
P8    P     P_3+3 0.544951 0.414022 0.681070 0.958980
C57   C     C_3   0.875324 0.213743 0.355635 -0.128667
C58   C     C_3   0.014733 0.169870 0.377078 -0.175206
C59   C     C_3   0.086803 0.117621 0.328174 -0.406160
H55   H     H_    0.988300 0.080532 0.302409 0.132104
H56   H     H_    0.163627 0.152613 0.298615 0.133761
H57   H     H_    0.166625 0.079338 0.348262 0.123052
H58   H     H_    0.963068 0.132008 0.410493 0.094583
H59   H     H_    0.113620 0.210036 0.399744 0.165427
H60   H     H_    0.800234 0.226498 0.394712 0.053693
H61   H     H_    0.793562 0.174664 0.324284 0.076055
O29   O     O_3   0.907837 0.315849 0.068221 -0.605035
C60   C     C_3   0.740508 0.289986 0.058721 0.282393
H62   H     H_    0.707639 0.245277 0.089598 0.082048
H63   H     H_    0.718520 0.259384 0.014171 0.030250
C61   C     C_3   0.627387 0.354935 0.071549 -0.253067
H64   H     H_    0.644703 0.380674 0.117808 0.134207
H65   H     H_    0.655540 0.401680 0.042143 0.108574
C62   C     C_3   0.449186 0.323464 0.061788 -0.432283
H66   H     H_    0.431178 0.293748 0.016745 0.136586
H67   H     H_    0.371939 0.372295 0.066409 0.148782
H68   H     H_    0.410783 0.282111 0.094498 0.152321

loop_
_geom_bond_atom_site_label_1
_geom_bond_atom_site_label_2
_ccdc_geom_bond_type
C5    H25   S    
C53   C54   S    
C61   H64   S    
C16   H38   S    
C39   C40   A    
O23   P6    D    
C17   C18   A    
C45   H4    S    
O29   C60   S    
Ba2   O4    S    
C5    C6    S    
Ba2   O9    S    
C42   C43   A    
O5    P4    S    
C46   C52   A    
C53   O24   S    
C43   P3    S    
C26   C27   S    
C1    H11   S    
C22   C24   A    
C16   C17   A    
O24   P1    S    
C7    H30   S    
C28   C29   D    
C36   N2    S    
C56   H13   S    
C4    H20   S    
C44   C46   A    
C47   C52   A    
O12   P1    S    
C47   P5    S    
C34   C45   S    
O3    P3    S    
C6    H27   S    
Ba1   O5    S    
C7    O17   S    
C1    H16   S    
Ba1   O8    S    
C27   P8    S    
O2    P2    S    
C32   P6    S    
C41   C51   S    
C62   H68   S    
C8    H31   S    
C14   C15   A    
C53   H5    S    
C10   C15   A    
O16   P8    D    
C48   H47   S    
C21   C22   A    
C54   H6    S    
C30   N1    S    
C59   H56   S    
Ba1   O22   S    
C7    C8    S    
O27   P3    S    
Ba2   O13   S    
C3    O15   S    
C45   H2    S    
C8    H34   S    
C61   H65   S    
C46   P7    S    
C23   H23   S    
O28   P3    D    
C55   H9    S    
C1    H22   S    
C31   H37   S    
C20   C21   A    
C28   P4    S    
C55   O2    S    
C60   H63   S    
Ba2   O8    S    
C42   H46   S    
C38   C43   A    
O10   P5    D    
O1    P1    D    
O25   P6    S    
C49   C50   S    
O8    P7    S    
O26   P2    D    
O4    P4    D    
Ba1   O12   S    
C39   P2    S    
O11   P5    S    
Ba2   O6    S    
C56   H12   S    
C4    H19   S    
C48   C49   A    
C44   C49   A    
C15   C19   A    
C9    H42   S    
C57   H60   S    
C3    H17   S    
C41   C42   A    
C24   N2    Am   
C34   H54   S    
C35   C36   A    
C24   O20   D    
C60   C61   S    
C54   H7    S    
C29   C30   S    
C26   C30   D    
C57   C58   S    
C12   O3    S    
C27   C37   S    
C34   H53   S    
C13   N1    Am   
C31   C32   A    
C5    O11   S    
C59   H57   S    
C40   H48   S    
C2    H15   S    
O22   P6    S    
C17   H36   S    
C23   H52   S    
C58   H59   S    
Ba2   O12   S    
C62   H66   S    
O9    P5    S    
C61   C62   S    
C38   H49   S    
C20   H35   S    
C40   C41   A    
C55   H10   S    
C1    C2    S    
C35   H41   S    
C50   C51   T    
C37   H44   S    
C60   H62   S    
C26   H40   S    
C58   H58   S    
C38   C39   A    
C14   C20   A    
C33   C35   A    
C18   C19   A    
C6    H26   S    
C9    C32   A    
Ba1   O13   S    
C12   H43   S    
C45   H3    S    
Ba2   O5    S    
C53   C57   S    
C13   O19   D    
C18   C25   A    
C23   H51   S    
Ba1   P1    S    
Ba2   P4    S    
C44   H45   S    
O6    P8    S    
C31   C36   A    
C52   H50   S    
C25   O21   D    
C57   H61   S    
C3    H18   S    
C9    C33   A    
C34   O7    S    
C59   H55   S    
Ba1   P2    S    
C7    H29   S    
C2    O25   S    
C56   H14   S    
C55   C56   S    
C3    C4    S    
C54   H8    S    
Ba1   Ba2   S    
C2    H1    S    
C62   H67   S    
C11   O18   D    
C28   C37   D    
C6    H28   S    
O13   P2    S    
C29   H39   S    
C12   C23   S    
C12   H33   S    
Ba1   O27   S    
C4    H21   S    
C25   N2    Am   
O14   P7    D    
C5    H24   S    
C10   C11   A    
C8    H32   S    
C47   C48   A    
C19   C22   A    
C10   C16   A    
O7    P4    S    
O17   P8    S    
Ba1   O26   S    
C58   C59   S    
Ba1   O1    S    
O15   P7    S    
C11   N1    Am   
C13   C14   A    
C33   P1    S    
C21   O29   S    
Ba2   O14   S    
