data_mof_unit_68055.cif
_audit_creation_date              2013-03-05T15:43:52-0500
_audit_creation_method            fapswitch 2.2
_symmetry_space_group_name_H-M    P1
_symmetry_Int_Tables_number       1
_space_group_crystal_system       triclinic
_cell_length_a                    7.29387
_cell_length_b                    14.865914
_cell_length_c                    16.413728
_cell_angle_alpha                 90.15086
_cell_angle_beta                  97.881445
_cell_angle_gamma                 90.20473
_cell_volume                      1762.90966112

loop_
_atom_site_label
_atom_site_type_symbol
_atom_site_description
_atom_site_fract_x
_atom_site_fract_y
_atom_site_fract_z
_atom_type_partial_charge
O1    O     O_R   0.525340 0.338340 0.164530 -0.578620
O2    O     O_R   0.474660 0.661660 0.835470 -0.576598
O3    O     O_R   0.974660 0.838340 0.835470 -0.573303
O4    O     O_R   0.025340 0.161660 0.164530 -0.577898
O5    O     O_R   0.253520 0.352000 0.336710 -0.575120
O6    O     O_R   0.746480 0.648000 0.663290 -0.573799
O7    O     O_R   0.246480 0.852000 0.663290 -0.574897
O8    O     O_R   0.753520 0.148000 0.336710 -0.568313
O9    O     O_R   0.083330 0.168380 0.337300 -0.553547
O10   O     O_R   0.916670 0.831620 0.662700 -0.551684
O11   O     O_R   0.416670 0.668380 0.662700 -0.551356
O12   O     O_R   0.583330 0.331620 0.337300 -0.553627
C1    C     C_R   0.433588 0.367866 0.364371 0.791161
C2    C     C_R   0.566071 0.631032 0.636300 0.791371
C3    C     C_R   0.066668 0.868523 0.635993 0.791150
C4    C     C_R   0.933479 0.131242 0.363915 0.788969
O13   O     O_R   0.195840 0.349670 0.165140 -0.578889
O14   O     O_R   0.804160 0.650330 0.834860 -0.579209
O15   O     O_R   0.304160 0.849670 0.834860 -0.575695
O16   O     O_R   0.695840 0.150330 0.165140 -0.568104
C5    C     C_R   0.358874 0.367152 0.136146 0.813280
C6    C     C_R   0.640019 0.629780 0.861624 0.813927
C7    C     C_R   0.140954 0.870561 0.862396 0.802457
C8    C     C_R   0.858629 0.130804 0.137435 0.804767
O17   O     O_3   0.387830 0.193120 0.250910 -0.297024
O18   O     O_3   0.612170 0.806880 0.749090 -0.308063
O19   O     O_3   0.112170 0.693120 0.749090 -0.309106
O20   O     O_3   0.887830 0.306880 0.250910 -0.310183
V1    V     V_3+5 0.113010 0.264540 0.250910 1.082833
V2    V     V_3+5 0.886990 0.735460 0.749090 1.080405
V3    V     V_3+5 0.386990 0.764540 0.749090 1.081834
V4    V     V_3+5 0.613010 0.235460 0.250910 1.093340
C9    C     C_R   0.996888 0.185831 0.536494 -0.092752
C10   C     C_R   0.009278 0.813637 0.463959 -0.093678
C11   C     C_R   0.507618 0.685198 0.463263 -0.094963
C12   C     C_R   0.488936 0.313071 0.535376 -0.092951
C13   C     C_R   0.011318 0.216354 0.618339 0.058336
C14   C     C_R   0.995933 0.783082 0.382348 0.061064
C15   C     C_R   0.496885 0.714116 0.381005 0.059531
C16   C     C_R   0.503386 0.282026 0.616518 0.060263
C17   C     C_R   0.026098 0.153183 0.683242 0.036589
C18   C     C_R   0.981462 0.846357 0.317700 0.035107
C19   C     C_R   0.487917 0.649277 0.317340 0.035527
C20   C     C_R   0.513611 0.344934 0.681801 0.037301
C21   C     C_R   0.033457 0.061205 0.664421 -0.098486
C22   C     C_R   0.968377 0.938150 0.335533 -0.102632
C23   C     C_R   0.478059 0.558141 0.336487 -0.100705
C24   C     C_R   0.522785 0.437358 0.664563 -0.103879
C25   C     C_R   0.021119 0.029609 0.582750 0.012162
C26   C     C_R   0.980502 0.969996 0.417168 0.015455
C27   C     C_R   0.483927 0.528152 0.417953 0.012823
C28   C     C_R   0.514063 0.469498 0.583145 0.012833
C29   C     C_R   0.996754 0.093211 0.517034 -0.005535
C30   C     C_R   0.006800 0.906399 0.483044 -0.006090
C31   C     C_R   0.506180 0.592511 0.483364 -0.005394
C32   C     C_R   0.490385 0.405798 0.517111 -0.005473
C33   C     C_R   0.029141 0.935749 0.566439 -0.125879
C34   C     C_R   0.971813 0.063905 0.433486 -0.125412
C35   C     C_R   0.471814 0.434843 0.434105 -0.124350
C36   C     C_R   0.526378 0.563497 0.566891 -0.125414
H1    H     H_    0.982568 0.234667 0.487528 0.066839
H2    H     H_    0.024640 0.764663 0.512849 0.068324
H3    H     H_    0.518758 0.735116 0.511641 0.069539
H4    H     H_    0.476518 0.264325 0.486066 0.066457
H5    H     H_    0.045134 0.013574 0.714183 0.040274
H6    H     H_    0.954872 0.984905 0.284798 0.042756
H7    H     H_    0.469792 0.510091 0.286732 0.046914
H8    H     H_    0.535123 0.484276 0.715408 0.044667
C37   C     C_2   0.140700 0.934456 0.933538 -0.251870
C38   C     C_2   0.860231 0.072610 0.063737 -0.247630
C39   C     C_2   0.358226 0.422981 0.061379 -0.240058
C40   C     C_2   0.639194 0.567222 0.931811 -0.246655
C41   C     C_2   0.988343 0.961211 0.969568 0.039130
C42   C     C_2   0.005849 0.018167 0.048612 0.020324
C43   C     C_2   0.511275 0.459164 0.030394 0.026154
C44   C     C_2   0.486588 0.526110 0.959102 0.027429
H9    H     H_    0.742229 0.083313 0.017621 0.051628
H10   H     H_    0.273992 0.960499 0.956905 0.076003
H11   H     H_    0.777077 0.559732 0.963660 0.051228
H12   H     H_    0.219560 0.429923 0.030132 0.050728
C45   C     C_3   0.001646 0.817412 0.230493 -0.217480
C46   C     C_3   0.841886 0.840838 0.164859 -0.201576
C47   C     C_3   0.848215 0.783634 0.087232 -0.415166
H13   H     H_    0.972591 0.800383 0.058426 0.133402
H14   H     H_    0.853871 0.711296 0.102593 0.126306
H15   H     H_    0.724027 0.793929 0.041510 0.109918
H16   H     H_    0.709663 0.830447 0.188331 0.115840
H17   H     H_    0.852342 0.912559 0.149666 0.116915
H18   H     H_    0.126418 0.848103 0.214354 0.094979
H19   H     H_    0.025477 0.745425 0.225442 0.099031
C48   C     C_3   0.017453 0.182916 0.771993 -0.221404
C49   C     C_3   0.163231 0.140656 0.835597 -0.211360
C50   C     C_3   0.164434 0.182180 0.920934 -0.407205
H20   H     H_    0.201530 0.254556 0.920149 0.120798
H21   H     H_    0.026713 0.175491 0.941610 0.137361
H22   H     H_    0.268653 0.147549 0.965591 0.122311
H23   H     H_    0.138347 0.067978 0.838721 0.113181
H24   H     H_    0.299743 0.151490 0.816789 0.119068
H25   H     H_    0.037372 0.255799 0.780789 0.099468
H26   H     H_    0.877591 0.167992 0.786652 0.099046
C51   C     C_3   0.500334 0.313980 0.769338 -0.218866
C52   C     C_3   0.661493 0.342997 0.832681 -0.204638
C53   C     C_3   0.664791 0.290474 0.912774 -0.424780
H27   H     H_    0.539902 0.305441 0.941873 0.138393
H28   H     H_    0.668492 0.217091 0.901127 0.124931
H29   H     H_    0.791167 0.308240 0.955304 0.116176
H30   H     H_    0.790746 0.328660 0.808143 0.118261
H31   H     H_    0.651925 0.415765 0.844842 0.119191
H32   H     H_    0.368647 0.336422 0.787045 0.094427
H33   H     H_    0.494260 0.240897 0.774181 0.099909
C54   C     C_3   0.502673 0.675865 0.229056 -0.220658
C55   C     C_3   0.349862 0.638411 0.165679 -0.205329
C56   C     C_3   0.353042 0.683096 0.082475 -0.426937
H34   H     H_    0.221130 0.670306 0.042054 0.117432
H35   H     H_    0.370658 0.755946 0.089390 0.125919
H36   H     H_    0.472811 0.660085 0.054095 0.139843
H37   H     H_    0.363529 0.564938 0.159468 0.113270
H38   H     H_    0.216565 0.653138 0.186050 0.118973
H39   H     H_    0.494689 0.748620 0.220706 0.098702
H40   H     H_    0.639263 0.655939 0.214196 0.100840
C57   C     C_3   0.006422 0.315276 0.639583 -0.215795
C58   C     C_3   0.996323 0.383783 0.570873 -0.229165
C59   C     C_3   0.001578 0.477960 0.608769 -0.379724
H41   H     H_    0.890347 0.485196 0.647741 0.142873
H42   H     H_    0.137649 0.491264 0.646165 0.141125
H43   H     H_    0.977212 0.529721 0.561494 0.132468
H44   H     H_    0.115691 0.375619 0.536335 0.134428
H45   H     H_    0.865309 0.374400 0.528718 0.131656
H46   H     H_    0.884182 0.326046 0.671621 0.106497
H47   H     H_    0.134066 0.330918 0.681721 0.108259
C60   C     C_3   0.999802 0.684073 0.360680 -0.215789
C61   C     C_3   0.989359 0.614867 0.427353 -0.232160
C62   C     C_3   0.973319 0.521502 0.387394 -0.379051
H48   H     H_    0.848402 0.516813 0.340772 0.136643
H49   H     H_    0.097310 0.507517 0.357418 0.147394
H50   H     H_    0.961296 0.468705 0.432681 0.132420
H51   H     H_    0.116694 0.618512 0.472847 0.132864
H52   H     H_    0.866430 0.627787 0.458302 0.134704
H53   H     H_    0.878783 0.671565 0.313609 0.108015
H54   H     H_    0.128137 0.670416 0.333932 0.108675
C63   C     C_3   0.494919 0.812566 0.357072 -0.214293
C64   C     C_3   0.499123 0.883976 0.423032 -0.236973
C65   C     C_3   0.484514 0.976501 0.381507 -0.361605
H55   H     H_    0.585248 0.982975 0.336915 0.143378
H56   H     H_    0.343444 0.986699 0.348016 0.135191
H57   H     H_    0.514591 0.030699 0.427028 0.133057
H58   H     H_    0.381834 0.874502 0.458649 0.134901
H59   H     H_    0.631946 0.878835 0.464459 0.131562
H60   H     H_    0.617063 0.825299 0.325434 0.107371
H61   H     H_    0.367550 0.823912 0.313559 0.102453
C66   C     C_3   0.508444 0.182637 0.636705 -0.216103
C67   C     C_3   0.514653 0.114589 0.568137 -0.228624
C68   C     C_3   0.534488 0.020869 0.606393 -0.382871
H62   H     H_    0.660256 0.016755 0.652544 0.138192
H63   H     H_    0.411472 0.004533 0.636382 0.148620
H64   H     H_    0.547583 0.969616 0.559845 0.130208
H65   H     H_    0.384772 0.117756 0.524244 0.132597
H66   H     H_    0.634335 0.128744 0.535308 0.133728
H67   H     H_    0.634846 0.171746 0.681211 0.106761
H68   H     H_    0.384598 0.166181 0.665946 0.109855
C69   C     C_3   0.176187 0.015202 0.115584 -0.124396
C70   C     C_3   0.311787 0.937848 0.117038 -0.244602
C71   C     C_3   0.493218 0.967337 0.091622 -0.433707
H69   H     H_    0.476581 0.022538 0.046090 0.131802
H70   H     H_    0.585895 0.991303 0.146561 0.149178
H71   H     H_    0.552721 0.908216 0.065289 0.124467
H72   H     H_    0.351450 0.913541 0.180758 0.103502
H73   H     H_    0.247423 0.881892 0.079754 0.124560
H74   H     H_    0.253172 0.079700 0.114136 0.159378
H75   H     H_    0.125735 0.010814 0.176230 0.090987
C72   C     C_3   0.791497 0.944401 0.926137 -0.124650
C73   C     C_3   0.752435 0.009547 0.854031 -0.189671
C74   C     C_3   0.550084 0.014525 0.819083 -0.421414
H76   H     H_    0.507790 0.954918 0.781286 0.208806
H77   H     H_    0.463943 0.022074 0.869088 0.123286
H78   H     H_    0.530163 0.073431 0.778241 0.090578
H79   H     H_    0.794154 0.077306 0.877309 0.106867
H80   H     H_    0.833449 0.991665 0.804137 0.133853
H81   H     H_    0.757763 0.873558 0.910079 0.148748
H82   H     H_    0.689261 0.955785 0.967436 0.071629
C75   C     C_3   0.286741 0.545033 0.920167 -0.129040
C76   C     C_3   0.229556 0.475324 0.854082 -0.212914
C77   C     C_3   0.028401 0.482482 0.818895 -0.421672
H83   H     H_    0.004700 0.544004 0.781923 0.207868
H84   H     H_    0.993345 0.425035 0.777437 0.094392
H85   H     H_    0.940951 0.480997 0.868836 0.129056
H86   H     H_    0.314656 0.484246 0.803755 0.127471
H87   H     H_    0.251102 0.407742 0.882084 0.114197
H88   H     H_    0.189438 0.544361 0.965778 0.067387
H89   H     H_    0.254781 0.613842 0.898902 0.159863
C78   C     C_3   0.710534 0.441861 0.071176 -0.120860
C79   C     C_3   0.757486 0.511007 0.139447 -0.197858
C80   C     C_3   0.959441 0.513314 0.174848 -0.420583
H90   H     H_    0.993876 0.454807 0.214749 0.208702
H91   H     H_    0.047495 0.516553 0.125032 0.129903
H92   H     H_    0.983392 0.573503 0.214357 0.089535
H93   H     H_    0.722806 0.577803 0.112800 0.109858
H94   H     H_    0.674135 0.498116 0.189757 0.130794
H95   H     H_    0.741320 0.372294 0.091330 0.151841
H96   H     H_    0.811440 0.444767 0.027115 0.064585

loop_
_geom_bond_atom_site_label_1
_geom_bond_atom_site_label_2
_geom_bond_distance
_ccdc_geom_bond_type
C73   H79   1.103240 S    
C65   H57   1.098250 S    
C55   H38   1.093294 S    
C72   C73   1.528184 S    
O1    C5    1.313154 A    
C51   C52   1.519086 S    
O13   V1    2.045891 S    
C41   C42   1.537694 S    
C7    C37   1.503511 S    
O3    C7    1.320482 A    
C71   H69   1.107124 S    
C57   H47   1.104654 S    
C40   C44   1.395157 D    
O15   V3    2.043973 S    
C45   C46   1.516676 S    
C4    C34   1.518122 S    
C8    C38   1.486706 S    
C59   H41   1.105243 S    
C75   C76   1.513727 S    
C26   C30   1.431630 A    
C5    C39   1.482788 S    
O20   V1    1.761007 S    
C71   H70   1.107460 S    
O9    C4    1.348401 A    
C78   H95   1.101119 S    
C22   H6    1.080428 S    
C40   H11   1.074261 S    
O10   C3    1.348555 A    
C77   H84   1.097924 S    
C55   H37   1.102855 S    
O4    C8    1.316582 A    
O11   C2    1.347610 A    
C25   C29   1.429340 A    
C59   H42   1.109864 S    
C61   H52   1.106585 S    
C65   H55   1.110029 S    
C10   H2    1.079623 S    
C25   C33   1.422992 A    
C54   H39   1.091341 S    
C18   C22   1.401197 A    
C6    C40   1.483103 S    
C58   H44   1.109008 S    
C76   C77   1.505520 S    
C39   H12   1.074899 S    
C60   H54   1.106242 S    
C28   C36   1.428139 A    
C75   H88   1.099991 S    
C15   C63   1.515959 S    
C61   C62   1.530776 S    
C80   H91   1.107875 S    
C49   H23   1.097419 S    
C62   H50   1.093941 S    
C66   C67   1.516680 S    
C37   C41   1.387433 D    
O14   V2    2.045889 S    
C79   H94   1.107208 S    
C48   H26   1.101706 S    
C41   C72   1.532274 S    
C19   C23   1.395423 A    
C16   C20   1.414436 A    
O5    C1    1.349243 A    
O4    V1    2.119231 S    
C80   H90   1.099055 S    
O9    V1    2.047845 S    
C56   H36   1.100017 S    
C69   H74   1.111377 S    
O17   V4    1.756807 S    
O7    C3    1.350152 A    
O11   V3    2.043709 S    
O18   V3    1.756807 S    
C50   H21   1.107735 S    
C10   C14   1.403886 A    
C31   C36   1.426716 A    
O12   V4    2.043708 S    
C38   H9    1.077959 S    
C13   C17   1.415227 A    
C3    C33   1.516335 S    
C72   H81   1.103642 S    
C37   H10   1.066042 S    
C18   C45   1.520094 S    
C19   C54   1.520885 S    
C43   C78   1.537305 S    
C23   H7    1.078856 S    
C55   C56   1.523248 S    
C63   H61   1.105170 S    
C69   C70   1.517539 S    
O5    V1    2.075839 S    
C58   C59   1.528704 S    
C74   H77   1.105650 S    
C9    C29   1.412593 A    
C67   H66   1.106784 S    
O7    V3    2.085051 S    
C63   H60   1.106975 S    
C78   C79   1.521774 S    
C26   C34   1.424081 A    
O16   C8    1.360409 A    
C12   C16   1.401057 A    
C71   H71   1.095351 S    
C78   H96   1.101129 S    
C77   H85   1.105732 S    
C48   C49   1.522812 S    
O19   V2    1.761007 S    
O15   C7    1.366475 A    
C59   H43   1.091830 S    
C15   C19   1.414499 A    
C51   H33   1.090756 S    
C74   H76   1.099041 S    
C11   C31   1.418012 A    
O6    V2    2.075838 S    
O1    V4    2.127899 S    
O13   C5    1.364462 A    
C16   C66   1.514530 S    
O2    V3    2.127897 S    
O8    V4    2.085050 S    
O3    V2    2.119229 S    
C11   C15   1.410028 A    
C43   C44   1.530292 S    
C77   H83   1.099944 S    
C38   C42   1.386425 D    
C12   C32   1.411771 A    
C14   C60   1.514577 S    
C64   H59   1.107661 S    
O6    C2    1.352257 A    
C75   H89   1.097162 S    
O10   V2    2.047846 S    
C47   H13   1.106877 S    
C21   C25   1.410327 A    
C20   C51   1.525410 S    
C80   H92   1.102922 S    
C46   H16   1.097057 S    
C52   H30   1.096156 S    
C53   H28   1.108090 S    
C50   H20   1.109038 S    
C76   H87   1.108628 S    
C79   H93   1.102289 S    
C24   H8    1.080250 S    
C68   H64   1.091273 S    
C52   H31   1.103695 S    
C57   C58   1.516018 S    
C70   H73   1.096634 S    
C69   H75   1.109577 S    
C17   C48   1.530823 S    
C10   C30   1.414048 A    
C50   H22   1.110015 S    
C63   C64   1.511507 S    
C21   H5    1.077107 S    
C62   H48   1.108454 S    
C13   C57   1.512122 S    
C72   H82   1.087721 S    
C68   H63   1.107492 S    
C45   H19   1.089540 S    
C44   C75   1.536461 S    
C73   C74   1.510526 S    
C56   H34   1.106807 S    
O16   V4    2.043975 S    
C74   H78   1.102100 S    
C73   H80   1.105982 S    
C65   H56   1.109207 S    
C67   H65   1.109974 S    
O8    C4    1.351498 A    
C54   C55   1.519532 S    
C47   H14   1.104794 S    
O14   C6    1.364541 A    
C64   H58   1.109139 S    
C57   H46   1.107381 S    
C42   C69   1.542739 S    
C23   C27   1.405766 A    
C29   C34   1.425249 A    
C14   C18   1.413219 A    
C1    C35   1.511187 S    
C70   C71   1.505211 S    
C2    C36   1.513640 S    
C22   C26   1.411118 A    
C32   C35   1.419145 A    
C66   H68   1.106403 S    
C61   H51   1.110126 S    
C45   H18   1.081834 S    
O2    C6    1.314058 A    
C79   C80   1.507785 S    
C39   C43   1.395351 D    
C28   C32   1.429475 A    
C46   H17   1.100372 S    
C49   C50   1.528095 S    
C53   H29   1.107946 S    
C27   C31   1.428334 A    
C76   H86   1.107170 S    
C58   H45   1.108408 S    
C52   C53   1.528167 S    
C9    C13   1.406880 A    
C60   H53   1.105304 S    
C49   H24   1.093658 S    
C70   H72   1.108108 S    
C20   C24   1.406736 A    
C24   C28   1.413675 A    
C47   H15   1.105576 S    
C27   C35   1.417624 A    
O12   C1    1.347856 A    
C9    H1    1.079120 S    
C46   C47   1.536058 S    
C53   H27   1.107984 S    
C62   H49   1.107272 S    
C17   C21   1.403844 A    
C64   C65   1.534229 S    
C54   H40   1.099159 S    
C11   H3    1.080080 S    
C67   C68   1.528871 S    
C48   H25   1.099165 S    
C68   H62   1.108660 S    
C12   H4    1.079222 S    
C51   H32   1.093932 S    
C60   C61   1.513300 S    
C66   H67   1.107638 S    
C56   H35   1.093897 S    
C30   C33   1.423295 A    
