data_mof_unit_50955.cif
_audit_creation_date              2012-12-11T16:45:46-0500
_audit_creation_method            fapswitch 2.2
_symmetry_space_group_name_H-M    P1
_symmetry_Int_Tables_number       1
_space_group_crystal_system       triclinic
_cell_length_a                    19.930356
_cell_length_b                    17.13585
_cell_length_c                    15.371577
_cell_angle_alpha                 90.000223
_cell_angle_beta                  52.550869
_cell_angle_gamma                 90.000359
_cell_volume                      4167.74733022

loop_
_atom_site_label
_atom_site_type_symbol
_atom_type_description
_atom_site_fract_x
_atom_site_fract_y
_atom_site_fract_z
_atom_type_partial_charge
C1    C     C_R   0.843660 0.676404 0.038855 0.751488
C2    C     C_R   0.148169 0.309176 0.070605 -0.216722
C3    C     C_R   0.351837 0.809171 0.929386 -0.216759
C4    C     C_R   0.648182 0.809182 0.070590 -0.216667
C5    C     C_R   0.887706 0.683358 0.305609 0.051362
C6    C     C_R   0.112287 0.683361 0.694394 0.051331
C7    C     C_R   0.387713 0.183361 0.305606 0.051354
C8    C     C_R   0.612287 0.183361 0.694394 0.051337
C9    C     C_R   0.839514 0.706733 0.492860 -0.246539
C10   C     C_R   0.160478 0.706737 0.507142 -0.246507
C11   C     C_R   0.339511 0.206733 0.492862 -0.246541
C12   C     C_R   0.156352 0.676395 0.961124 0.751404
C13   C     C_R   0.660467 0.206740 0.507147 -0.246523
C14   C     C_R   0.867075 0.737018 0.391651 0.086005
C15   C     C_R   0.132920 0.737022 0.608351 0.086038
C16   C     C_R   0.367078 0.237019 0.391651 0.086033
C17   C     C_R   0.632917 0.237022 0.608354 0.086015
C18   C     C_R   0.363173 0.318117 0.381854 -0.319852
C19   C     C_R   0.636833 0.318119 0.618151 -0.319855
C20   C     C_R   0.863168 0.818116 0.381852 -0.319880
C21   C     C_R   0.136831 0.818119 0.618150 -0.319844
C22   C     C_R   0.315068 0.364110 0.476736 0.864449
C23   C     C_R   0.343654 0.176399 0.038866 0.751436
C24   C     C_R   0.684939 0.364111 0.523269 0.864450
C25   C     C_R   0.815065 0.864110 0.476734 0.864454
C26   C     C_R   0.184935 0.864113 0.523267 0.864444
C27   C     C_R   0.268763 0.327664 0.580464 -0.032651
C28   C     C_R   0.731234 0.327667 0.419540 -0.032663
C29   C     C_R   0.768764 0.827666 0.580463 -0.032677
C30   C     C_R   0.231234 0.827668 0.419538 -0.032651
C31   C     C_R   0.790558 0.751112 0.585984 -0.219630
C32   C     C_R   0.209435 0.751116 0.414018 -0.219774
C33   C     C_R   0.290553 0.251112 0.585986 -0.219720
C34   C     C_R   0.656345 0.176400 0.961136 0.751454
C35   C     C_R   0.709426 0.251119 0.414022 -0.219690
C36   C     C_3   0.737939 0.681918 0.653737 0.577160
C37   C     C_3   0.262051 0.681920 0.346262 0.577239
C38   C     C_3   0.237918 0.181921 0.653730 0.577225
C39   C     C_3   0.762034 0.181920 0.346265 0.577183
C40   C     C_R   0.848580 0.332125 0.217807 -0.116057
C41   C     C_R   0.151421 0.332129 0.782195 -0.116119
C42   C     C_R   0.348578 0.832130 0.217806 -0.116101
C43   C     C_R   0.651421 0.832128 0.782194 -0.116074
C44   C     C_3   0.792095 0.633312 0.551312 0.691858
C45   C     C_R   0.807702 0.361698 0.322433 -0.082220
C46   C     C_3   0.207894 0.633315 0.448686 0.691857
C47   C     C_3   0.292075 0.133316 0.551307 0.691856
C48   C     C_3   0.707878 0.133316 0.448690 0.691845
C49   C     C_2   0.769919 0.191699 0.982808 0.485914
C50   C     C_2   0.230061 0.191684 0.017220 0.485994
C51   C     C_2   0.269974 0.691659 0.982733 0.486018
C52   C     C_2   0.730109 0.691717 0.017148 0.485857
C53   C     C_2   0.313948 0.748221 0.907417 0.697031
C54   C     C_2   0.686092 0.748236 0.092519 0.696995
C55   C     C_2   0.813924 0.248231 0.907453 0.697024
C56   C     C_R   0.192300 0.361703 0.677571 -0.082190
C57   C     C_2   0.186070 0.248229 0.092557 0.697019
C58   C     C_R   0.867783 0.386388 0.895350 0.804999
C59   C     C_R   0.132216 0.386387 0.104651 0.805005
C60   C     C_R   0.367787 0.886384 0.895345 0.805037
C61   C     C_R   0.632223 0.886390 0.104643 0.804984
C62   C     C_R   0.908703 0.606962 0.302335 0.068110
C63   C     C_R   0.091292 0.606965 0.697667 0.068140
C64   C     C_R   0.408708 0.106965 0.302333 0.068109
C65   C     C_R   0.591292 0.106965 0.697668 0.068151
C66   C     C_R   0.880946 0.298181 0.988836 -0.199763
C67   C     C_R   0.307699 0.861704 0.322431 -0.082209
C68   C     C_R   0.119056 0.298181 0.011160 -0.199816
C69   C     C_R   0.380948 0.798179 0.988835 -0.199873
C70   C     C_R   0.619059 0.798183 0.011157 -0.199725
C71   C     C_R   0.897138 0.697954 0.210232 -0.010048
C72   C     C_R   0.102856 0.697956 0.789771 -0.010017
C73   C     C_R   0.397144 0.197956 0.210229 -0.010012
C74   C     C_R   0.602857 0.197956 0.789771 -0.010039
C75   C     C_R   0.859531 0.419537 0.316270 0.829777
C76   C     C_R   0.140473 0.419541 0.683732 0.829797
C77   C     C_R   0.359527 0.919542 0.316269 0.829769
C78   C     C_R   0.692300 0.861702 0.677569 -0.082216
C79   C     C_R   0.640473 0.919540 0.683730 0.829780
C80   C     C_R   0.833164 0.582420 0.945873 -0.142309
C81   C     C_R   0.166857 0.582403 0.054087 -0.142268
C82   C     C_R   0.333153 0.082412 0.945894 -0.142293
C83   C     C_R   0.666843 0.082415 0.054112 -0.142295
C84   C     C_R   0.793776 0.647873 0.011561 -0.184440
C85   C     C_R   0.206254 0.647852 0.988385 -0.184528
C86   C     C_R   0.293761 0.147863 0.011590 -0.184490
C87   C     C_R   0.706234 0.147867 0.988419 -0.184466
C88   C     C_R   0.851829 0.309178 0.929395 -0.216703
F1    F     F_    0.840678 0.748402 0.077397 -0.664299
F2    F     F_    0.344930 0.686639 0.309808 -0.598773
F3    F     F_    0.155047 0.186661 0.690162 -0.598788
F4    F     F_    0.844915 0.186632 0.309804 -0.598782
F5    F     F_    0.746873 0.604505 0.516702 -0.537547
F6    F     F_    0.253117 0.604504 0.483293 -0.537542
F7    F     F_    0.246858 0.104525 0.516679 -0.537561
F8    F     F_    0.753104 0.104500 0.483290 -0.537532
F9    F     F_    0.769769 0.183336 0.071038 -0.726753
F10   F     F_    0.230172 0.183286 0.929033 -0.726763
F11   F     F_    0.269900 0.683222 0.070887 -0.726743
F12   F     F_    0.159338 0.748394 0.922577 -0.664251
F13   F     F_    0.730303 0.683390 0.928873 -0.726745
F14   F     F_    0.316386 0.754241 0.817267 -0.589321
F15   F     F_    0.683590 0.754190 0.182728 -0.589353
F16   F     F_    0.816404 0.254206 0.817265 -0.589345
F17   F     F_    0.183609 0.254224 0.182727 -0.589335
F18   F     F_    0.866647 0.416645 0.814805 -0.638900
F19   F     F_    0.133348 0.416643 0.185198 -0.638880
F20   F     F_    0.366657 0.916639 0.814795 -0.638876
F21   F     F_    0.633362 0.916647 0.185185 -0.638903
F22   F     F_    0.850194 0.456119 0.401000 -0.640739
F23   F     F_    0.340672 0.248398 0.077410 -0.664267
F24   F     F_    0.149813 0.456122 0.599000 -0.640730
F25   F     F_    0.350188 0.956123 0.401003 -0.640749
F26   F     F_    0.649812 0.956122 0.598998 -0.640716
F27   F     F_    0.659328 0.248399 0.922592 -0.664288
F28   F     F_    0.308161 0.441663 0.466413 -0.586124
F29   F     F_    0.691854 0.441663 0.533592 -0.586126
F30   F     F_    0.808157 0.941664 0.466411 -0.586111
F31   F     F_    0.191844 0.941666 0.533591 -0.586141
F32   F     F_    0.655061 0.686642 0.690186 -0.598790
H1    H     H_    0.894684 0.243312 0.009747 0.222724
H2    H     H_    0.255526 0.666108 0.281590 0.023905
H3    H     H_    0.244425 0.166096 0.718412 0.023900
H4    H     H_    0.755502 0.166112 0.281599 0.023960
H5    H     H_    0.830998 0.588910 0.554907 0.002341
H6    H     H_    0.168987 0.588916 0.445091 0.002318
H7    H     H_    0.330963 0.088903 0.554914 0.002371
H8    H     H_    0.668967 0.088919 0.445099 0.002311
H9    H     H_    0.825548 0.288032 0.192116 0.173012
H10   H     H_    0.174451 0.288035 0.807886 0.172976
H11   H     H_    0.325547 0.788036 0.192116 0.172969
H12   H     H_    0.105314 0.243314 0.990248 0.222764
H13   H     H_    0.674452 0.788035 0.807884 0.173026
H14   H     H_    0.924046 0.580283 0.351921 0.145196
H15   H     H_    0.075949 0.580284 0.648082 0.145194
H16   H     H_    0.424052 0.080285 0.351919 0.145185
H17   H     H_    0.575945 0.080285 0.648084 0.145188
H18   H     H_    0.898777 0.754773 0.178627 0.184264
H19   H     H_    0.101212 0.754775 0.821379 0.184258
H20   H     H_    0.398785 0.254774 0.178622 0.184261
H21   H     H_    0.601214 0.254774 0.821379 0.184259
H22   H     H_    0.814683 0.549794 0.903390 0.234017
H23   H     H_    0.394702 0.743314 0.009735 0.222823
H24   H     H_    0.185355 0.549763 0.096539 0.234062
H25   H     H_    0.314663 0.049777 0.903428 0.234039
H26   H     H_    0.685330 0.049785 0.096585 0.234035
H27   H     H_    0.605326 0.743312 0.990240 0.222664
H28   H     H_    0.390191 0.344721 0.303076 0.180438
H29   H     H_    0.609826 0.344721 0.696927 0.180439
H30   H     H_    0.890183 0.844720 0.303075 0.180442
H31   H     H_    0.109818 0.844723 0.696926 0.180436
H32   H     H_    0.744460 0.666103 0.718409 0.023976
N1    N     N_R   0.908660 0.628630 0.995840 -0.130958
N2    N     N_R   0.096530 0.421430 0.063580 -0.131668
N3    N     N_R   0.403470 0.921430 0.936420 -0.131668
N4    N     N_R   0.596530 0.921430 0.063580 -0.131666
N5    N     N_R   0.927500 0.575670 0.211370 -0.082196
N6    N     N_R   0.072500 0.575670 0.788630 -0.082202
N7    N     N_R   0.427500 0.075670 0.211370 -0.082195
N8    N     N_R   0.572500 0.075670 0.788630 -0.082201
N9    N     N_R   0.908660 0.365680 0.995820 -0.088294
N10   N     N_R   0.091340 0.365680 0.004180 -0.088294
N11   N     N_R   0.408660 0.865680 0.995820 -0.088298
N12   N     N_R   0.091340 0.628630 0.004160 -0.130950
N13   N     N_R   0.591340 0.865680 0.004180 -0.088288
N14   N     N_R   0.922310 0.631420 0.151980 -0.078028
N15   N     N_R   0.077690 0.631420 0.848020 -0.078032
N16   N     N_R   0.422310 0.131420 0.151980 -0.078030
N17   N     N_R   0.577690 0.131420 0.848020 -0.078029
N18   N     N_R   0.927500 0.426330 0.211360 -0.139145
N19   N     N_R   0.072500 0.426330 0.788640 -0.139144
N20   N     N_R   0.427500 0.926330 0.211360 -0.139142
N21   N     N_R   0.572500 0.926330 0.788640 -0.139146
N22   N     N_R   0.903470 0.570760 0.936440 -0.106033
N23   N     N_R   0.408660 0.128630 0.995840 -0.130953
N24   N     N_R   0.096530 0.570760 0.063560 -0.106043
N25   N     N_R   0.403470 0.070760 0.936440 -0.106041
N26   N     N_R   0.596530 0.070760 0.063560 -0.106037
N27   N     N_R   0.591340 0.128630 0.004160 -0.130955
N28   N     N_R   0.922310 0.368460 0.151950 -0.084117
N29   N     N_R   0.077690 0.368460 0.848050 -0.084103
N30   N     N_R   0.422310 0.868460 0.151950 -0.084103
N31   N     N_R   0.577690 0.868460 0.848050 -0.084112
N32   N     N_R   0.903470 0.421430 0.936420 -0.131665
Ni1   Ni    Ni4+2 0.000000 0.630300 0.000000 0.258590
Ni2   Ni    Ni4+2 0.500000 0.130300 0.000000 0.258592
Ni3   Ni    Ni4+2 0.000000 0.369700 0.000000 0.233335
Ni4   Ni    Ni4+2 0.500000 0.869700 0.000000 0.233339
Ni5   Ni    Ni4+2 0.988090 0.497570 0.863760 0.273138
Ni6   Ni    Ni4+2 0.011910 0.497570 0.136240 0.273128
Ni7   Ni    Ni4+2 0.488090 0.997570 0.863760 0.273127
Ni8   Ni    Ni4+2 0.511910 0.997570 0.136240 0.273133

loop_
_geom_bond_atom_site_label_1
_geom_bond_atom_site_label_2
_ccdc_geom_bond_type
C57   F17   S    
C40   H9    S    
C64   H16   S    
N25   Ni7   S    
N14   Ni1   S    
C49   C87   S    
C11   C47   S    
C67   C77   A    
C21   C26   A    
C61   F21   S    
C25   F30   S    
C51   C85   S    
C4    C70   A    
N26   N27   A    
N29   Ni3   S    
C2    C57   S    
N23   N25   A    
N27   Ni2   S    
N20   Ni8   S    
C43   C78   A    
C6    C72   A    
C24   F29   S    
C37   F2    S    
C56   C76   A    
N4    N13   A    
C3    C69   A    
N17   Ni2   S    
C13   C35   A    
C18   H28   S    
C10   C15   A    
C73   N16   A    
C66   C88   A    
C41   H10   S    
C62   N5    A    
C23   N23   A    
C20   C25   A    
C42   N30   A    
N15   Ni1   S    
C81   C85   A    
N7    N16   A    
N19   Ni5   S    
C58   N32   A    
C55   C88   S    
C68   H12   S    
C79   N21   A    
N5    Ni6   S    
C74   N17   A    
C44   F5    S    
C46   H6    S    
C17   C19   A    
C6    C15   S    
C40   N28   A    
C72   H19   S    
C4    C54   S    
C29   C78   S    
C28   C35   A    
C20   H30   S    
C75   F22   S    
C23   C86   A    
C82   N25   A    
C10   C46   S    
N8    N17   A    
C42   H11   S    
N9    Ni3   S    
C24   C28   A    
C30   C67   S    
C60   F20   S    
C80   C84   A    
C65   H17   S    
C3    C60   A    
C22   F28   S    
N2    Ni6   S    
C8    C65   A    
C18   C22   A    
C25   C29   A    
C41   N29   A    
C34   N27   A    
C65   N8    A    
C77   F25   S    
C59   N2    A    
C52   C54   D    
N6    N15   A    
C71   H18   S    
C81   H24   S    
C51   F11   S    
C40   C45   A    
C52   F13   S    
C28   C45   S    
C50   F10   S    
N13   Ni4   S    
N16   Ni2   S    
C81   N24   A    
C14   C20   A    
C54   F15   S    
C11   C33   A    
C26   F31   S    
C7    C73   A    
N12   Ni1   S    
N6    Ni5   S    
C50   C86   S    
C78   C79   A    
C36   H32   S    
N1    N22   A    
N3    N11   A    
C34   F27   S    
C82   C86   A    
C38   F3    S    
C71   N14   A    
C27   C33   A    
C39   H4    S    
C51   C53   D    
C66   N9    A    
N18   N28   A    
N11   Ni4   S    
C1    C84   A    
C63   H15   S    
C6    C63   A    
C76   N19   A    
C35   C39   S    
C9    C14   A    
C41   C56   A    
N28   Ni3   S    
N20   N30   A    
C12   N12   A    
C83   H26   S    
N26   Ni8   S    
C11   C16   A    
N24   Ni6   S    
C46   F6    S    
C53   F14   S    
C76   F24   S    
C83   C87   A    
C75   N18   A    
C8    C74   A    
C5    C14   S    
C66   H1    S    
N30   Ni4   S    
C32   C37   S    
C27   C56   S    
C1    N1    A    
C38   C47   S    
N3    Ni7   S    
C12   C85   A    
C16   C18   A    
C7    C16   S    
C74   H21   S    
C26   C30   A    
C80   H22   S    
C22   C27   A    
C42   C67   A    
C72   N15   A    
C70   N13   A    
C61   N4    A    
N4    Ni8   S    
C39   F4    S    
C82   H25   S    
C9    C44   S    
C1    F1    S    
C48   F8    S    
C83   N26   A    
C69   N11   A    
C2    C59   A    
C50   C57   D    
N7    Ni8   S    
N19   N29   A    
C38   H3    S    
N8    Ni7   S    
C58   C88   A    
N5    N14   A    
C13   C48   S    
C44   H5    S    
C47   H7    S    
C70   H27   S    
C73   H20   S    
C68   N10   A    
C69   H23   S    
C23   F23   S    
N18   Ni6   S    
C2    C68   A    
C33   C38   S    
C13   C17   A    
C45   C75   A    
C62   H14   S    
N9    N32   A    
C52   C84   S    
C19   C24   A    
C60   N3    A    
C80   N22   A    
C29   C31   A    
C49   C55   D    
N31   Ni4   S    
C8    C17   S    
C30   C32   A    
C3    C53   S    
N10   Ni3   S    
N1    Ni1   S    
C48   H8    S    
C55   F16   S    
C77   N20   A    
C4    C61   A    
C64   N7    A    
C43   N31   A    
C19   H29   S    
N21   Ni7   S    
C5    C62   A    
N12   N24   A    
C34   C87   A    
C21   H31   S    
C36   F32   S    
C59   F19   S    
C7    C64   A    
C12   F12   S    
C36   C44   S    
C9    C31   A    
N22   Ni5   S    
C49   F9    S    
C37   H2    S    
C10   C32   A    
C15   C21   A    
N21   N31   A    
C5    C71   A    
C79   F26   S    
C47   F7    S    
C31   C36   S    
C43   H13   S    
C63   N6    A    
C58   F18   S    
C37   C46   S    
N32   Ni5   S    
N2    N10   A    
C39   C48   S    
N23   Ni2   S    
