data_mof_unit_51922.cif
_audit_creation_date              2012-12-11T15:24:02-0500
_audit_creation_method            fapswitch 2.2
_symmetry_space_group_name_H-M    P1
_symmetry_Int_Tables_number       1
_space_group_crystal_system       triclinic
_cell_length_a                    17.33649
_cell_length_b                    24.390778
_cell_length_c                    14.953119
_cell_angle_alpha                 90.324708
_cell_angle_beta                  125.502525
_cell_angle_gamma                 89.449665
_cell_volume                      5147.19901321

loop_
_atom_site_label
_atom_site_type_symbol
_atom_type_description
_atom_site_fract_x
_atom_site_fract_y
_atom_site_fract_z
_atom_type_partial_charge
C1    C     C_R   0.315955 0.369745 0.906871 -0.135019
C2    C     C_R   0.682757 0.367532 0.090458 -0.127156
C3    C     C_R   0.812507 0.874110 0.907177 -0.130003
C4    C     C_R   0.179027 0.863724 0.091691 -0.128101
C5    C     C_R   0.390936 0.685491 0.000207 0.047552
C6    C     C_R   0.614626 0.683557 0.997954 0.045006
C7    C     C_R   0.887940 0.184995 0.999853 0.042962
C8    C     C_R   0.127241 0.177964 0.001686 0.056980
C9    C     C_R   0.457326 0.501021 0.283648 0.041078
C10   C     C_R   0.436060 0.500337 0.634040 0.047485
C11   C     C_R   0.064078 0.999994 0.366006 0.044633
C12   C     C_R   0.042138 0.999929 0.715721 0.041573
C13   C     C_R   0.202985 0.499196 0.631948 0.136276
C14   C     C_R   0.825652 0.499847 0.310897 0.135826
C15   C     C_R   0.703281 0.999328 0.631627 0.137476
C16   C     C_R   0.325777 0.999720 0.309088 0.137702
C17   C     C_2   0.978082 0.459081 0.378107 -0.112545
C18   C     C_2   0.079810 0.455052 0.462980 -0.112574
C19   C     C_2   0.478532 0.959088 0.376898 -0.114683
C20   C     C_2   0.580169 0.955188 0.462419 -0.113142
C21   C     C_2   0.927506 0.500244 0.380647 -0.196867
C22   C     C_2   0.129474 0.500172 0.514783 -0.195844
C23   C     C_2   0.427632 0.000265 0.378718 -0.196646
C24   C     C_2   0.629650 0.000348 0.514455 -0.195783
C25   C     C_R   0.310318 0.774585 0.908873 0.236182
C26   C     C_R   0.681456 0.777484 0.080015 0.236519
C27   C     C_R   0.812105 0.275681 0.907921 0.235556
C28   C     C_R   0.264787 0.211196 0.016096 0.197998
C29   C     C_R   0.750477 0.313884 0.906220 -0.206822
C30   C     C_R   0.311527 0.255821 0.013364 -0.205137
C31   C     C_R   0.244365 0.808797 0.907217 -0.212759
C32   C     C_R   0.738897 0.818435 0.082071 -0.216570
C33   C     C_R   0.757004 0.324710 0.002627 0.102802
C34   C     C_R   0.271506 0.307808 0.995645 0.084635
C35   C     C_R   0.249573 0.816747 0.003646 0.106832
C36   C     C_R   0.741602 0.825832 0.991001 0.103709
C37   C     C_R   0.835096 0.304696 0.102920 -0.170692
C38   C     C_R   0.184864 0.317671 0.978314 -0.175135
C39   C     C_R   0.329943 0.798659 0.104022 -0.175789
C40   C     C_R   0.678935 0.796961 0.894040 -0.168430
C41   C     C_R   0.392104 0.762889 0.104879 -0.192285
C42   C     C_R   0.628403 0.754276 0.894238 -0.194015
C43   C     C_R   0.890695 0.263923 0.103506 -0.192602
C44   C     C_R   0.137329 0.273958 0.981352 -0.201484
C45   C     C_R   0.448233 0.652396 0.090496 -0.128496
C46   C     C_R   0.554622 0.650959 0.908220 -0.117824
C47   C     C_R   0.946147 0.152007 0.090560 -0.103928
C48   C     C_R   0.062038 0.149381 0.909652 -0.164193
C49   C     C_R   0.372439 0.743834 0.005091 0.055618
C50   C     C_R   0.637285 0.740338 0.990533 0.054714
C51   C     C_R   0.869715 0.243636 0.003869 0.043732
C52   C     C_R   0.178015 0.221905 0.001468 0.038835
C53   C     C_R   0.398276 0.551321 0.470683 -0.173017
C54   C     C_R   0.403809 0.551570 0.382239 -0.169018
C55   C     C_R   0.097133 0.050066 0.619544 -0.169133
C56   C     C_R   0.102589 0.050065 0.531050 -0.171661
C57   C     C_R   0.414002 0.501817 0.342837 0.145103
C58   C     C_R   0.403126 0.501317 0.519577 0.145049
C59   C     C_R   0.097040 0.000301 0.480482 0.143471
C60   C     C_R   0.085626 0.000303 0.656740 0.148920
C61   C     C_R   0.396875 0.452386 0.375602 -0.172433
C62   C     C_R   0.392045 0.452080 0.464691 -0.170132
C63   C     C_R   0.107478 0.950742 0.533728 -0.171113
C64   C     C_R   0.102126 0.950783 0.622413 -0.176755
C65   C     C_R   0.490112 0.454777 0.260447 -0.121303
C66   C     C_R   0.451194 0.454309 0.696318 -0.138638
C67   C     C_R   0.048685 0.954113 0.303102 -0.139386
C68   C     C_R   0.009883 0.954155 0.739298 -0.121482
C69   C     C_R   0.247248 0.544901 0.695632 -0.147218
C70   C     C_R   0.768506 0.545792 0.269996 -0.143270
C71   C     C_R   0.747383 0.044967 0.695583 -0.145219
C72   C     C_R   0.268644 0.045665 0.269422 -0.151513
C73   C     C_R   0.482499 0.546352 0.250789 -0.130884
C74   C     C_R   0.453733 0.545627 0.698977 -0.124206
C75   C     C_R   0.046548 0.045471 0.301646 -0.123565
C76   C     C_R   0.016429 0.045608 0.748143 -0.132948
C77   C     C_R   0.248494 0.453639 0.696549 -0.121468
C78   C     C_R   0.768844 0.453928 0.274767 -0.127540
C79   C     C_R   0.748932 0.953773 0.696063 -0.127044
C80   C     C_R   0.268984 0.953801 0.272970 -0.124041
C81   C     C_R   0.353720 0.652176 0.908515 -0.137053
C82   C     C_R   0.648707 0.651500 0.090638 -0.144811
C83   C     C_R   0.852020 0.151731 0.908274 -0.136550
C84   C     C_R   0.153959 0.148954 0.093191 -0.161100
C85   C     C_R   0.410743 0.365356 0.090965 -0.144143
C86   C     C_R   0.594721 0.371050 0.907109 -0.136237
C87   C     C_R   0.903073 0.872703 0.091229 -0.133600
C88   C     C_R   0.088109 0.862664 0.908857 -0.138017
C89   C     C_R   0.323789 0.351580 0.998236 0.059912
C90   C     C_R   0.681579 0.353913 0.999543 0.061624
C91   C     C_R   0.814538 0.858590 0.997390 0.061072
C92   C     C_R   0.174385 0.845490 0.001154 0.062556
H1    H     H_    0.261120 0.360802 0.821647 0.102213
H2    H     H_    0.734549 0.355831 0.174158 0.082345
H3    H     H_    0.755119 0.870552 0.821348 0.093592
H4    H     H_    0.230448 0.852671 0.175960 0.081174
H5    H     H_    0.960332 0.534730 0.436425 0.131977
H6    H     H_    0.103842 0.540250 0.476762 0.131438
H7    H     H_    0.460189 0.034854 0.434258 0.132660
H8    H     H_    0.604029 0.040439 0.476506 0.131301
H9    H     H_    0.697275 0.334129 0.830001 0.120733
H10   H     H_    0.379106 0.251293 0.025284 0.145226
H11   H     H_    0.189448 0.828578 0.831230 0.116694
H12   H     H_    0.781937 0.843753 0.154452 0.124126
H13   H     H_    0.848707 0.315871 0.180799 0.107417
H14   H     H_    0.155488 0.358733 0.964184 0.130307
H15   H     H_    0.341819 0.808010 0.181753 0.108003
H16   H     H_    0.676049 0.802371 0.820536 0.111565
H17   H     H_    0.446873 0.744997 0.182984 0.117526
H18   H     H_    0.591154 0.728910 0.821460 0.120396
H19   H     H_    0.941792 0.244476 0.181374 0.116958
H20   H     H_    0.069629 0.280385 0.968659 0.141172
H21   H     H_    0.400398 0.590349 0.506500 0.104868
H22   H     H_    0.410027 0.590700 0.353523 0.107072
H23   H     H_    0.092103 0.089211 0.650033 0.107372
H24   H     H_    0.101090 0.089183 0.496530 0.105829
H25   H     H_    0.396513 0.413473 0.340377 0.109722
H26   H     H_    0.389123 0.412894 0.495908 0.105916
H27   H     H_    0.110159 0.911586 0.501464 0.107730
H28   H     H_    0.101622 0.911767 0.656038 0.102836
H29   H     H_    0.498385 0.665387 0.174477 0.080044
H30   H     H_    0.505637 0.663978 0.823859 0.079501
H31   H     H_    0.995192 0.164947 0.174799 0.079756
H32   H     H_    0.021864 0.163489 0.825504 0.098727
H33   H     H_    0.491891 0.413508 0.286198 0.086469
H34   H     H_    0.432409 0.412561 0.667609 0.083534
H35   H     H_    0.067037 0.912136 0.330732 0.085745
H36   H     H_    0.007897 0.912905 0.712820 0.083453
H37   H     H_    0.237500 0.586595 0.666298 0.088174
H38   H     H_    0.789852 0.588243 0.285912 0.096315
H39   H     H_    0.737540 0.086718 0.666495 0.090200
H40   H     H_    0.290341 0.088014 0.286152 0.092954
H41   H     H_    0.470425 0.589117 0.257892 0.094436
H42   H     H_    0.437906 0.588042 0.673865 0.081064
H43   H     H_    0.062339 0.087751 0.327588 0.083292
H44   H     H_    0.026806 0.088063 0.738952 0.090885
H45   H     H_    0.241334 0.411815 0.668627 0.080701
H46   H     H_    0.792008 0.412615 0.303808 0.086587
H47   H     H_    0.742041 0.912031 0.667822 0.082746
H48   H     H_    0.292386 0.912393 0.300765 0.085069
H49   H     H_    0.310507 0.664175 0.823264 0.085120
H50   H     H_    0.692489 0.664475 0.175386 0.084553
H51   H     H_    0.808129 0.163490 0.822912 0.087351
H52   H     H_    0.198924 0.162288 0.177793 0.095824
H53   H     H_    0.444027 0.348596 0.172218 0.095034
H54   H     H_    0.568172 0.365992 0.822023 0.094303
H55   H     H_    0.929316 0.865937 0.175832 0.095679
H56   H     H_    0.056368 0.849076 0.825952 0.084731
H57   H     H_    0.943051 0.424323 0.323477 0.121945
H58   H     H_    0.107216 0.414485 0.496428 0.115096
H59   H     H_    0.443781 0.924203 0.322560 0.122798
H60   H     H_    0.607621 0.914631 0.495893 0.115069
N1    N     N_R   0.395440 0.396300 0.944370 -0.041814
N2    N     N_R   0.604560 0.396300 0.055630 -0.040469
N3    N     N_R   0.895440 0.896300 0.944370 -0.041874
N4    N     N_R   0.104560 0.896300 0.055630 -0.039372
N5    N     N_R   0.449890 0.602500 0.055780 -0.038227
N6    N     N_R   0.550110 0.602500 0.944220 -0.037445
N7    N     N_R   0.949890 0.102500 0.055780 -0.040034
N8    N     N_R   0.050110 0.102500 0.944220 -0.035528
N9    N     N_R   0.525090 0.470990 0.205640 -0.039350
N10   N     N_R   0.474910 0.470990 0.794360 -0.036995
N11   N     N_R   0.025090 0.970990 0.205640 -0.038116
N12   N     N_R   0.974910 0.970990 0.794360 -0.038513
N13   N     N_R   0.320240 0.527820 0.794510 -0.039688
N14   N     N_R   0.679760 0.527820 0.205490 -0.042238
N15   N     N_R   0.820240 0.027820 0.794510 -0.040417
N16   N     N_R   0.179760 0.027820 0.205490 -0.040532
N17   N     N_R   0.524580 0.527810 0.205160 -0.041089
N18   N     N_R   0.475420 0.527810 0.794840 -0.037789
N19   N     N_R   0.024580 0.027810 0.205160 -0.039325
N20   N     N_R   0.975420 0.027810 0.794840 -0.038736
N21   N     N_R   0.320750 0.470990 0.794990 -0.042726
N22   N     N_R   0.679250 0.470990 0.205010 -0.043132
N23   N     N_R   0.820750 0.970990 0.794990 -0.044436
N24   N     N_R   0.179250 0.970990 0.205010 -0.042306
N25   N     N_R   0.393580 0.602500 0.942610 -0.036251
N26   N     N_R   0.606420 0.602500 0.057390 -0.034931
N27   N     N_R   0.893580 0.102500 0.942610 -0.036594
N28   N     N_R   0.106420 0.102500 0.057390 -0.034563
N29   N     N_R   0.451750 0.396300 0.057540 -0.039300
N30   N     N_R   0.548250 0.396300 0.942460 -0.040741
N31   N     N_R   0.951750 0.896300 0.057540 -0.040754
N32   N     N_R   0.048250 0.896300 0.942460 -0.038194
Ni1   Ni    Ni4+2 0.435420 0.434250 0.870220 0.207173
Ni2   Ni    Ni4+2 0.564580 0.434250 0.129780 0.212264
Ni3   Ni    Ni4+2 0.935420 0.934250 0.870220 0.210836
Ni4   Ni    Ni4+2 0.064580 0.934250 0.129780 0.210866
Ni5   Ni    Ni4+2 0.563400 0.564580 0.128670 0.207727
Ni6   Ni    Ni4+2 0.436600 0.564580 0.871330 0.205227
Ni7   Ni    Ni4+2 0.063400 0.064580 0.128670 0.207887
Ni8   Ni    Ni4+2 0.936600 0.064580 0.871330 0.207715
C93   C     C_3   0.314353 0.772392 0.810477 -0.431389
C94   C     C_3   0.333813 0.828837 0.783961 -0.861938
H61   H     H_    0.274333 0.857680 0.757864 0.252262
H62   H     H_    0.400355 0.845804 0.856965 0.264104
H63   H     H_    0.341892 0.825065 0.715748 0.245180
H64   H     H_    0.373036 0.745174 0.827063 0.197355
H65   H     H_    0.246328 0.756550 0.737954 0.184222
C95   C     C_3   0.666667 0.775605 0.170367 -0.431270
C96   C     C_3   0.623823 0.829191 0.177122 -0.859740
H66   H     H_    0.673510 0.863777 0.201569 0.253124
H67   H     H_    0.556202 0.838479 0.096500 0.265863
H68   H     H_    0.608819 0.825133 0.239586 0.244314
H69   H     H_    0.615900 0.743164 0.154733 0.198383
H70   H     H_    0.735354 0.767331 0.250418 0.185857
C97   C     C_3   0.816675 0.271053 0.810028 -0.426344
C98   C     C_3   0.840101 0.325967 0.782564 -0.884663
H71   H     H_    0.781842 0.356153 0.753830 0.256528
H72   H     H_    0.906834 0.342573 0.855860 0.259081
H73   H     H_    0.849725 0.320021 0.715910 0.247868
H74   H     H_    0.873943 0.242296 0.827703 0.195145
H75   H     H_    0.747866 0.256039 0.737494 0.187436
C99   C     C_3   0.304221 0.152810 0.033423 -0.348272
C100  C     C_3   0.394776 0.146260 0.038990 -0.933418
H76   H     H_    0.383370 0.161506 0.962252 0.261556
H77   H     H_    0.454281 0.168455 0.111212 0.257021
H78   H     H_    0.414463 0.102145 0.048122 0.262791
H79   H     H_    0.319012 0.136391 0.111133 0.194318
H80   H     H_    0.249388 0.126621 0.964835 0.200721

loop_
_geom_bond_atom_site_label_1
_geom_bond_atom_site_label_2
_ccdc_geom_bond_type
C25   C31   A    
C23   H7    S    
C55   C56   A    
C26   C32   A    
C95   H69   S    
C6    C82   A    
C81   N25   A    
C87   C91   A    
C27   C29   A    
C96   H67   S    
C96   H66   S    
C7    C83   A    
C19   C20   S    
C16   C72   A    
N17   Ni5   S    
C82   H50   S    
N12   Ni3   S    
N4    N32   A    
C25   C93   S    
C39   C41   A    
C47   N7    A    
C53   C54   A    
N20   Ni8   S    
C38   C44   A    
N15   Ni8   S    
C12   C68   A    
N21   Ni1   S    
N2    N30   A    
N16   Ni7   S    
C43   H19   S    
C22   H6    S    
C32   C36   A    
C14   C21   S    
C10   C58   S    
C85   H53   S    
C67   H35   S    
C99   H79   S    
C26   C50   A    
C87   N31   A    
N3    N31   A    
C88   N32   A    
C94   H63   S    
C84   H52   S    
N13   N21   A    
C93   H64   S    
C46   N6    A    
C29   C33   A    
C70   H38   S    
C63   H27   S    
N2    Ni2   S    
C3    C91   A    
C76   N20   A    
C13   C69   A    
C20   C24   D    
N8    N28   A    
C53   H21   S    
C4    H4    S    
C15   C79   A    
N27   Ni8   S    
C88   C92   A    
C11   C67   A    
C95   C96   S    
C25   C49   A    
C1    C89   A    
C32   H12   S    
N24   Ni4   S    
C69   H37   S    
C26   C95   S    
C68   H36   S    
C27   C97   S    
C100  H77   S    
C40   H16   S    
N9    N17   A    
C35   C92   S    
C44   C52   A    
C40   C42   A    
C94   H61   S    
C2    N2    A    
C24   H8    S    
C55   C60   A    
C71   N15   A    
C14   C70   A    
C5    C49   S    
C9    C73   A    
C11   C59   S    
C78   H46   S    
C41   C49   A    
N1    Ni1   S    
C27   C51   A    
C72   H40   S    
N5    Ni5   S    
N4    Ni4   S    
C28   C99   S    
C13   C77   A    
N14   N22   A    
C62   H26   S    
C30   C34   A    
C61   H25   S    
C97   C98   S    
N7    Ni7   S    
C2    H2    S    
C45   N5    A    
C80   N24   A    
C79   H47   S    
C86   C90   A    
C100  H78   S    
C77   N21   A    
C12   C60   S    
N3    Ni3   S    
N26   Ni5   S    
C85   C89   A    
C99   C100  S    
C98   H71   S    
C85   N29   A    
C41   H17   S    
C8    C84   A    
C80   H48   S    
C5    C45   A    
C33   C37   A    
C66   H34   S    
N11   Ni4   S    
C16   C80   A    
N30   Ni1   S    
C65   H33   S    
C38   H14   S    
C35   C39   A    
C100  H76   S    
C8    C48   A    
C37   H13   S    
N9    Ni2   S    
C29   H9    S    
C79   N23   A    
C5    C81   A    
C84   N28   A    
C47   H31   S    
N10   N18   A    
C36   C40   A    
C53   C58   A    
C81   H49   S    
C30   H10   S    
C9    C65   A    
C3    N3    A    
C17   C18   S    
C56   H24   S    
N19   Ni7   S    
N5    N25   A    
C6    C50   S    
C1    N1    A    
N8    Ni8   S    
C87   H55   S    
C58   C62   A    
C42   C50   A    
C44   H20   S    
C36   C91   S    
C1    H1    S    
C15   C24   S    
C4    N4    A    
N1    N29   A    
C98   H72   S    
C93   C94   S    
C16   C23   S    
C34   C38   A    
C77   H45   S    
C12   C76   A    
C75   N19   A    
C97   H74   S    
C96   H68   S    
C93   H65   S    
C37   C43   A    
N12   N20   A    
C66   N10   A    
C73   N17   A    
C94   H62   S    
C86   H54   S    
N11   N19   A    
C19   C23   D    
N15   N23   A    
N16   N24   A    
C8    C52   S    
C95   H70   S    
N25   Ni6   S    
C6    C46   A    
C18   C22   D    
C19   H59   S    
C17   H57   S    
N7    N27   A    
N28   Ni7   S    
C74   H42   S    
N10   Ni1   S    
C3    H3    S    
N29   Ni2   S    
C56   C59   A    
C57   C61   A    
C28   C52   A    
C15   C71   A    
N18   Ni6   S    
C59   C63   A    
C64   H28   S    
N32   Ni3   S    
C83   N27   A    
C60   C64   A    
N14   Ni5   S    
C45   H29   S    
C48   N8    A    
N23   Ni3   S    
N6    Ni6   S    
C88   H56   S    
C42   H18   S    
C34   C89   S    
C10   C66   A    
C97   H75   S    
C11   C75   A    
N31   Ni4   S    
N22   Ni2   S    
C83   H51   S    
C10   C74   A    
C43   C51   A    
C75   H43   S    
C55   H23   S    
C98   H73   S    
C54   H22   S    
C31   C35   A    
C28   C30   A    
C68   N12   A    
C13   C22   S    
C9    C57   S    
C14   C78   A    
N6    N26   A    
C61   C62   A    
C39   H15   S    
C69   N13   A    
C74   N18   A    
C70   N14   A    
N13   Ni6   S    
C21   H5    S    
C7    C51   S    
C63   C64   A    
C76   H44   S    
C67   N11   A    
C20   H60   S    
C71   H39   S    
C2    C90   A    
C48   H32   S    
C73   H41   S    
C65   N9    A    
C72   N16   A    
C86   N30   A    
C78   N22   A    
C46   H30   S    
C99   H80   S    
C4    C92   A    
C33   C90   S    
C82   N26   A    
C54   C57   A    
C7    C47   A    
C31   H11   S    
C18   H58   S    
C17   C21   D    
