data_mof_unit_17623.cif
_audit_creation_date              2012-12-10T19:45:50-0500
_audit_creation_method            fapswitch 2.2
_symmetry_space_group_name_H-M    P1
_symmetry_Int_Tables_number       1
_space_group_crystal_system       triclinic
_cell_length_a                    18.47321
_cell_length_b                    18.470994
_cell_length_c                    27.541588
_cell_angle_alpha                 89.925782
_cell_angle_beta                  89.917302
_cell_angle_gamma                 90.06672
_cell_volume                      9397.67668604

loop_
_atom_site_label
_atom_site_type_symbol
_atom_type_description
_atom_site_fract_x
_atom_site_fract_y
_atom_site_fract_z
_atom_type_partial_charge
C1    C     C_1   0.999966 0.500049 0.775530 -0.029615
C2    C     C_3   0.247518 0.178192 0.911193 0.532662
C3    C     C_R   0.258564 0.795443 0.541862 0.331201
C4    C     C_1   0.499996 0.999997 0.224509 -0.018694
C5    C     C_1   0.999850 0.499744 0.224520 -0.015622
C6    C     C_1   0.999988 0.499949 0.724517 -0.014875
C7    C     C_1   0.499842 0.999887 0.724527 -0.011582
C8    C     C_3   0.066073 0.761918 0.869059 0.116750
C9    C     C_3   0.078568 0.829152 0.837438 -0.336205
C10   C     C_3   0.031399 0.827298 0.792020 -1.001773
C11   C     C_3   0.235412 0.064528 0.869398 0.111036
C12   C     C_3   0.166718 0.075538 0.839131 -0.332983
C13   C     C_3   0.820856 0.250021 0.911071 0.533030
C14   C     C_3   0.166801 0.027153 0.794237 -0.991916
C15   C     C_3   0.935163 0.240996 0.869436 0.119443
C16   C     C_3   0.924286 0.173893 0.837564 -0.338431
C17   C     C_3   0.972803 0.176478 0.792664 -0.994166
C18   C     C_3   0.763905 0.935458 0.869568 0.111725
C19   C     C_3   0.834347 0.927133 0.840657 -0.334295
C20   C     C_3   0.835272 0.976701 0.796291 -0.981487
C21   C     C_3   0.072799 0.178044 0.957040 0.121526
C22   C     C_3   0.097154 0.120126 0.993499 -0.360352
C23   C     C_3   0.070637 0.137879 0.044642 -0.998482
C24   C     C_3   0.752250 0.821597 0.911462 0.532219
C25   C     C_3   0.177827 0.926672 0.956168 0.122324
C26   C     C_3   0.121592 0.901215 0.993620 -0.363118
C27   C     C_3   0.141881 0.926036 0.044685 -0.987628
C28   C     C_3   0.927580 0.822612 0.956704 0.120430
C29   C     C_3   0.902918 0.879253 0.993932 -0.360952
C30   C     C_3   0.928835 0.859748 0.044900 -0.996302
C31   C     C_3   0.822494 0.073770 0.955190 0.121896
C32   C     C_3   0.877750 0.098379 0.993356 -0.362312
C33   C     C_3   0.856898 0.071388 0.043899 -0.992796
C34   C     C_3   0.564482 0.261921 0.370384 0.117436
C35   C     C_3   0.176461 0.225976 0.912644 0.513376
C36   C     C_3   0.575897 0.329639 0.339070 -0.336224
C37   C     C_3   0.528085 0.327894 0.293962 -1.000586
C38   C     C_3   0.733885 0.562923 0.370703 0.110456
C39   C     C_3   0.664646 0.573439 0.340940 -0.333140
C40   C     C_3   0.663999 0.524547 0.296306 -0.991067
C41   C     C_3   0.436653 0.738300 0.370616 0.118293
C42   C     C_3   0.425879 0.670531 0.339387 -0.339424
C43   C     C_3   0.474679 0.672032 0.294627 -0.989933
C44   C     C_3   0.266758 0.437143 0.370554 0.109660
C45   C     C_3   0.337074 0.427831 0.341651 -0.332484
C46   C     C_3   0.226769 0.822942 0.912645 0.513423
C47   C     C_3   0.338509 0.477076 0.297135 -0.984028
C48   C     C_3   0.573104 0.677536 0.458788 0.122608
C49   C     C_3   0.598113 0.619647 0.495068 -0.360749
C50   C     C_3   0.572340 0.637347 0.546381 -0.999418
C51   C     C_3   0.677317 0.425911 0.457533 0.122408
C52   C     C_3   0.621870 0.399863 0.495322 -0.363927
C53   C     C_3   0.642904 0.424309 0.546328 -0.987109
C54   C     C_3   0.427970 0.322564 0.458154 0.120313
C55   C     C_3   0.403021 0.379387 0.495164 -0.360321
C56   C     C_3   0.428502 0.360027 0.546263 -0.998511
C57   C     C_3   0.823761 0.774553 0.912915 0.510781
C58   C     C_3   0.322815 0.573547 0.457244 0.121871
C59   C     C_3   0.378168 0.598874 0.495119 -0.362472
C60   C     C_3   0.357580 0.572468 0.545843 -0.992630
C61   C     C_3   0.201428 0.684266 0.879068 -0.515754
C62   C     C_3   0.278989 0.653697 0.884677 -0.391018
C63   C     C_3   0.282694 0.574349 0.869711 -0.892732
C64   C     C_3   0.314713 0.199298 0.878592 -0.514649
C65   C     C_3   0.346486 0.276509 0.883831 -0.392000
C66   C     C_3   0.425727 0.279048 0.868288 -0.887795
C67   C     C_3   0.798997 0.317511 0.879105 -0.518162
C68   C     C_3   0.774134 0.178220 0.912151 0.511501
C69   C     C_3   0.721225 0.347588 0.884653 -0.391908
C70   C     C_3   0.716880 0.426489 0.868565 -0.890300
C71   C     C_3   0.685225 0.799648 0.879146 -0.514003
C72   C     C_3   0.654655 0.721948 0.884732 -0.391396
C73   C     C_3   0.575131 0.718185 0.870290 -0.891907
C74   C     C_3   0.167527 0.279080 0.868707 -0.459580
C75   C     C_3   0.178847 0.360422 0.878046 -0.377761
C76   C     C_3   0.184962 0.402168 0.830328 -0.910285
C77   C     C_3   0.280508 0.832298 0.869060 -0.460448
C78   C     C_3   0.361754 0.821475 0.878963 -0.378447
C79   C     C_3   0.678716 0.251319 0.411546 0.532961
C80   C     C_3   0.404338 0.815639 0.831615 -0.912801
C81   C     C_3   0.833368 0.721731 0.869028 -0.454352
C82   C     C_3   0.822213 0.640291 0.878163 -0.380831
C83   C     C_3   0.816069 0.599261 0.830256 -0.902791
C84   C     C_3   0.721714 0.168885 0.868041 -0.463041
C85   C     C_3   0.640100 0.177361 0.877302 -0.377774
C86   C     C_3   0.598927 0.184554 0.829430 -0.901505
C87   C     C_3   0.700015 0.184365 0.378976 -0.515609
C88   C     C_3   0.777540 0.153512 0.383943 -0.391550
C89   C     C_3   0.780830 0.074534 0.368009 -0.891634
C90   C     C_3   0.746827 0.677104 0.411665 0.532584
C91   C     C_3   0.813714 0.697513 0.378570 -0.513339
C92   C     C_3   0.846002 0.774593 0.383181 -0.391962
C93   C     C_3   0.925186 0.776348 0.367450 -0.888329
C94   C     C_3   0.300892 0.815720 0.378994 -0.516677
C95   C     C_3   0.223217 0.846304 0.383849 -0.391376
C96   C     C_3   0.219714 0.925226 0.367738 -0.891321
C97   C     C_3   0.186692 0.302435 0.378943 -0.512813
C98   C     C_3   0.154329 0.225435 0.384017 -0.392355
C99   C     C_3   0.075097 0.223651 0.368567 -0.889258
C100  C     C_3   0.666606 0.777366 0.368955 -0.454719
C101  C     C_3   0.322039 0.748638 0.411575 0.532751
C102  C     C_3   0.678685 0.858772 0.377522 -0.378492
C103  C     C_3   0.684261 0.899257 0.329298 -0.904227
C104  C     C_3   0.778009 0.332836 0.368693 -0.460533
C105  C     C_3   0.859552 0.322742 0.377458 -0.376592
C106  C     C_3   0.900253 0.317106 0.329305 -0.905832
C107  C     C_3   0.334017 0.222876 0.369290 -0.453937
C108  C     C_3   0.321443 0.141534 0.378004 -0.380515
C109  C     C_3   0.315387 0.101128 0.329860 -0.901786
C110  C     C_3   0.223129 0.667394 0.368453 -0.461509
C111  C     C_3   0.141456 0.676944 0.377063 -0.377135
C112  C     C_1   0.499972 0.999922 0.775542 -0.026096
C113  C     C_3   0.253522 0.323067 0.411852 0.532124
C114  C     C_3   0.101134 0.683881 0.328846 -0.901337
C115  C     C_3   0.392107 0.709866 0.081978 0.136793
C116  C     C_3   0.448629 0.726410 0.120885 -0.300386
C117  C     C_3   0.505742 0.666958 0.123534 -0.968054
C118  C     C_3   0.289233 0.413175 0.064101 0.182347
C119  C     C_3   0.366219 0.406847 0.084107 -0.353925
C120  C     C_3   0.406071 0.479222 0.081815 -1.012230
C121  C     C_3   0.615374 0.277210 0.092584 0.144973
C122  C     C_3   0.577830 0.261331 0.140916 -0.309594
C123  C     C_3   0.516542 0.314585 0.150547 -1.010325
C124  C     C_3   0.675879 0.725000 0.413193 0.511733
C125  C     C_3   0.711726 0.605025 0.081203 0.136476
C126  C     C_3   0.729249 0.548951 0.120317 -0.292964
C127  C     C_3   0.672344 0.489033 0.121872 -0.974508
C128  C     C_3   0.311625 0.192205 0.113812 0.135918
C129  C     C_3   0.363007 0.183293 0.156791 -0.318491
C130  C     C_3   0.336072 0.125798 0.192250 -0.980824
C131  C     C_3   0.170671 0.694866 0.111923 0.134059
C132  C     C_3   0.198983 0.746808 0.150848 -0.328968
C133  C     C_3   0.138895 0.769299 0.185780 -0.995794
C134  C     C_3   0.695627 0.817811 0.113886 0.136856
C135  C     C_3   0.725699 0.322916 0.412908 0.512248
C136  C     C_3   0.646842 0.830086 0.157930 -0.319684
C137  C     C_3   0.675419 0.890996 0.189976 -0.981703
C138  C     C_3   0.826291 0.296861 0.113090 0.134019
C139  C     C_3   0.841008 0.342354 0.158308 -0.322284
C140  C     C_3   0.903391 0.311390 0.188007 -0.984728
C141  C     C_3   0.889347 0.212184 0.585915 0.142668
C142  C     C_3   0.935133 0.224237 0.631378 -0.300813
C143  C     C_3   0.990753 0.164065 0.638160 -0.994298
C144  C     C_3   0.789883 0.914339 0.562276 0.181209
C145  C     C_3   0.867435 0.908722 0.581287 -0.355642
C146  C     C_3   0.324617 0.275394 0.413356 0.510769
C147  C     C_3   0.907428 0.980730 0.576577 -1.013335
C148  C     C_3   0.110715 0.778872 0.590475 0.142512
C149  C     C_3   0.075053 0.764971 0.639720 -0.315167
C150  C     C_3   0.012255 0.816642 0.648659 -1.013443
C151  C     C_3   0.203849 0.100478 0.574736 0.138303
C152  C     C_3   0.210688 0.047405 0.617055 -0.287375
C153  C     C_3   0.149228 0.992187 0.616731 -0.990571
C154  C     C_3   0.811608 0.692588 0.613735 0.136112
C155  C     C_3   0.862825 0.683387 0.656776 -0.319349
C156  C     C_3   0.835630 0.625822 0.692099 -0.980776
C157  C     C_3   0.275023 0.677047 0.412831 0.511976
C158  C     C_3   0.667961 0.197548 0.611349 0.135765
C159  C     C_3   0.695215 0.250047 0.650271 -0.328802
C160  C     C_3   0.634000 0.273783 0.683921 -0.996107
C161  C     C_3   0.191226 0.298355 0.618311 0.140328
C162  C     C_3   0.149431 0.284314 0.665274 -0.309451
C163  C     C_3   0.184593 0.321593 0.708594 -1.004519
C164  C     C_3   0.306448 0.806388 0.617930 0.136355
C165  C     C_3   0.294143 0.846625 0.665617 -0.312157
C166  C     C_3   0.334512 0.811281 0.707570 -1.002436
C167  C     C_R   0.500038 1.000000 0.870977 0.809318
C168  C     C_R   0.999987 0.500038 0.870972 0.809913
C169  C     C_R   0.000037 0.499970 0.370975 0.808551
C170  C     C_R   0.499997 0.000040 0.370969 0.809763
C171  C     C_R   0.500009 0.999968 0.129048 0.820640
C172  C     C_1   0.499996 0.000080 0.275522 -0.033025
C173  C     C_R   0.999945 0.499934 0.129047 0.812723
C174  C     C_R   0.999980 0.499965 0.629049 0.816083
C175  C     C_R   0.499944 0.999973 0.629049 0.807582
C176  C     C_R   0.639552 0.859563 0.999814 0.871558
C177  C     C_R   0.140201 0.639697 0.999924 0.862866
C178  C     C_R   0.360663 0.140550 0.999649 0.869056
C179  C     C_R   0.859662 0.360425 0.999868 0.870775
C180  C     C_R   0.640683 0.139560 0.000204 0.855439
C181  C     C_R   0.140425 0.360168 0.999665 0.842126
C182  C     C_R   0.359603 0.860150 0.000114 0.853211
C183  C     C_1   0.999968 0.499761 0.275535 -0.029260
C184  C     C_R   0.860188 0.640449 0.000102 0.853613
C185  C     C_R   0.139519 0.359583 0.499827 0.873359
C186  C     C_R   0.640137 0.139734 0.499988 0.862484
C187  C     C_R   0.860628 0.640495 0.499712 0.869216
C188  C     C_R   0.359502 0.860558 0.499819 0.869448
C189  C     C_R   0.140585 0.639628 0.500168 0.854194
C190  C     C_R   0.640486 0.860212 0.499630 0.840880
C191  C     C_R   0.859595 0.360132 0.500105 0.851582
C192  C     C_R   0.359921 0.140221 0.499922 0.847889
C193  C     C_1   0.999966 0.500095 0.819144 -0.157947
C194  C     C_1   0.500003 0.999937 0.180891 -0.149935
C195  C     C_1   0.500073 0.999969 0.819154 -0.156212
C196  C     C_1   0.499996 0.000105 0.319138 -0.156523
C197  C     C_1   0.000066 0.499849 0.319148 -0.153730
C198  C     C_R   0.254765 0.795768 0.961928 -0.158783
C199  C     C_R   0.204349 0.254667 0.961574 -0.156010
C200  C     C_R   0.745126 0.204767 0.961486 -0.160017
C201  C     C_R   0.796243 0.745819 0.962027 -0.160258
C202  C     C_R   0.259517 0.206307 0.961223 -0.062997
C203  C     C_R   0.207038 0.740043 0.961481 -0.066026
C204  C     C_R   0.740596 0.793569 0.961592 -0.063964
C205  C     C_1   0.999837 0.499807 0.180897 -0.150132
C206  C     C_R   0.792623 0.260728 0.961183 -0.068175
C207  C     C_R   0.755014 0.295307 0.461776 -0.158797
C208  C     C_R   0.704352 0.754508 0.461703 -0.155665
C209  C     C_R   0.245378 0.704489 0.461716 -0.161343
C210  C     C_R   0.296406 0.246180 0.462110 -0.158621
C211  C     C_R   0.759423 0.706054 0.461391 -0.063414
C212  C     C_R   0.707287 0.239582 0.461422 -0.067195
C213  C     C_R   0.241080 0.294314 0.461730 -0.066834
C214  C     C_R   0.293125 0.760205 0.461423 -0.069476
C215  C     C_R   0.303048 0.805195 0.000819 -0.252632
C216  C     C_1   0.999991 0.499910 0.680897 -0.154820
C217  C     C_R   0.197043 0.305258 0.999434 -0.273338
C218  C     C_R   0.697763 0.193984 0.000952 -0.241921
C219  C     C_R   0.805259 0.696940 0.000743 -0.250259
C220  C     C_R   0.306404 0.197187 0.999991 -0.251263
C221  C     C_R   0.195704 0.695090 0.001066 -0.247555
C222  C     C_R   0.694577 0.803628 0.000762 -0.240504
C223  C     C_R   0.804008 0.305134 0.000919 -0.237899
C224  C     C_R   0.803107 0.305059 0.500779 -0.249618
C225  C     C_R   0.697251 0.805410 0.499366 -0.274732
C226  C     C_R   0.197181 0.694498 0.500761 -0.237997
C227  C     C_1   0.499830 0.999908 0.680903 -0.152646
C228  C     C_R   0.304337 0.196134 0.500249 -0.248250
C229  C     C_R   0.806452 0.697170 0.500063 -0.251841
C230  C     C_R   0.695691 0.195037 0.501118 -0.247121
C231  C     C_R   0.194093 0.303328 0.500496 -0.232087
C232  C     C_R   0.303192 0.805892 0.500640 -0.228475
C233  C     C_R   0.296100 0.757620 0.041252 0.353106
C234  C     C_R   0.248782 0.302211 0.037837 0.376474
C235  C     C_R   0.706327 0.239335 0.042284 0.344428
C236  C     C_R   0.757048 0.702944 0.040889 0.351652
C237  C     C_R   0.299112 0.245018 0.039810 0.345088
C238  C     C_3   0.179560 0.751436 0.911241 0.532753
C239  C     C_R   0.239195 0.706385 0.042728 0.358595
C240  C     C_R   0.704662 0.758711 0.041928 0.332437
C241  C     C_R   0.761762 0.292343 0.042976 0.334494
C242  C     C_R   0.795749 0.257998 0.541476 0.349121
C243  C     C_R   0.749318 0.802709 0.537577 0.377702
C244  C     C_R   0.203821 0.741562 0.541355 0.338978
C245  C     C_R   0.254012 0.200134 0.539333 0.342684
C246  C     C_R   0.799439 0.745351 0.539720 0.345366
C247  C     C_R   0.738636 0.206899 0.542946 0.359241
C248  C     C_R   0.202121 0.256430 0.540760 0.325868
H1    H     H_    0.007675 0.759536 0.877892 0.179899
H2    H     H_    0.118400 0.062068 0.861488 0.262460
H3    H     H_    0.432128 0.268665 0.474483 0.190535
H4    H     H_    0.425461 0.433031 0.484741 0.207945
H5    H     H_    0.343307 0.384148 0.495813 0.262249
H6    H     H_    0.400811 0.310033 0.558981 0.267513
H7    H     H_    0.415390 0.404646 0.571720 0.270547
H8    H     H_    0.487822 0.350911 0.546662 0.270811
H9    H     H_    0.338442 0.517887 0.446616 0.167257
H10   H     H_    0.268538 0.567739 0.472767 0.191946
H11   H     H_    0.432317 0.577182 0.485373 0.208253
H12   H     H_    0.382365 0.658627 0.496029 0.261148
H13   H     H_    0.163089 0.132749 0.827111 0.216549
H14   H     H_    0.306618 0.598862 0.557871 0.272046
H15   H     H_    0.401008 0.586375 0.572018 0.268089
H16   H     H_    0.349732 0.512930 0.545934 0.271281
H17   H     H_    0.248897 0.540843 0.894463 0.255014
H18   H     H_    0.263680 0.567933 0.831716 0.267352
H19   H     H_    0.339490 0.555023 0.872022 0.251744
H20   H     H_    0.316242 0.683621 0.860458 0.245818
H21   H     H_    0.299370 0.657582 0.922416 0.224229
H22   H     H_    0.162569 0.640174 0.888056 0.237183
H23   H     H_    0.193613 0.697114 0.840031 0.175133
H24   H     H_    0.214048 0.039982 0.770740 0.265541
H25   H     H_    0.459008 0.245056 0.892943 0.255808
H26   H     H_    0.431495 0.259512 0.830353 0.267103
H27   H     H_    0.445938 0.335618 0.870205 0.251895
H28   H     H_    0.316819 0.314038 0.859760 0.245110
H29   H     H_    0.343352 0.297172 0.921536 0.224937
H30   H     H_    0.358333 0.159943 0.887354 0.238531
H31   H     H_    0.301481 0.191565 0.839631 0.174827
H32   H     H_    0.750169 0.460945 0.892908 0.255647
H33   H     H_    0.736155 0.432162 0.830525 0.267696
H34   H     H_    0.659889 0.445337 0.870544 0.251676
H35   H     H_    0.116469 0.036345 0.773113 0.274217
H36   H     H_    0.683974 0.316682 0.861158 0.245213
H37   H     H_    0.701208 0.344644 0.922566 0.225619
H38   H     H_    0.837443 0.361741 0.888424 0.236396
H39   H     H_    0.807343 0.305284 0.840036 0.176131
H40   H     H_    0.542021 0.751643 0.895377 0.256040
H41   H     H_    0.568203 0.737527 0.832382 0.267611
H42   H     H_    0.555849 0.661311 0.872581 0.251752
H43   H     H_    0.684203 0.685070 0.860164 0.245164
H44   H     H_    0.659072 0.701010 0.922336 0.224711
H45   H     H_    0.641150 0.838517 0.887880 0.238100
H46   H     H_    0.169019 0.969222 0.805017 0.273263
H47   H     H_    0.698249 0.807331 0.840118 0.174140
H48   H     H_    0.234289 0.385875 0.810053 0.269413
H49   H     H_    0.136389 0.392295 0.807563 0.274440
H50   H     H_    0.187622 0.460968 0.837845 0.251473
H51   H     H_    0.131187 0.382678 0.896722 0.270874
H52   H     H_    0.227253 0.370962 0.900712 0.204057
H53   H     H_    0.201859 0.261594 0.837927 0.181429
H54   H     H_    0.111668 0.273182 0.854394 0.211910
H55   H     H_    0.388575 0.766282 0.811236 0.270001
H56   H     H_    0.394872 0.864350 0.808854 0.273677
H57   H     H_    0.993338 0.244187 0.878700 0.181692
H58   H     H_    0.462968 0.813340 0.839613 0.252024
H59   H     H_    0.383611 0.869347 0.897491 0.272635
H60   H     H_    0.372190 0.773263 0.901902 0.204336
H61   H     H_    0.263647 0.797775 0.838253 0.181036
H62   H     H_    0.274560 0.888171 0.854649 0.212820
H63   H     H_    0.766507 0.615440 0.810274 0.263958
H64   H     H_    0.864351 0.610279 0.807380 0.270961
H65   H     H_    0.814081 0.540273 0.837384 0.251351
H66   H     H_    0.870036 0.617918 0.896523 0.271688
H67   H     H_    0.774033 0.629291 0.901045 0.203649
H68   H     H_    0.925175 0.291666 0.848982 0.121158
H69   H     H_    0.799369 0.739452 0.838168 0.181738
H70   H     H_    0.889396 0.727889 0.854926 0.212183
H71   H     H_    0.611952 0.236734 0.811360 0.263587
H72   H     H_    0.613012 0.139288 0.804624 0.272399
H73   H     H_    0.539906 0.182140 0.836449 0.249852
H74   H     H_    0.619221 0.128149 0.895021 0.272228
H75   H     H_    0.628038 0.224436 0.900900 0.204366
H76   H     H_    0.738428 0.204563 0.837713 0.183407
H77   H     H_    0.729381 0.113598 0.853060 0.213108
H78   H     H_    0.747305 0.040457 0.392578 0.254495
H79   H     H_    0.937707 0.124470 0.858759 0.264052
H80   H     H_    0.761178 0.069075 0.330090 0.267867
H81   H     H_    0.837609 0.055016 0.369712 0.251550
H82   H     H_    0.814693 0.184023 0.359995 0.244890
H83   H     H_    0.798184 0.156327 0.421664 0.224601
H84   H     H_    0.661230 0.140262 0.388077 0.237832
H85   H     H_    0.691609 0.197477 0.340037 0.174906
H86   H     H_    0.958360 0.742489 0.392255 0.255248
H87   H     H_    0.930627 0.756177 0.329643 0.266939
H88   H     H_    0.945800 0.832803 0.368929 0.252033
H89   H     H_    0.816453 0.811888 0.358878 0.244428
H90   H     H_    0.867125 0.170703 0.825510 0.214541
H91   H     H_    0.843182 0.795914 0.420731 0.224880
H92   H     H_    0.857235 0.658029 0.387284 0.239797
H93   H     H_    0.799981 0.689361 0.339728 0.173679
H94   H     H_    0.252821 0.959435 0.392350 0.255083
H95   H     H_    0.239719 0.930739 0.329857 0.267486
H96   H     H_    0.162829 0.944482 0.369254 0.251986
H97   H     H_    0.186285 0.815656 0.359978 0.245135
H98   H     H_    0.202354 0.843465 0.421557 0.225869
H99   H     H_    0.339478 0.859885 0.388181 0.237653
H100  H     H_    0.309654 0.802844 0.340062 0.175674
H101  H     H_    0.960210 0.225023 0.770378 0.266529
H102  H     H_    0.042047 0.257771 0.393292 0.255086
H103  H     H_    0.069589 0.243481 0.330660 0.267740
H104  H     H_    0.054412 0.167238 0.370434 0.251630
H105  H     H_    0.183739 0.188003 0.359748 0.244915
H106  H     H_    0.157276 0.204315 0.421642 0.224433
H107  H     H_    0.143209 0.342071 0.387444 0.239919
H108  H     H_    0.200515 0.310181 0.340042 0.174362
H109  H     H_    0.733331 0.882403 0.308947 0.264449
H110  H     H_    0.635479 0.888364 0.306958 0.270862
H111  H     H_    0.686980 0.958298 0.336023 0.251723
H112  H     H_    0.075699 0.711270 0.848562 0.121505
H113  H     H_    0.963523 0.127387 0.770269 0.276350
H114  H     H_    0.631526 0.881770 0.396401 0.269742
H115  H     H_    0.727543 0.869454 0.399710 0.203639
H116  H     H_    0.700326 0.759051 0.338091 0.180654
H117  H     H_    0.610520 0.771638 0.355071 0.211718
H118  H     H_    0.885336 0.266630 0.309886 0.264941
H119  H     H_    0.887525 0.364506 0.305984 0.270787
H120  H     H_    0.959340 0.317074 0.336061 0.251614
H121  H     H_    0.881437 0.370814 0.395844 0.271898
H122  H     H_    0.871105 0.274562 0.400193 0.204084
H123  H     H_    0.760577 0.298246 0.338072 0.181522
H124  H     H_    0.030705 0.178008 0.803453 0.271287
H125  H     H_    0.771123 0.388632 0.354377 0.212198
H126  H     H_    0.266577 0.118575 0.309524 0.263868
H127  H     H_    0.364348 0.111345 0.307471 0.271026
H128  H     H_    0.311966 0.042145 0.336686 0.251740
H129  H     H_    0.368564 0.118175 0.396666 0.269929
H130  H     H_    0.272698 0.131109 0.400461 0.203782
H131  H     H_    0.300655 0.241390 0.338330 0.181446
H132  H     H_    0.390260 0.228286 0.355509 0.211649
H133  H     H_    0.115454 0.735367 0.310330 0.263460
H134  H     H_    0.114681 0.637783 0.304603 0.272330
H135  H     H_    0.757366 0.993528 0.878413 0.180085
H136  H     H_    0.041983 0.682847 0.335486 0.250357
H137  H     H_    0.119671 0.628278 0.394978 0.271958
H138  H     H_    0.129550 0.724502 0.400252 0.204237
H139  H     H_    0.240675 0.702330 0.337950 0.183024
H140  H     H_    0.230412 0.611812 0.353947 0.212146
H141  H     H_    0.420266 0.705502 0.046205 0.124440
H142  H     H_    0.366023 0.657129 0.090724 0.168287
H143  H     H_    0.475594 0.778721 0.112298 0.258927
H144  H     H_    0.421617 0.731410 0.156822 0.212432
H145  H     H_    0.480528 0.614790 0.134436 0.259785
H146  H     H_    0.715914 0.923377 0.846966 0.118430
H147  H     H_    0.547420 0.681630 0.150820 0.273585
H148  H     H_    0.532388 0.660379 0.087655 0.272937
H149  H     H_    0.262577 0.460465 0.081464 0.195092
H150  H     H_    0.291198 0.425150 0.024333 0.094291
H151  H     H_    0.364091 0.388202 0.122476 0.251795
H152  H     H_    0.396874 0.366772 0.062244 0.236744
H153  H     H_    0.408468 0.499311 0.043809 0.264830
H154  H     H_    0.462207 0.472299 0.095422 0.271422
H155  H     H_    0.378181 0.519897 0.104847 0.273160
H156  H     H_    0.574506 0.275972 0.062892 0.147408
H157  H     H_    0.881151 0.941297 0.864124 0.262027
H158  H     H_    0.639105 0.332435 0.094478 0.161934
H159  H     H_    0.555437 0.205444 0.140378 0.243668
H160  H     H_    0.617992 0.265020 0.170843 0.219091
H161  H     H_    0.537365 0.371030 0.151022 0.272714
H162  H     H_    0.491254 0.302508 0.186217 0.270118
H163  H     H_    0.474692 0.309132 0.121992 0.291202
H164  H     H_    0.709201 0.576928 0.045379 0.123797
H165  H     H_    0.657985 0.628975 0.089384 0.166531
H166  H     H_    0.783021 0.524489 0.112688 0.261439
H167  H     H_    0.731579 0.575895 0.156354 0.212954
H168  H     H_    0.840076 0.870336 0.828182 0.218790
H169  H     H_    0.618399 0.511853 0.131006 0.256856
H170  H     H_    0.687200 0.448541 0.149977 0.275858
H171  H     H_    0.669319 0.461410 0.086138 0.274284
H172  H     H_    0.301646 0.137959 0.097365 0.117360
H173  H     H_    0.259402 0.214846 0.127229 0.149374
H174  H     H_    0.417381 0.167361 0.143299 0.257698
H175  H     H_    0.368258 0.235830 0.176108 0.217093
H176  H     H_    0.283131 0.141985 0.208001 0.265708
H177  H     H_    0.375999 0.119651 0.221990 0.270970
H178  H     H_    0.330289 0.072773 0.173655 0.265183
H179  H     H_    0.789394 0.963520 0.771805 0.269203
H180  H     H_    0.143085 0.648749 0.130167 0.172018
H181  H     H_    0.128619 0.722386 0.089392 0.094654
H182  H     H_    0.242972 0.720108 0.171737 0.238890
H183  H     H_    0.221322 0.796125 0.133201 0.240131
H184  H     H_    0.094721 0.796974 0.165708 0.268947
H185  H     H_    0.161031 0.807193 0.213299 0.270713
H186  H     H_    0.116587 0.721149 0.204869 0.269298
H187  H     H_    0.703704 0.870569 0.094872 0.116239
H188  H     H_    0.749008 0.797240 0.126678 0.151181
H189  H     H_    0.591510 0.844276 0.145471 0.250779
H190  H     H_    0.886753 0.969151 0.776055 0.273540
H191  H     H_    0.643338 0.779376 0.179591 0.213790
H192  H     H_    0.729458 0.876674 0.204759 0.265574
H193  H     H_    0.637433 0.899796 0.220601 0.272551
H194  H     H_    0.679551 0.942191 0.168931 0.264728
H195  H     H_    0.877786 0.290986 0.092288 0.115375
H196  H     H_    0.807070 0.242279 0.124682 0.155449
H197  H     H_    0.854752 0.398566 0.147264 0.249963
H198  H     H_    0.791423 0.344270 0.181196 0.214522
H199  H     H_    0.889656 0.256224 0.201250 0.266047
H200  H     H_    0.913851 0.346844 0.219709 0.273900
H201  H     H_    0.831347 0.034257 0.807620 0.272427
H202  H     H_    0.953485 0.308960 0.165703 0.264912
H203  H     H_    0.925585 0.212256 0.553513 0.137359
H204  H     H_    0.862623 0.158356 0.588943 0.162693
H205  H     H_    0.963712 0.277063 0.628434 0.246539
H206  H     H_    0.899196 0.225933 0.663777 0.216270
H207  H     H_    0.963376 0.110768 0.641582 0.266081
H208  H     H_    0.022120 0.173956 0.671848 0.267328
H209  H     H_    0.028653 0.162763 0.606859 0.283728
H210  H     H_    0.763578 0.961889 0.579562 0.194835
H211  H     H_    0.790634 0.925504 0.522383 0.094775
H212  H     H_    0.016488 0.164753 0.946425 0.168526
H213  H     H_    0.866355 0.892334 0.620129 0.251747
H214  H     H_    0.897231 0.867290 0.560038 0.237198
H215  H     H_    0.909309 0.998260 0.537997 0.265264
H216  H     H_    0.963730 0.974577 0.590022 0.272445
H217  H     H_    0.879883 0.022913 0.598523 0.271682
H218  H     H_    0.069235 0.774353 0.561345 0.153730
H219  H     H_    0.132529 0.834869 0.590409 0.161299
H220  H     H_    0.054589 0.708375 0.641123 0.244475
H221  H     H_    0.115858 0.771927 0.668977 0.215940
H222  H     H_    0.030896 0.873767 0.646787 0.274292
H223  H     H_    0.064994 0.878561 0.858544 0.263679
H224  H     H_    0.069061 0.231456 0.973989 0.190848
H225  H     H_    0.988839 0.806472 0.685161 0.271159
H226  H     H_    0.969609 0.807324 0.621123 0.295279
H227  H     H_    0.208834 0.069803 0.540042 0.129643
H228  H     H_    0.149332 0.125847 0.576375 0.158589
H229  H     H_    0.263328 0.018545 0.614411 0.251811
H230  H     H_    0.209324 0.077661 0.651921 0.214811
H231  H     H_    0.096326 0.019735 0.621773 0.260874
H232  H     H_    0.156831 0.952921 0.646832 0.269542
H233  H     H_    0.148750 0.962381 0.581754 0.273775
H234  H     H_    0.801470 0.638395 0.597249 0.117501
H235  H     H_    0.075014 0.066783 0.982281 0.208466
H236  H     H_    0.759427 0.715382 0.627109 0.148743
H237  H     H_    0.917204 0.667367 0.643340 0.257787
H238  H     H_    0.868113 0.735825 0.676203 0.217931
H239  H     H_    0.782665 0.642066 0.707789 0.265565
H240  H     H_    0.875426 0.619485 0.721900 0.270740
H241  H     H_    0.829805 0.572875 0.673411 0.265212
H242  H     H_    0.639433 0.151954 0.629532 0.170553
H243  H     H_    0.626899 0.224943 0.587943 0.094146
H244  H     H_    0.738149 0.223419 0.672165 0.236816
H245  H     H_    0.718643 0.298808 0.632573 0.241544
H246  H     H_    0.156874 0.115534 0.994500 0.261970
H247  H     H_    0.590855 0.301384 0.662819 0.268569
H248  H     H_    0.655393 0.312094 0.711445 0.270842
H249  H     H_    0.610560 0.226235 0.703081 0.269115
H250  H     H_    0.191665 0.357514 0.610534 0.124392
H251  H     H_    0.248061 0.279527 0.623596 0.151662
H252  H     H_    0.092999 0.304271 0.661312 0.235419
H253  H     H_    0.147708 0.225038 0.672252 0.226070
H254  H     H_    0.241354 0.303000 0.713107 0.268183
H255  H     H_    0.153906 0.307567 0.741978 0.271322
H256  H     H_    0.183846 0.381290 0.703678 0.272466
H257  H     H_    0.097988 0.187528 0.058138 0.266925
H258  H     H_    0.364853 0.809093 0.608088 0.124050
H259  H     H_    0.290805 0.748568 0.623294 0.157795
H260  H     H_    0.312523 0.903682 0.661735 0.232449
H261  H     H_    0.235315 0.846807 0.674152 0.219908
H262  H     H_    0.317990 0.753745 0.711662 0.267174
H263  H     H_    0.320788 0.840324 0.741553 0.271991
H264  H     H_    0.393896 0.814392 0.701498 0.272889
H265  H     H_    0.083318 0.092525 0.069658 0.271171
H266  H     H_    0.011294 0.146881 0.044743 0.270950
H267  H     H_    0.162355 0.982282 0.945255 0.165865
H268  H     H_    0.231679 0.932698 0.972200 0.192653
H269  H     H_    0.067862 0.923875 0.983885 0.207083
H270  H     H_    0.116454 0.841533 0.993983 0.262727
H271  H     H_    0.136070 0.831880 0.825983 0.214852
H272  H     H_    0.192245 0.898542 0.056682 0.268417
H273  H     H_    0.097913 0.912169 0.070571 0.269791
H274  H     H_    0.150671 0.985438 0.045350 0.270180
H275  H     H_    0.983483 0.837109 0.945709 0.167140
H276  H     H_    0.932487 0.768698 0.972930 0.191661
H277  H     H_    0.925197 0.932965 0.983507 0.207951
H278  H     H_    0.843199 0.883991 0.994799 0.261651
H279  H     H_    0.901177 0.809784 0.057695 0.269398
H280  H     H_    0.916029 0.904355 0.070442 0.270050
H281  H     H_    0.988138 0.850515 0.045029 0.270985
H282  H     H_    0.044170 0.778644 0.769952 0.267519
H283  H     H_    0.838350 0.018474 0.943839 0.165579
H284  H     H_    0.768241 0.067311 0.970613 0.193198
H285  H     H_    0.931888 0.076690 0.983575 0.208050
H286  H     H_    0.882154 0.158112 0.994618 0.260403
H287  H     H_    0.806045 0.097864 0.056039 0.272760
H288  H     H_    0.900334 0.084741 0.070200 0.267968
H289  H     H_    0.848741 0.011895 0.043639 0.271095
H290  H     H_    0.506333 0.258990 0.379718 0.181934
H291  H     H_    0.573991 0.211616 0.349495 0.120980
H292  H     H_    0.562252 0.378675 0.360546 0.263685
H293  H     H_    0.041946 0.876336 0.769717 0.277384
H294  H     H_    0.633183 0.332956 0.327231 0.214273
H295  H     H_    0.541038 0.279644 0.271550 0.267201
H296  H     H_    0.537784 0.377322 0.271878 0.277534
H297  H     H_    0.470034 0.326208 0.304452 0.272379
H298  H     H_    0.738025 0.504821 0.379924 0.182536
H299  H     H_    0.782992 0.572889 0.348590 0.119207
H300  H     H_    0.616743 0.560191 0.363755 0.262590
H301  H     H_    0.660774 0.630486 0.328636 0.215979
H302  H     H_    0.710713 0.537285 0.272313 0.265160
H303  H     H_    0.613195 0.533289 0.275611 0.274356
H304  H     H_    0.973166 0.826374 0.802140 0.272389
H305  H     H_    0.666667 0.466770 0.307362 0.273086
H306  H     H_    0.494683 0.741515 0.380115 0.183355
H307  H     H_    0.427102 0.788549 0.349610 0.120615
H308  H     H_    0.439048 0.621549 0.361111 0.264319
H309  H     H_    0.368817 0.667238 0.327161 0.214582
H310  H     H_    0.462118 0.719960 0.271742 0.265341
H311  H     H_    0.465666 0.622319 0.272808 0.274693
H312  H     H_    0.532480 0.674002 0.305578 0.271383
H313  H     H_    0.261252 0.495178 0.379588 0.182064
H314  H     H_    0.218583 0.426237 0.347858 0.118885
H315  H     H_    0.239299 0.006248 0.878275 0.181691
H316  H     H_    0.384055 0.441575 0.365073 0.262242
H317  H     H_    0.342095 0.370930 0.329292 0.218346
H318  H     H_    0.292726 0.463919 0.272563 0.269212
H319  H     H_    0.390083 0.469156 0.277071 0.273500
H320  H     H_    0.334729 0.534712 0.308261 0.272469
H321  H     H_    0.516532 0.664352 0.448792 0.168936
H322  H     H_    0.569847 0.731028 0.475711 0.189454
H323  H     H_    0.575862 0.566278 0.484007 0.208523
H324  H     H_    0.657846 0.615164 0.495685 0.262339
H325  H     H_    0.599664 0.687150 0.559647 0.266724
H326  H     H_    0.284933 0.074794 0.847761 0.119733
H327  H     H_    0.585656 0.592099 0.571333 0.270841
H328  H     H_    0.512955 0.646031 0.546890 0.271700
H329  H     H_    0.661500 0.481608 0.447070 0.165322
H330  H     H_    0.731467 0.431905 0.473104 0.191896
H331  H     H_    0.567899 0.422419 0.486105 0.207510
H332  H     H_    0.616994 0.340160 0.495472 0.262149
H333  H     H_    0.693851 0.397329 0.557712 0.269173
H334  H     H_    0.599650 0.409535 0.572533 0.269381
H335  H     H_    0.650934 0.483810 0.547234 0.270243
H336  H     H_    0.484202 0.336621 0.447707 0.168361
O1    O     O_3   0.500000 0.000000 0.000010 -0.484014
O2    O     O_R   0.500000 0.939270 0.393740 -0.656964
O3    O     O_R   0.060730 0.500000 0.393740 -0.657388
O4    O     O_R   0.500000 0.060730 0.393740 -0.657186
O5    O     O_R   0.500000 0.939230 0.106280 -0.651784
O6    O     O_R   0.060770 0.500000 0.106280 -0.633485
O7    O     O_R   0.500000 0.060770 0.106280 -0.648260
O8    O     O_R   0.939230 0.500000 0.106280 -0.653795
O9    O     O_R   1.000000 0.439230 0.606280 -0.640216
O10   O     O_R   0.560770 0.000000 0.606280 -0.634046
O11   O     O_R   1.000000 0.560770 0.606280 -0.648215
O12   O     O_3   0.000000 0.500000 0.000010 -0.484135
O13   O     O_R   0.439230 0.000000 0.606280 -0.640604
O14   O     O_R   0.646160 0.914520 0.972140 -0.623665
O15   O     O_R   0.085480 0.646160 0.972140 -0.622096
O16   O     O_R   0.353840 0.085480 0.972140 -0.623985
O17   O     O_R   0.914520 0.353840 0.972140 -0.623651
O18   O     O_R   0.646160 0.085480 0.972140 -0.686254
O19   O     O_R   0.085480 0.353840 0.972140 -0.681036
O20   O     O_R   0.353840 0.914520 0.972140 -0.685501
O21   O     O_R   0.914520 0.646160 0.972140 -0.685412
O22   O     O_R   0.146160 0.414520 0.472140 -0.626095
O23   O     O_3   1.000000 0.500000 0.500010 -0.485707
O24   O     O_R   0.585480 0.146160 0.472140 -0.621803
O25   O     O_R   0.853840 0.585480 0.472140 -0.623872
O26   O     O_R   0.414520 0.853840 0.472140 -0.624554
O27   O     O_R   0.146160 0.585480 0.472140 -0.685724
O28   O     O_R   0.585480 0.853840 0.472140 -0.679827
O29   O     O_R   0.853840 0.414520 0.472140 -0.685544
O30   O     O_R   0.414520 0.146160 0.472140 -0.685451
O31   O     O_R   0.414550 0.146120 0.027860 -0.615455
O32   O     O_R   0.853880 0.414550 0.027860 -0.617341
O33   O     O_R   0.585450 0.853880 0.027860 -0.617288
O34   O     O_3   0.500000 0.000000 0.500010 -0.486060
O35   O     O_R   0.146120 0.585450 0.027860 -0.627544
O36   O     O_R   0.414550 0.853880 0.027860 -0.609121
O37   O     O_R   0.853880 0.585450 0.027860 -0.611379
O38   O     O_R   0.585450 0.146120 0.027860 -0.613965
O39   O     O_R   0.146120 0.414550 0.027860 -0.618498
O40   O     O_R   0.914550 0.646120 0.527860 -0.616433
O41   O     O_R   0.353880 0.914550 0.527860 -0.612839
O42   O     O_R   0.085450 0.353880 0.527860 -0.610208
O43   O     O_R   0.646120 0.085450 0.527860 -0.628075
O44   O     O_R   0.914550 0.353880 0.527860 -0.607369
O45   O     O_R   0.439270 0.000000 0.893740 -0.656732
O46   O     O_R   0.353880 0.085450 0.527860 -0.603845
O47   O     O_R   0.085450 0.646120 0.527860 -0.613190
O48   O     O_R   0.646120 0.914550 0.527860 -0.618333
O49   O     O_3   0.103532 0.765111 0.914030 -0.623470
O50   O     O_3   0.233334 0.102251 0.914349 -0.624743
O51   O     O_3   0.896926 0.236720 0.914154 -0.621677
O52   O     O_3   0.765558 0.897685 0.914544 -0.623673
O53   O     O_3   0.115586 0.177461 0.914304 -0.666703
O54   O     O_3   0.177596 0.883229 0.913785 -0.666587
O55   O     O_3   0.884082 0.823727 0.914402 -0.667774
O56   O     O_R   1.000000 0.439270 0.893740 -0.657205
O57   O     O_3   0.823847 0.118386 0.913334 -0.665268
O58   O     O_3   0.602744 0.264834 0.415048 -0.623029
O59   O     O_3   0.732550 0.601257 0.415427 -0.625006
O60   O     O_3   0.397989 0.735145 0.415200 -0.622372
O61   O     O_3   0.267536 0.398963 0.415404 -0.624784
O62   O     O_3   0.614872 0.676707 0.415585 -0.667441
O63   O     O_3   0.676336 0.383012 0.414905 -0.666335
O64   O     O_3   0.385428 0.323928 0.415396 -0.667927
O65   O     O_3   0.324377 0.616960 0.414803 -0.666271
O66   O     O_3   0.340119 0.765945 0.081509 -0.626159
O67   O     O_R   0.560730 0.000000 0.893740 -0.657360
O68   O     O_3   0.247455 0.351032 0.076005 -0.619395
O69   O     O_3   0.669036 0.224061 0.084748 -0.628114
O70   O     O_3   0.765735 0.659311 0.081403 -0.619998
O71   O     O_3   0.343903 0.239490 0.079794 -0.626887
O72   O     O_3   0.228881 0.665976 0.084579 -0.631537
O73   O     O_3   0.662185 0.766989 0.082917 -0.624629
O74   O     O_3   0.773207 0.332033 0.084822 -0.628147
O75   O     O_3   0.837766 0.268403 0.582487 -0.628276
O76   O     O_3   0.748771 0.852259 0.575316 -0.617887
O77   O     O_3   0.165773 0.726898 0.583644 -0.633088
O78   O     O_R   1.000000 0.560730 0.893740 -0.657269
O79   O     O_3   0.259084 0.153200 0.578436 -0.621083
O80   O     O_3   0.844101 0.739840 0.579770 -0.627258
O81   O     O_3   0.726962 0.167792 0.585203 -0.631268
O82   O     O_3   0.155968 0.261432 0.580201 -0.626312
O83   O     O_3   0.264875 0.840612 0.581629 -0.629369
O84   O     O_R   0.939270 0.500000 0.393740 -0.657374
Zn1   Zn    Zn3+2 0.500000 0.913210 0.039810 0.961507
Zn2   Zn    Zn3+2 0.000000 0.586760 0.960200 0.927077
Zn3   Zn    Zn3+2 0.413240 0.000000 0.960200 0.928615
Zn4   Zn    Zn3+2 0.000000 0.413240 0.960200 0.928232
Zn5   Zn    Zn3+2 0.086760 0.500000 0.460200 0.928738
Zn6   Zn    Zn3+2 0.500000 0.086760 0.460200 0.925901
Zn7   Zn    Zn3+2 0.913240 0.500000 0.460200 0.927875
Zn8   Zn    Zn3+2 0.500000 0.913240 0.460200 0.927960
Zn9   Zn    Zn3+2 0.086790 0.500000 0.039810 0.964500
Zn10  Zn    Zn3+2 0.500000 0.086790 0.039810 0.963869
Zn11  Zn    Zn3+2 0.913210 0.500000 0.039810 0.959654
Zn12  Zn    Zn3+2 0.000000 0.413210 0.539810 0.972462
Zn13  Zn    Zn3+2 0.586790 0.000000 0.539810 0.964021
Zn14  Zn    Zn3+2 1.000000 0.586790 0.539810 0.963259
Zn15  Zn    Zn3+2 0.413210 0.000000 0.539810 0.969064
Zn16  Zn    Zn3+2 0.586760 0.000000 0.960200 0.929165

loop_
_geom_bond_atom_site_label_1
_geom_bond_atom_site_label_2
_ccdc_geom_bond_type
C44   H313  S    
C126  C127  S    
C104  C135  S    
O45   Zn3   S    
C190  C225  S    
C200  C218  A    
C69   H37   S    
C19   C20   S    
C2    C202  S    
C144  O76   S    
C98   H105  S    
C79   C87   S    
O12   Zn4   S    
C48   H321  S    
C4    C194  T    
C188  O41   A    
C183  C197  T    
C15   O51   S    
C84   H76   S    
C48   O62   S    
C143  H209  S    
C72   H43   S    
C142  H205  S    
C190  O28   A    
C46   C198  S    
C117  H148  S    
C64   H31   S    
C162  H252  S    
C132  H183  S    
C20   H201  S    
C24   O52   S    
C97   H108  S    
C70   H32   S    
C108  C109  S    
C109  H127  S    
C75   H52   S    
C110  C111  S    
C203  C238  S    
C127  H171  S    
O12   Zn9   S    
C88   H82   S    
C93   H88   S    
C51   O63   S    
O40   Zn14  S    
C30   H279  S    
O84   Zn7   S    
C139  H197  S    
C215  C233  A    
C54   H3    S    
C73   H42   S    
C174  O9    A    
C155  H238  S    
C162  H253  S    
C63   H18   S    
C146  C210  S    
C45   H317  S    
C59   C60   S    
C21   C22   S    
C124  C208  S    
C65   H28   S    
C50   H327  S    
C60   H15   S    
C133  H185  S    
C66   H27   S    
C27   H273  S    
C210  C228  A    
C130  H178  S    
C154  O80   S    
C104  C105  S    
C150  H225  S    
C185  O22   A    
C45   C47   S    
C150  H226  S    
C186  O43   A    
C176  O14   A    
C51   C52   S    
O29   Zn7   S    
C148  O77   S    
C201  C219  A    
C120  H155  S    
C144  C145  S    
C163  H254  S    
C45   H316  S    
C134  H188  S    
C147  H217  S    
C140  H202  S    
C100  C124  S    
C234  C237  A    
C113  C146  S    
C136  H189  S    
C1    C193  T    
C75   C76   S    
C112  C195  T    
C39   H301  S    
C160  H247  S    
C121  O69   S    
C226  C244  A    
C115  O66   S    
C182  O36   A    
C108  H129  S    
O30   Zn6   S    
C31   H283  S    
O28   Zn8   S    
C71   H47   S    
C240  O73   S    
O42   Zn12  S    
C143  H208  S    
C63   H17   S    
C154  C155  S    
C110  C157  S    
C154  H234  S    
C58   O65   S    
C40   H305  S    
C83   H64   S    
C158  C159  S    
C59   H12   S    
C172  C196  T    
C11   O50   S    
C209  C226  A    
C61   H23   S    
C61   H22   S    
C91   C92   S    
C47   H319  S    
C178  C220  S    
C44   O61   S    
C28   C29   S    
O6    Zn9   S    
O12   Zn2   S    
O78   Zn2   S    
C99   H104  S    
C167  C195  S    
C87   H85   S    
C72   C73   S    
C241  O74   S    
C57   O55   S    
C46   C77   S    
C166  H264  S    
C139  C140  S    
C135  O63   S    
C186  C230  S    
C14   H35   S    
C177  O15   A    
C180  O18   A    
C38   O59   S    
C233  C239  A    
C127  H169  S    
O12   Zn11  S    
C64   C65   S    
O2    Zn8   S    
C7    C227  T    
C239  O72   S    
C138  O74   S    
C188  O26   A    
C126  H166  S    
C86   H73   S    
C69   C70   S    
C187  C229  S    
C164  H259  S    
C54   H336  S    
C88   C89   S    
C36   H292  S    
C31   O57   S    
C98   C99   S    
C245  C248  A    
C155  C156  S    
C50   H325  S    
C151  O79   S    
C22   C23   S    
C66   H25   S    
C180  C218  S    
C115  H141  S    
O23   Zn14  S    
C152  H229  S    
C51   H330  S    
C80   H55   S    
C77   H61   S    
C157  C209  S    
C148  H218  S    
C158  H243  S    
C144  H211  S    
C229  C246  A    
C41   H306  S    
C156  H241  S    
C53   H333  S    
C128  C129  S    
C103  H110  S    
C16   H90   S    
C97   C98   S    
C121  H156  S    
C175  C227  S    
C85   C86   S    
C120  H154  S    
C161  H250  S    
O13   Zn15  S    
C49   H324  S    
C176  C222  S    
C58   H10   S    
O46   Zn15  S    
C36   C37   S    
C223  C241  A    
C218  C235  A    
C184  O21   A    
C140  H200  S    
C78   C80   S    
C8    O49   S    
C78   H59   S    
C7    C112  S    
C74   H53   S    
C10   H304  S    
C123  H161  S    
C202  C220  A    
C235  C241  A    
O37   Zn11  S    
C62   H20   S    
C179  O32   A    
C167  O45   A    
C86   H72   S    
C117  H145  S    
C64   H30   S    
C24   C57   S    
C118  H150  S    
C199  C202  A    
C107  C108  S    
C116  H144  S    
C169  O3    A    
C9    C10   S    
O8    Zn11  S    
C137  H193  S    
C213  C231  A    
C169  O84   A    
C187  O40   A    
C23   H257  S    
C113  O61   S    
C156  H239  S    
C68   O57   S    
C42   H308  S    
C191  O44   A    
C9    H271  S    
C100  C102  S    
C166  H262  S    
C102  H114  S    
C2    O50   S    
C133  H184  S    
O33   Zn1   S    
C60   H14   S    
C20   H179  S    
C30   H281  S    
C39   C40   S    
C107  C146  S    
C151  H228  S    
O36   Zn1   S    
C25   C26   S    
C79   O58   S    
C158  O81   S    
C32   H285  S    
C55   H5    S    
C17   H124  S    
C91   H92   S    
C22   H246  S    
C42   H309  S    
C168  O56   A    
C146  O64   S    
C29   C30   S    
C119  H151  S    
C163  H255  S    
C31   C32   S    
C36   H294  S    
C82   H67   S    
C243  C246  A    
C37   H295  S    
C3    O83   S    
C26   H269  S    
C106  H120  S    
O22   Zn5   S    
C92   H89   S    
C28   H275  S    
C90   O59   S    
C94   H99   S    
C95   H97   S    
C153  H231  S    
C168  C193  S    
C56   H8    S    
C181  C217  S    
C182  C215  S    
C29   H278  S    
C21   O53   S    
C53   H335  S    
C38   H298  S    
C52   C53   S    
O17   Zn4   S    
C169  C197  S    
C129  C130  S    
C44   H314  S    
C134  O73   S    
C54   C55   S    
C83   H65   S    
C4    C172  S    
C13   C206  S    
C25   H268  S    
C136  C137  S    
C98   H106  S    
C80   H58   S    
C41   O60   S    
O26   Zn8   S    
C48   H322  S    
C160  H249  S    
C189  O47   A    
C210  C213  A    
O15   Zn2   S    
C191  O29   A    
C72   H44   S    
C100  H117  S    
O32   Zn11  S    
C246  O80   S    
C142  H206  S    
C21   H212  S    
C117  H147  S    
C16   H79   S    
C10   H282  S    
C145  H214  S    
C97   H107  S    
C131  H181  S    
C109  H126  S    
C34   C36   S    
C3    C244  A    
C238  O49   S    
C75   H51   S    
C61   C62   S    
C57   C81   S    
C141  O75   S    
C83   H63   S    
C93   H87   S    
C101  O60   S    
C105  H122  S    
C6    C216  T    
C152  C153  S    
C49   C50   S    
C57   C201  S    
C114  H133  S    
C55   H4    S    
C73   H41   S    
C22   H235  S    
C177  C221  S    
C34   H291  S    
C155  H237  S    
C230  C247  A    
O5    Zn1   S    
C141  H204  S    
C2    C35   S    
C181  O19   A    
C164  H258  S    
C87   C88   S    
C35   C74   S    
C50   H328  S    
C41   C42   S    
C60   H16   S    
C111  H138  S    
C138  H196  S    
C189  C226  S    
C199  C217  A    
C178  O16   A    
C214  C232  A    
O23   Zn12  S    
C181  O39   A    
C161  C162  S    
C159  H245  S    
C99   H102  S    
C110  H139  S    
C77   C78   S    
C121  H158  S    
C8    H112  S    
C26   C27   S    
C189  O27   A    
C144  H210  S    
C61   C238  S    
C135  C207  S    
C164  C165  S    
C67   H38   S    
C17   H113  S    
C171  O5    A    
C34   H290  S    
C103  H111  S    
C18   H135  S    
C14   H24   S    
C81   H70   S    
C69   H36   S    
C198  C215  A    
C104  H123  S    
C114  H136  S    
C12   H2    S    
C20   H190  S    
C18   C19   S    
C106  H118  S    
C173  O6    A    
C35   O53   S    
C92   H91   S    
C160  H248  S    
O27   Zn5   S    
C190  O48   A    
C24   C204  S    
C231  C248  A    
C164  O83   S    
C108  H130  S    
C16   C17   S    
O25   Zn7   S    
C148  H219  S    
C89   H81   S    
C151  C152  S    
O34   Zn8   S    
C143  H207  S    
C43   H312  S    
C52   H332  S    
C28   O55   S    
C122  H159  S    
C101  C157  S    
C59   H11   S    
C79   C212  S    
C96   H95   S    
C27   H272  S    
C243  O76   S    
C145  C147  S    
C166  H263  S    
C150  H222  S    
C187  O25   A    
C149  H221  S    
C35   C199  S    
C68   C84   S    
C184  O37   A    
C178  O31   A    
C84   C85   S    
C37   H297  S    
C123  H163  S    
O1    Zn10  S    
C40   H303  S    
C233  O66   S    
C1    C6    S    
C109  H128  S    
C96   H96   S    
C147  H215  S    
C185  O42   A    
O23   Zn7   S    
C235  O69   S    
C159  H244  S    
C170  O4    A    
C159  C160  S    
C149  H220  S    
C101  C214  S    
C139  H198  S    
O67   Zn16  S    
C91   H93   S    
C137  H192  S    
C126  H167  S    
C9    H223  S    
C23   H265  S    
O19   Zn4   S    
C19   H168  S    
C153  H233  S    
C244  O77   S    
C221  C239  A    
C65   H29   S    
C125  C126  S    
C220  C237  A    
C66   H26   S    
C27   H274  S    
C42   C43   S    
C130  H177  S    
C131  C132  S    
C128  H172  S    
C44   C45   S    
C80   H56   S    
C162  C163  S    
C211  C229  A    
C204  C222  A    
C90   C124  S    
C46   O54   S    
C23   H266  S    
C217  C234  A    
C103  H109  S    
C119  C120  S    
C134  H187  S    
C225  C243  A    
C70   H33   S    
C79   C135  S    
C105  C106  S    
C234  O68   S    
C209  C214  A    
C49   H323  S    
C124  O62   S    
C32   C33   S    
C248  O82   S    
C58   C59   S    
C237  O71   S    
C70   H34   S    
C149  C150  S    
C76   H50   S    
C224  C242  A    
C90   C91   S    
C38   C39   S    
C107  H132  S    
C208  C211  A    
C78   H60   S    
C31   H284  S    
C175  O13   A    
C222  C240  A    
C92   C93   S    
O9    Zn12  S    
O24   Zn6   S    
C74   H54   S    
C111  C114  S    
C99   H103  S    
C12   H13   S    
O34   Zn6   S    
C94   C95   S    
C43   H310  S    
C33   H289  S    
C85   H74   S    
C100  H116  S    
C11   H315  S    
C138  C139  S    
C62   H21   S    
C71   C72   S    
C192  O46   A    
C34   O58   S    
C141  H203  S    
C82   C83   S    
O18   Zn16  S    
C198  C203  A    
C142  C143  S    
O44   Zn12  S    
C173  C205  S    
C188  C232  S    
C191  C224  S    
C5    C183  S    
C115  C116  S    
C18   O52   S    
C47   H320  S    
C170  C196  S    
O35   Zn9   S    
C165  C166  S    
C167  O67   A    
C84   H77   S    
C14   H46   S    
C157  O65   S    
O34   Zn15  S    
C156  H240  S    
O4    Zn6   S    
C95   C96   S    
C73   H40   S    
C113  C213  S    
O43   Zn13  S    
C11   H326  S    
C81   C82   S    
C33   H288  S    
C21   H224  S    
C102  H115  S    
O41   Zn15  S    
C132  H182  S    
C62   C63   S    
O20   Zn3   S    
O14   Zn16  S    
C76   H48   S    
C127  H170  S    
C152  H230  S    
O23   Zn5   S    
C88   H83   S    
C71   H45   S    
C128  H173  S    
C13   O51   S    
C151  H227  S    
O48   Zn13  S    
C170  O2    A    
C17   H101  S    
C15   C16   S    
O11   Zn14  S    
O1    Zn1   S    
C32   H286  S    
C116  C117  S    
C203  C221  A    
C137  H194  S    
C33   H287  S    
O16   Zn3   S    
C118  C119  S    
C67   H39   S    
C163  H256  S    
C39   H300  S    
C184  C219  S    
C85   H75   S    
C104  H125  S    
C94   C101  S    
C132  C133  S    
C182  O20   A    
O39   Zn9   S    
C115  H142  S    
C107  H131  S    
C125  O70   S    
C174  C216  S    
C176  O33   A    
C28   H276  S    
C51   H329  S    
C29   H277  S    
C94   H100  S    
C77   H62   S    
O10   Zn13  S    
C54   O64   S    
C207  C224  A    
C158  H242  S    
C89   H78   S    
C41   H307  S    
O3    Zn5   S    
C102  C103  S    
C171  C194  S    
C118  O68   S    
C53   H334  S    
C136  H191  S    
C38   H299  S    
C19   H157  S    
C2    C64   S    
C242  O75   S    
C165  H261  S    
C15   H57   S    
C147  H216  S    
C185  C231  S    
C8    H1    S    
C161  H251  S    
C74   C75   S    
C161  O82   S    
C58   H9    S    
C25   H267  S    
C130  H176  S    
C96   H94   S    
C148  C149  S    
C140  H199  S    
C129  H175  S    
C8    C9    S    
C134  C136  S    
C228  C245  A    
C171  O7    A    
C236  C240  A    
C179  C223  S    
C67   C69   S    
C123  H162  S    
C177  O35   A    
C25   O54   S    
C208  C225  A    
C165  H260  S    
C212  C230  A    
C15   H68   S    
C40   H302  S    
C206  C223  A    
C118  H149  S    
C55   C56   S    
C145  H213  S    
C121  C122  S    
C30   H280  S    
C247  O81   S    
C116  H143  S    
C179  O17   A    
O1    Zn16  S    
C52   H331  S    
C129  H174  S    
O31   Zn10  S    
C47   H318  S    
C26   H270  S    
C93   H86   S    
C105  H121  S    
C12   C14   S    
C173  O8    A    
C56   H6    S    
C207  C212  A    
C114  H134  S    
C201  C204  A    
C125  H165  S    
C56   H7    S    
C97   C113  S    
C174  O11   A    
O56   Zn4   S    
C13   C67   S    
C18   H146  S    
C48   C49   S    
C200  C206  A    
C219  C236  A    
C111  H137  S    
C3    C232  A    
C11   C12   S    
C110  H140  S    
C90   C211  S    
C180  O38   A    
O34   Zn13  S    
O1    Zn3   S    
C242  C247  A    
C125  H164  S    
C68   C200  S    
C168  O78   A    
C120  H153  S    
C245  O79   S    
C141  C142  S    
C192  O30   A    
C119  H152  S    
O38   Zn10  S    
C10   H293  S    
C81   H69   S    
C86   H71   S    
C63   H19   S    
O21   Zn2   S    
C82   H66   S    
C37   H296  S    
C236  O70   S    
C138  H195  S    
C106  H119  S    
C46   C238  S    
O7    Zn10  S    
C76   H49   S    
C133  H186  S    
C128  O71   S    
C131  H180  S    
C131  O72   S    
O47   Zn14  S    
C5    C205  T    
C87   H84   S    
C192  C228  S    
C95   H98   S    
C153  H232  S    
C65   C66   S    
C175  O10   A    
C89   H80   S    
C186  O24   A    
C122  C123  S    
C43   H311  S    
C13   C68   S    
C24   C71   S    
C154  H236  S    
C122  H160  S    
