data_mof_unit_48220.cif
_audit_creation_date              2013-03-05T16:37:42-0500
_audit_creation_method            fapswitch 2.2
_symmetry_space_group_name_H-M    P1
_symmetry_Int_Tables_number       1
_space_group_crystal_system       triclinic
_cell_length_a                    18.60778
_cell_length_b                    18.740767
_cell_length_c                    19.161362
_cell_angle_alpha                 110.383935
_cell_angle_beta                  110.040484
_cell_angle_gamma                 109.151006
_cell_volume                      5068.27051928

loop_
_atom_site_label
_atom_site_type_symbol
_atom_site_description
_atom_site_fract_x
_atom_site_fract_y
_atom_site_fract_z
_atom_type_partial_charge
O1    O     O_R   0.408360 0.551710 0.460090 -0.633132
O2    O     O_R   0.408390 0.448280 0.356670 -0.623120
C1    C     C_R   0.381723 0.502064 0.380398 0.874389
O3    O     O_R   0.591600 0.643340 0.551710 -0.651803
O4    O     O_R   0.591630 0.539900 0.448290 -0.570169
C2    C     C_R   0.619942 0.621690 0.500821 0.956546
Zn1   Zn    Zn3+2 0.499980 0.569070 0.569050 1.005571
Zn2   Zn    Zn3+2 0.500020 0.430930 0.430950 1.058729
O5    O     O_R   0.591610 0.551720 0.643330 -0.613325
O6    O     O_R   0.591640 0.448290 0.539910 -0.606361
O7    O     O_R   0.408370 0.460100 0.551710 -0.595804
O8    O     O_R   0.408400 0.356660 0.448290 -0.611749
C3    C     C_R   0.624981 0.504015 0.619807 0.929588
C4    C     C_R   0.378394 0.379552 0.497948 0.865445
C5    C     C_R   0.713485 0.844236 0.769120 -0.174956
H1    H     H_    0.661213 0.848837 0.779661 0.193908
C6    C     C_R   0.699985 0.814786 0.685651 -0.175896
H2    H     H_    0.639362 0.800778 0.634882 0.167181
C7    C     C_R   0.763241 0.802225 0.667704 0.103445
C8    C     C_R   0.844731 0.829216 0.737393 -0.153884
H3    H     H_    0.896535 0.825800 0.725126 0.216034
C9    C     C_R   0.861958 0.864962 0.823059 0.231183
C10   C     C_R   0.793453 0.868092 0.838465 0.298887
C11   C     C_R   0.815077 0.833626 0.574728 -0.230773
C12   C     C_R   0.810532 0.813555 0.495821 -0.069154
C13   C     C_R   0.740146 0.734973 0.418066 -0.004307
C14   C     C_R   0.678290 0.673779 0.422488 -0.238979
C15   C     C_R   0.684410 0.691600 0.502160 -0.026193
C16   C     C_R   0.751678 0.774555 0.579641 0.072287
C17   C     C_R   0.653628 0.699205 0.266001 -0.151756
H4    H     H_    0.602768 0.705671 0.278259 0.129931
C18   C     C_R   0.642561 0.676465 0.183835 -0.103789
H5    H     H_    0.583636 0.665634 0.133253 0.151233
C19   C     C_R   0.707155 0.666979 0.166746 -0.071266
C20   C     C_R   0.782950 0.680423 0.231857 -0.137490
C21   C     C_R   0.794949 0.704575 0.314549 -0.129528
C22   C     C_R   0.730208 0.713850 0.332087 0.127785
H6    H     H_    0.618297 0.903885 0.566527 0.137968
C23   C     C_R   0.487514 0.809432 0.528340 -0.089747
H7    H     H_    0.488854 0.851991 0.584678 0.187628
C24   C     C_R   0.412479 0.725632 0.465404 -0.019798
H8    H     H_    0.355305 0.704237 0.472707 0.148200
C25   C     C_R   0.411046 0.670272 0.392655 0.140882
C26   C     C_R   0.485494 0.699211 0.383913 -0.128345
H9    H     H_    0.485014 0.657344 0.327795 0.121442
C27   C     C_R   0.559760 0.783530 0.446283 -0.121389
H10   H     H_    0.616532 0.806262 0.438726 0.145885
C28   C     C_R   0.560582 0.838773 0.518165 -0.144511
C29   C     C_R   0.262985 0.583666 0.257555 0.270435
C30   C     C_R   0.188860 0.501640 0.186104 -0.218164
C31   C     C_R   0.179399 0.421047 0.179015 -0.023442
C32   C     C_R   0.243914 0.423695 0.244595 -0.222679
H11   H     H_    0.236956 0.362373 0.240666 0.174521
C33   C     C_R   0.317601 0.504389 0.314978 -0.109995
C34   C     C_R   0.329153 0.584991 0.321686 -0.129564
C35   C     C_R   0.045636 0.275184 0.115171 -0.206279
H12   H     H_    0.056032 0.292786 0.179217 0.145243
C36   C     C_R   0.972342 0.194186 0.043780 -0.151587
H13   H     H_    0.927662 0.150700 0.054016 0.207604
C37   C     C_R   0.957441 0.169119 0.959874 0.398680
C38   C     C_R   0.016907 0.226026 0.948505 -0.131140
C39   C     C_R   0.089592 0.307623 0.019639 -0.165993
H14   H     H_    0.134144 0.351126 0.009286 0.134633
C40   C     C_R   0.103934 0.333274 0.103513 0.146027
H15   H     H_    0.167769 0.555813 0.434959 0.160433
C41   C     C_R   0.230239 0.528992 0.532119 -0.182668
H16   H     H_    0.253849 0.593646 0.584585 0.182832
C42   C     C_R   0.249310 0.468126 0.549544 0.385098
C43   C     C_R   0.217089 0.383935 0.478066 -0.022671
C44   C     C_R   0.167757 0.364125 0.392810 -0.212141
H17   H     H_    0.143308 0.300704 0.337831 0.169119
C45   C     C_R   0.150108 0.425879 0.377680 -0.112857
H18   H     H_    0.112275 0.410518 0.312122 0.146578
C46   C     C_R   0.181360 0.508041 0.447071 -0.150132
C47   C     C_R   0.173304 0.251044 0.490765 -0.150559
H19   H     H_    0.113309 0.251692 0.484313 0.177673
C48   C     C_R   0.189200 0.186497 0.501856 -0.074909
C49   C     C_R   0.267599 0.185903 0.511355 0.080369
C50   C     C_R   0.328239 0.249682 0.508255 -0.160660
C51   C     C_R   0.311718 0.313168 0.496649 -0.043615
C52   C     C_R   0.234916 0.315732 0.489301 0.066168
C53   C     C_R   0.334274 0.142643 0.612617 -0.224542
H20   H     H_    0.348660 0.202562 0.665010 0.174264
C54   C     C_R   0.360723 0.087339 0.632417 -0.225272
C55   C     C_R   0.343755 0.009701 0.566252 0.307153
C56   C     C_R   0.299711 0.988495 0.479725 -0.292432
H21   H     H_    0.287120 0.928863 0.428624 0.241635
C57   C     C_R   0.272713 0.043636 0.458311 0.270508
C58   C     C_R   0.289867 0.121656 0.526334 0.000131
H22   H     H_    0.621511 0.493005 0.750441 0.168771
C59   C     C_R   0.795305 0.521373 0.621646 0.209397
C60   C     C_R   0.865929 0.511920 0.616044 0.312003
C61   C     C_R   0.909789 0.484260 0.665548 -0.227188
H23   H     H_    0.963505 0.476156 0.661438 0.223159
C62   C     C_R   0.891295 0.475344 0.726884 -0.251289
H24   H     H_    0.931132 0.458397 0.766618 0.181088
C63   C     C_R   0.824296 0.488841 0.737161 0.062137
C64   C     C_R   0.769873 0.504277 0.679214 -0.061733
C65   C     C_R   0.694869 0.504726 0.684400 -0.067612
C66   C     C_R   0.679163 0.494576 0.747540 -0.241327
H25   H     H_    0.726839 0.484442 0.859528 0.159599
C67   C     C_R   0.737416 0.487146 0.808060 -0.238606
C68   C     C_R   0.811200 0.487923 0.805064 -0.061513
O9    O     O_R   0.051730 0.908360 0.460070 -0.639195
O10   O     O_R   0.948280 0.908380 0.356650 -0.567801
C69   C     C_R   0.001736 0.880703 0.380136 0.895196
O11   O     O_R   0.960110 0.908350 0.551690 -0.590923
O12   O     O_R   0.856660 0.908370 0.448270 -0.625748
C70   C     C_R   0.878945 0.878229 0.497175 0.855617
Zn3   Zn    Zn3+2 0.069080 0.999960 0.569030 1.044977
Zn4   Zn    Zn3+2 0.930920 0.999990 0.430930 1.072914
O13   O     O_R   0.051720 0.091580 0.643310 -0.596369
O14   O     O_R   0.948270 0.091600 0.539890 -0.617752
O15   O     O_R   0.143340 0.091590 0.551680 -0.633005
O16   O     O_R   0.039890 0.091610 0.448270 -0.584706
C71   C     C_R   0.001581 0.121584 0.620143 0.864018
C72   C     C_R   0.121294 0.119688 0.500264 0.895279
O17   O     O_R   0.051710 0.460040 0.908380 -0.616516
O18   O     O_R   0.948270 0.356620 0.908410 -0.614122
C73   C     C_R   0.996705 0.378871 0.877462 0.828345
O19   O     O_R   0.143330 0.551680 0.091590 -0.577047
O20   O     O_R   0.039890 0.448260 0.091620 -0.618733
C74   C     C_R   0.120983 0.500504 0.119954 0.927165
Zn5   Zn    Zn3+2 0.069060 0.569020 0.999970 1.045633
Zn6   Zn    Zn3+2 0.930920 0.430910 0.000010 0.988232
O21   O     O_R   0.051700 0.643310 0.091570 -0.590208
O22   O     O_R   0.948260 0.539890 0.091600 -0.636980
O23   O     O_R   0.960080 0.551670 0.908360 -0.623380
O24   O     O_R   0.856640 0.448250 0.908390 -0.628784
C75   C     C_R   0.998037 0.620417 0.117148 0.926843
C76   C     C_R   0.878881 0.496988 0.878046 0.834721
H26   H     H_    0.109171 0.710697 0.600368 0.181666
C77   C     C_R   0.151269 0.795206 0.552702 -0.143554
H27   H     H_    0.215262 0.842377 0.611923 0.180668
C78   C     C_R   0.129060 0.807544 0.482050 -0.015439
H28   H     H_    0.176522 0.863559 0.486683 0.154688
C79   C     C_R   0.045841 0.747348 0.405333 0.122038
C80   C     C_R   0.986871 0.672342 0.398954 -0.241300
H29   H     H_    0.924037 0.622915 0.338923 0.150199
C81   C     C_R   0.009756 0.659312 0.468994 -0.043018
C82   C     C_R   0.091573 0.721019 0.546173 -0.080517
C83   C     C_R   0.021631 0.690034 0.259798 -0.160711
H30   H     H_    0.035912 0.640771 0.267999 0.173568
C84   C     C_R   0.999579 0.688106 0.182321 -0.114870
C85   C     C_R   0.981690 0.750690 0.168738 -0.118074
C86   C     C_R   0.986479 0.817080 0.235900 0.313622
C87   C     C_R   0.006846 0.817858 0.314743 -0.223160
C88   C     C_R   0.025805 0.754163 0.326874 -0.042558
C89   C     C_R   0.019980 0.778670 0.064040 -0.039880
H31   H     H_    0.089844 0.810751 0.111331 0.186368
C90   C     C_R   0.994322 0.768924 0.982115 -0.057888
C91   C     C_R   0.904348 0.727826 0.920605 -0.047082
H32   H     H_    0.884359 0.720229 0.857159 0.160672
C92   C     C_R   0.840039 0.696947 0.941203 -0.082875
H33   H     H_    0.770582 0.667069 0.894372 0.155905
C93   C     C_R   0.865195 0.703862 0.021902 -0.110676
C94   C     C_R   0.955391 0.745015 0.083873 0.106625
H34   H     H_    0.413640 0.343784 0.830388 0.173772
C95   C     C_R   0.297922 0.257943 0.823031 -0.196125
H35   H     H_    0.329470 0.224725 0.845572 0.186711
C96   C     C_R   0.211457 0.235461 0.806131 0.339627
C97   C     C_R   0.171117 0.279410 0.775046 -0.179165
C98   C     C_R   0.220847 0.347700 0.765929 0.282619
C99   C     C_R   0.308690 0.371313 0.788169 -0.140954
H36   H     H_    0.348430 0.425175 0.784525 0.231989
C100  C     C_R   0.346245 0.325749 0.814898 -0.280748
C101  C     C_R   0.076582 0.324458 0.820167 -0.164388
H37   H     H_    0.137644 0.383602 0.875987 0.155039
C102  C     C_R   0.994495 0.310904 0.810505 -0.110339
C103  C     C_R   0.914496 0.232039 0.740584 0.000488
C104  C     C_R   0.919366 0.171694 0.677880 -0.214013
H38   H     H_    0.858898 0.111864 0.622147 0.147615
C105  C     C_R   0.001428 0.186704 0.686868 -0.005113
C106  C     C_R   0.081438 0.261557 0.760347 0.132466
C107  C     C_R   0.771756 0.128159 0.718705 -0.149242
H39   H     H_    0.794868 0.082127 0.717790 0.186415
C108  C     C_R   0.687407 0.105457 0.707396 -0.089396
H40   H     H_    0.646731 0.042992 0.698933 0.162074
C109  C     C_R   0.655349 0.163066 0.706407 -0.100681
C110  C     C_R   0.707455 0.243139 0.716221 -0.126331
C111  C     C_R   0.791877 0.265913 0.727709 -0.077836
C112  C     C_R   0.825573 0.209452 0.730454 0.111501
N1    N     N_R   0.803512 0.894505 0.922962 0.232386
O25   O     O_R   0.756078 0.925549 0.943812 -0.326400
O26   O     O_R   0.850240 0.876250 0.974551 -0.315469
H41   H     H_    0.698263 0.648726 0.102949 0.132458
H42   H     H_    0.831972 0.671479 0.217891 0.130257
H43   H     H_    0.853868 0.715039 0.364627 0.126689
N2    N     N_R   0.269293 0.665308 0.266594 0.221392
O27   O     O_R   0.208915 0.683288 0.272160 -0.396245
O28   O     O_R   0.335898 0.722318 0.270595 -0.352968
N3    N     N_R   0.881913 0.086512 0.886383 0.192258
O29   O     O_R   0.808542 0.053357 0.886313 -0.387452
O30   O     O_R   0.885190 0.045225 0.818137 -0.427637
H44   H     H_    0.005356 0.207843 0.884073 0.202956
N4    N     N_R   0.302341 0.494177 0.638959 0.228690
O31   O     O_R   0.329521 0.444601 0.658881 -0.418673
O32   O     O_R   0.328297 0.570965 0.701907 -0.347600
H45   H     H_    0.389201 0.250588 0.516069 0.147590
H46   H     H_    0.394468 0.105392 0.699666 0.189583
N5    N     N_R   0.370416 0.952116 0.586497 0.189984
O33   O     O_R   0.417302 0.974786 0.666879 -0.418217
O34   O     O_R   0.346405 0.875579 0.524665 -0.417108
N6    N     N_R   0.229138 0.019051 0.368267 0.228802
O35   O     O_R   0.226014 0.076819 0.346416 -0.335927
O36   O     O_R   0.197410 0.939018 0.306943 -0.379205
N7    N     N_R   0.759120 0.559753 0.578025 0.210195
O37   O     O_R   0.736615 0.530724 0.497088 -0.338607
O38   O     O_R   0.772189 0.637138 0.625088 -0.460654
N8    N     N_R   0.899316 0.538309 0.566553 0.225645
O39   O     O_R   0.918254 0.615809 0.576566 -0.359651
O40   O     O_R   0.927641 0.493800 0.526013 -0.404829
H47   H     H_    0.964462 0.600444 0.462500 0.223730
N9    N     N_R   0.972601 0.884345 0.224535 0.235635
O41   O     O_R   0.895930 0.863655 0.165436 -0.340852
O42   O     O_R   0.034717 0.967046 0.276866 -0.311626
N10   N     N_R   0.950684 0.904128 0.893378 0.230813
O43   O     O_R   0.983970 0.976680 0.965489 -0.286777
O44   O     O_R   0.003995 0.878249 0.879669 -0.388418
H48   H     H_    0.044221 0.793180 0.966370 0.182679
H49   H     H_    0.814636 0.677760 0.036400 0.130812
N11   N     N_R   0.166971 0.168826 0.821589 0.227951
O45   O     O_R   0.108946 0.170393 0.844212 -0.397501
O46   O     O_R   0.189146 0.109333 0.819163 -0.364856
N12   N     N_R   0.183622 0.394626 0.735739 0.214285
O47   O     O_R   0.102841 0.352370 0.670359 -0.398807
O48   O     O_R   0.232924 0.478908 0.768761 -0.316294
H50   H     H_    0.868242 0.896795 0.632958 0.181063
H51   H     H_    0.589911 0.145336 0.697308 0.157995
H52   H     H_    0.682230 0.287327 0.714381 0.147552
H53   H     H_    0.830506 0.326829 0.733413 0.101025
H54   H     H_    0.624969 0.611639 0.363271 0.159660

loop_
_geom_bond_atom_site_label_1
_geom_bond_atom_site_label_2
_geom_bond_distance
_ccdc_geom_bond_type
C41   C42   1.410054 A    
C104  H38   1.085473 S    
C24   H8    1.083248 S    
C61   H23   1.083320 S    
C67   C68   1.389250 A    
O11   C70   1.280393 A    
N5    O33   1.301515 A    
C79   C88   1.482001 S    
C60   N8    1.434847 S    
C62   H24   1.079875 S    
C47   H19   1.084921 S    
O9    C69   1.278309 A    
C63   C64   1.409763 A    
C89   H31   1.083014 S    
C78   H28   1.078390 S    
C101  C102  1.396697 A    
C48   C49   1.411223 A    
C54   H46   1.082388 S    
Zn1   O7    2.010425 S    
C104  C105  1.394513 A    
C110  H52   1.082305 S    
C13   C14   1.384077 A    
H25   C67   1.084064 S    
C53   C58   1.402982 A    
C71   C105  1.428951 S    
C15   C16   1.424624 A    
N12   O47   1.301270 A    
C97   C98   1.419237 A    
C48   C72   1.440187 S    
C89   C90   1.398185 A    
C55   C56   1.405165 A    
C17   H4    1.083182 S    
Zn2   O6    2.023544 S    
C1    C33   1.429675 S    
N9    O42   1.300467 A    
C73   C102  1.435709 S    
C29   N2    1.438187 S    
C103  C104  1.387833 A    
O21   C75   1.273663 A    
C36   C37   1.401911 A    
C5    H1    1.082529 S    
C41   C46   1.393289 A    
O12   C70   1.274857 A    
C78   C79   1.403540 A    
C19   C20   1.396806 A    
C102  C103  1.416160 A    
C19   H41   1.082442 S    
O5    C3    1.289724 A    
C11   C16   1.384892 A    
O19   Zn5   2.031448 S    
C39   C40   1.403169 A    
C87   C88   1.420135 A    
N12   O48   1.300786 A    
C27   H10   1.082110 S    
C83   H30   1.086764 S    
C2    C15   1.442401 S    
C95   H35   1.082584 S    
C26   C27   1.398135 A    
C42   C43   1.426860 A    
O16   C72   1.281198 A    
C90   H48   1.081846 S    
O1    C1    1.277521 A    
C21   C22   1.403073 A    
C90   C91   1.398036 A    
C95   C96   1.405019 A    
C11   C12   1.389245 A    
C44   H17   1.083489 S    
C4    C51   1.425560 S    
C109  H51   1.082679 S    
C75   C84   1.420404 S    
C38   H44   1.078677 S    
C92   C93   1.396940 A    
C55   N5    1.439540 S    
Zn5   O23   2.007342 S    
O14   C71   1.285039 A    
C57   C58   1.421149 A    
C5    C10   1.405069 A    
C41   H16   1.082261 S    
O10   Zn4   2.013562 S    
C61   C62   1.379807 A    
C105  C106  1.408516 A    
C103  C112  1.489252 S    
N6    O35   1.300441 A    
N5    O34   1.301379 A    
C43   C44   1.405462 A    
O3    Zn1   2.026739 S    
H22   C66   1.084485 S    
C101  H37   1.085584 S    
C32   C33   1.391834 A    
C85   C86   1.394774 A    
Zn3   O13   2.013688 S    
C35   C36   1.397148 A    
C49   C58   1.479981 S    
Zn4   O16   2.006639 S    
C42   N4    1.445687 S    
C27   C28   1.396781 A    
C86   N9    1.438579 S    
C50   H45   1.085679 S    
C30   C74   1.438309 S    
C31   C32   1.380668 A    
O15   C72   1.281531 A    
C83   C88   1.377186 A    
C54   C55   1.401160 A    
C45   H18   1.079579 S    
C107  C108  1.398553 A    
C59   C60   1.416371 A    
C49   C50   1.384156 A    
C51   C52   1.405836 A    
C30   C31   1.413107 A    
C12   C13   1.404485 A    
C111  C112  1.402494 A    
C53   C54   1.393199 A    
C57   N6    1.445309 S    
C69   C87   1.446825 S    
N7    O37   1.301583 A    
C17   C22   1.404982 A    
C93   H49   1.083248 S    
C21   H43   1.080753 S    
C20   C21   1.398905 A    
C18   C19   1.397467 A    
C3    C65   1.448192 S    
N1    O25   1.301488 A    
C10   N1    1.440376 S    
C39   H14   1.083158 S    
Zn6   O22   2.009471 S    
Zn6   O24   2.031528 S    
C85   C94   1.481577 S    
C98   N12   1.437804 S    
C107  H39   1.080516 S    
O8    C4    1.279875 A    
Zn2   O8    2.026739 S    
C29   C34   1.395830 A    
C96   N11   1.442202 S    
C66   C67   1.374457 A    
C6    H2    1.078634 S    
N2    O27   1.301032 A    
Zn4   O14   2.021914 S    
O12   Zn4   2.030609 S    
O17   Zn5   2.009385 S    
C32   H11   1.085617 S    
C81   C82   1.397344 A    
N11   O46   1.301691 A    
C47   C48   1.402386 A    
C92   H33   1.081427 S    
C63   C68   1.408083 A    
C80   C81   1.395326 A    
C81   H47   1.079515 S    
C108  H40   1.082540 S    
C107  C112  1.407167 A    
O18   Zn6   2.025892 S    
C45   C46   1.390454 A    
C9    N10   1.439216 S    
N6    O36   1.301812 A    
C53   H20   1.083380 S    
N8    O40   1.301795 A    
C101  C106  1.382465 A    
C25   C26   1.403797 A    
C77   H27   1.082370 S    
O11   Zn3   2.006552 S    
C83   C84   1.381668 A    
C37   N3    1.432563 S    
C36   H13   1.082779 S    
O3    C2    1.269195 A    
C35   H12   1.079660 S    
C8    C9    1.406571 A    
C7    C16   1.493646 S    
O23   C76   1.280008 A    
O13   C71   1.271967 A    
C26   H9    1.083063 S    
H34   C100  1.082561 S    
C24   C25   1.403270 A    
Zn5   O21   2.026019 S    
C86   C87   1.419436 A    
O10   C69   1.286583 A    
C25   C34   1.481046 S    
H26   C82   1.082338 S    
C5    C6    1.394456 A    
Zn3   O15   2.030866 S    
C33   C34   1.406139 A    
C99   H36   1.079514 S    
C56   H21   1.082266 S    
H6    C28   1.082344 S    
N4    O32   1.301753 A    
O9    Zn3   2.021832 S    
C47   C52   1.385155 A    
C31   C40   1.484924 S    
C111  H53   1.073655 S    
C91   C92   1.396818 A    
N4    O31   1.299145 A    
O6    C3    1.276510 A    
O4    Zn2   2.010425 S    
C59   N7    1.421323 S    
O18   C73   1.276638 A    
C62   C63   1.413333 A    
C13   C22   1.481192 S    
C97   C106  1.490578 S    
C12   C70   1.425966 S    
C109  C110  1.396832 A    
N10   O44   1.301461 A    
C79   C80   1.404024 A    
C77   C82   1.397428 A    
C95   C100  1.389937 A    
C84   C85   1.401281 A    
C18   H5    1.082314 S    
C7    C8    1.405964 A    
N1    O26   1.300734 A    
O2    C1    1.277680 A    
N10   O43   1.301429 A    
O22   C75   1.277697 A    
N7    O38   1.297237 A    
C96   C97   1.427434 A    
C65   C66   1.396953 A    
N3    O29   1.300628 A    
C17   C18   1.398432 A    
C35   C40   1.404468 A    
O4    C2    1.293113 A    
C68   C76   1.434441 S    
O20   Zn6   2.007219 S    
N9    O41   1.300763 A    
C99   C100  1.389489 A    
C60   C61   1.387106 A    
C6    C7    1.400702 A    
C64   C65   1.435282 A    
C108  C109  1.396734 A    
C56   C57   1.408314 A    
N8    O39   1.301607 A    
C59   C64   1.431038 A    
C38   C39   1.397517 A    
N11   O45   1.298946 A    
O17   C73   1.283601 A    
O19   C74   1.282367 A    
C98   C99   1.402092 A    
C43   C52   1.486946 S    
C80   H29   1.083328 S    
H15   C46   1.082790 S    
C50   C51   1.391761 A    
C23   H7    1.082059 S    
Zn1   O5    2.015328 S    
C14   H54   1.085306 S    
C93   C94   1.403043 A    
C8    H3    1.083448 S    
C23   C24   1.399325 A    
C20   H42   1.080828 S    
C29   C30   1.410122 A    
O2    Zn2   2.015329 S    
C14   C15   1.398491 A    
C77   C78   1.397970 A    
C9    C10   1.417869 A    
C37   C38   1.400713 A    
O1    Zn1   2.023544 S    
C44   C45   1.396111 A    
C91   H32   1.082278 S    
N2    O28   1.300933 A    
O20   C74   1.276400 A    
C11   H50   1.086277 S    
C89   C94   1.403329 A    
O7    C4    1.273378 A    
C110  C111  1.398582 A    
N3    O30   1.301242 A    
C23   C28   1.398142 A    
O24   C76   1.276892 A    
