data_mof_unit_36135.cif
_audit_creation_date              2012-12-10T20:47:08-0500
_audit_creation_method            fapswitch 2.2
_symmetry_space_group_name_H-M    P1
_symmetry_Int_Tables_number       1
_space_group_crystal_system       triclinic
_cell_length_a                    10.615692
_cell_length_b                    8.910775
_cell_length_c                    8.141771
_cell_angle_alpha                 89.858548
_cell_angle_beta                  91.278385
_cell_angle_gamma                 90.508439
_cell_volume                      769.939036787

loop_
_atom_site_label
_atom_site_type_symbol
_atom_type_description
_atom_site_fract_x
_atom_site_fract_y
_atom_site_fract_z
_atom_type_partial_charge
C1    C     C_R   0.500015 0.218182 0.500103 0.941853
C2    C     C_R   0.071038 0.626045 0.624552 0.026901
C3    C     C_R   0.127361 0.551206 0.491412 -0.291686
C4    C     C_R   0.871833 0.558790 0.498650 -0.325104
C5    C     C_R   0.057776 0.533561 0.342492 0.355264
C6    C     C_R   0.929575 0.561547 0.346340 0.355347
C7    C     C_1   0.499702 0.065263 0.500204 -0.201205
C8    C     C_1   0.499391 0.934724 0.499934 -0.200858
C9    C     C_3   0.056294 0.410287 0.091390 0.125762
C10   C     C_3   0.151462 0.344936 0.973830 -0.307294
C11   C     C_3   0.087126 0.245085 0.844488 -0.977822
C12   C     C_R   0.499282 0.781821 0.499895 0.886353
C13   C     C_3   0.882814 0.790937 0.237637 0.100561
C14   C     C_3   0.761907 0.868687 0.180169 -0.333668
C15   C     C_3   0.774202 0.039449 0.190461 -0.972778
C16   C     C_R   0.259118 0.512579 0.497836 0.927639
C17   C     C_R   0.739573 0.520874 0.501053 0.913658
C18   C     C_R   0.141219 0.716339 0.736952 -0.125669
C19   C     C_R   0.878171 0.721768 0.740535 -0.113489
C20   C     C_R   0.080202 0.812295 0.842841 -0.132083
C21   C     C_R   0.949527 0.819017 0.839283 -0.146700
C22   C     C_R   0.938383 0.626905 0.629491 0.027534
H1    H     H_    0.242398 0.727362 0.733070 0.162788
H2    H     H_    0.159113 0.196939 0.763436 0.271282
H3    H     H_    0.019915 0.311405 0.767813 0.272451
H4    H     H_    0.964635 0.832249 0.167990 0.158176
H5    H     H_    0.900867 0.826429 0.367635 0.119947
H6    H     H_    0.734903 0.834244 0.053246 0.226409
H7    H     H_    0.685486 0.832838 0.260891 0.245804
H8    H     H_    0.792064 0.074661 0.319777 0.261667
H9    H     H_    0.685227 0.091636 0.145654 0.286990
H10   H     H_    0.852528 0.080853 0.114004 0.250752
H11   H     H_    0.777030 0.735440 0.737588 0.148559
H12   H     H_    0.134596 0.888069 0.920889 0.138374
H13   H     H_    0.903766 0.905587 0.906954 0.136007
H14   H     H_    0.981209 0.467269 0.017852 0.209475
H15   H     H_    0.014171 0.315748 0.162479 0.104687
H16   H     H_    0.201830 0.437819 0.911473 0.258167
H17   H     H_    0.222015 0.278142 0.044795 0.218468
H18   H     H_    0.035423 0.151910 0.904544 0.252622
N1    N     N_1   0.500000 0.500000 0.073640 -0.029289
N2    N     N_1   0.500000 0.500000 0.926360 -0.043817
O1    O     O_R   0.500000 0.285350 0.636850 -0.610956
O2    O     O_3   0.870414 0.632941 0.214918 -0.617837
O3    O     O_R   0.500000 0.714650 0.636850 -0.636883
O4    O     O_R   0.500000 0.285360 0.363100 -0.621391
O5    O     O_R   0.500000 0.714640 0.363100 -0.630799
O6    O     O_R   0.316770 0.500000 0.636900 -0.648794
O7    O     O_R   0.683230 0.500000 0.636900 -0.625617
O8    O     O_R   0.316780 0.500000 0.363150 -0.558940
O9    O     O_R   0.683220 0.500000 0.363150 -0.573048
O10   O     O_3   0.118860 0.516230 0.194343 -0.612342
Zn1   Zn    Zn3+2 0.500000 0.500000 0.682780 0.955600
Zn2   Zn    Zn3+2 0.500000 0.500000 0.317220 0.998974

loop_
_geom_bond_atom_site_label_1
_geom_bond_atom_site_label_2
_ccdc_geom_bond_type
C2    C22   A    
C9    H14   S    
C5    O10   S    
C15   H9    S    
C21   H13   S    
O6    Zn1   S    
C2    C18   A    
C4    C22   A    
N1    N2    T    
O4    Zn2   S    
C8    C12   S    
C10   H16   S    
O9    Zn2   S    
C20   H12   S    
C16   O6    A    
C9    H15   S    
C2    C3    A    
O3    Zn1   S    
C7    C8    T    
C6    O2    S    
C13   C14   S    
N1    Zn2   S    
C10   H17   S    
C17   O9    A    
O8    Zn2   S    
C9    O10   S    
O5    Zn2   S    
O7    Zn1   S    
C4    C17   S    
C19   C21   A    
O1    Zn1   S    
C18   C20   A    
C12   O5    A    
N2    Zn1   S    
C19   H11   S    
C5    C6    A    
C1    O4    A    
C13   H4    S    
C10   C11   S    
C11   H3    S    
C14   H7    S    
C11   H18   S    
C11   H2    S    
C15   H10   S    
C19   C22   A    
C20   C21   A    
C15   H8    S    
C4    C6    A    
C9    C10   S    
C17   O7    A    
C14   C15   S    
C13   H5    S    
C14   H6    S    
C1    C7    S    
C1    O1    A    
C13   O2    S    
C3    C16   S    
C18   H1    S    
C16   O8    A    
C12   O3    A    
C3    C5    A    
