data_mof_unit_21822.cif
_audit_creation_date              2012-12-11T14:46:06-0500
_audit_creation_method            fapswitch 2.2
_symmetry_space_group_name_H-M    P1
_symmetry_Int_Tables_number       1
_space_group_crystal_system       triclinic
_cell_length_a                    10.920497
_cell_length_b                    10.938217
_cell_length_c                    18.854746
_cell_angle_alpha                 89.814219
_cell_angle_beta                  90.30896
_cell_angle_gamma                 119.982253
_cell_volume                      1950.79436802

loop_
_atom_site_label
_atom_site_type_symbol
_atom_type_description
_atom_site_fract_x
_atom_site_fract_y
_atom_site_fract_z
_atom_type_partial_charge
C1    C     C_R   0.865067 0.637105 0.603742 0.545481
C2    C     C_R   0.423162 0.625555 0.777659 -0.115862
C3    C     C_R   0.401462 0.616466 0.705433 -0.130096
C4    C     C_R   0.322681 0.671612 0.675405 0.027603
C5    C     C_R   0.838888 0.162256 0.821320 -0.032840
C6    C     C_R   0.087611 0.223076 0.824904 -0.089038
C7    C     C_R   0.208834 0.243557 0.790486 -0.123901
C8    C     C_R   0.205325 0.218691 0.718026 -0.130270
C9    C     C_R   0.082658 0.180751 0.678973 -0.081698
C10   C     C_R   0.961672 0.170993 0.711558 0.011098
C11   C     C_R   0.961737 0.182796 0.786600 -0.001768
C12   C     C_R   0.270253 0.632514 0.603816 0.545045
C13   C     C_R   0.715895 0.116031 0.707541 0.012724
C14   C     C_R   0.724056 0.150954 0.779534 0.029008
C15   C     C_R   0.585306 0.063363 0.671367 -0.067756
C16   C     C_R   0.474269 0.072211 0.701818 -0.118412
C17   C     C_R   0.491026 0.130588 0.768862 -0.140543
C18   C     C_R   0.615196 0.171901 0.807027 -0.073509
C19   C     C_R   0.841359 0.150156 0.671521 -0.043026
C20   C     C_R   0.727544 0.534295 0.713723 -0.138203
C21   C     C_R   0.717948 0.545729 0.786734 -0.157382
C22   C     C_R   0.802878 0.675869 0.819586 0.028284
C23   C     C_R   0.860827 0.221476 0.601659 0.534412
C24   C     C_R   0.888009 0.796314 0.778478 -0.128273
C25   C     C_R   0.895770 0.785581 0.706233 -0.145406
C26   C     C_R   0.821152 0.653797 0.673808 0.022691
C27   C     C_R   0.392357 0.606659 0.295050 -0.133118
C28   C     C_R   0.409703 0.613741 0.222757 -0.121278
C29   C     C_R   0.374485 0.698959 0.181394 0.036964
C30   C     C_R   0.329585 0.784236 0.213990 -0.137433
C31   C     C_R   0.308372 0.774300 0.287032 -0.129043
C32   C     C_R   0.334655 0.680856 0.327219 0.029664
C33   C     C_R   0.766474 0.229414 0.276942 -0.123714
C34   C     C_R   0.864765 0.639424 0.397856 0.546000
C35   C     C_R   0.767516 0.218291 0.204438 -0.129076
C36   C     C_R   0.849942 0.168690 0.172758 0.031383
C37   C     C_R   0.944045 0.146100 0.214247 -0.131583
C38   C     C_R   0.946786 0.162460 0.287627 -0.133838
C39   C     C_R   0.853992 0.199437 0.319346 0.037512
C40   C     C_R   0.917660 0.783137 0.291807 -0.136434
C41   C     C_R   0.913998 0.788327 0.219413 -0.127582
C42   C     C_R   0.810207 0.673524 0.180608 0.037392
C43   C     C_R   0.709256 0.552352 0.216019 -0.153418
C44   C     C_R   0.716644 0.544840 0.289548 -0.144299
C45   C     C_R   0.273062 0.635875 0.397078 0.547795
C46   C     C_R   0.824471 0.658953 0.327233 0.033906
C47   C     C_R   0.807479 0.105754 0.895090 0.528888
C48   C     C_R   0.400101 0.702494 0.895231 0.545804
C49   C     C_R   0.793974 0.696483 0.894902 0.547195
C50   C     C_R   0.809268 0.108391 0.102091 0.546503
C51   C     C_R   0.403874 0.707436 0.106080 0.550436
C52   C     C_R   0.796493 0.697172 0.105997 0.548947
C53   C     C_R   0.863969 0.234287 0.394158 0.545045
C54   C     C_R   0.270761 0.741402 0.717904 -0.125065
C55   C     C_R   0.295582 0.753414 0.790468 -0.130662
C56   C     C_R   0.368034 0.691434 0.820516 0.040586
Cr1   Cr    Cr6+3 0.791660 0.390250 0.499930 1.009436
Cr2   Cr    Cr6+3 0.098520 0.708290 0.500540 1.002393
Cr3   Cr    Cr6+3 0.109770 0.401430 0.499480 1.010484
Cr4   Cr    Cr6+3 0.874790 0.925890 0.000070 1.007620
Cr5   Cr    Cr6+3 0.574120 0.948670 0.999300 1.015640
Cr6   Cr    Cr6+3 0.551420 0.625320 0.000920 1.004321
H1    H     H_    0.376952 0.037772 0.672535 0.103360
H2    H     H_    0.571495 0.021307 0.618130 0.123389
H3    H     H_    0.407012 0.141779 0.791939 0.100621
H4    H     H_    0.668275 0.431079 0.689416 0.146491
H5    H     H_    0.647139 0.453692 0.817499 0.108836
H6    H     H_    0.949608 0.899935 0.802086 0.153782
H7    H     H_    0.967016 0.879063 0.676426 0.129097
H8    H     H_    0.415405 0.535756 0.325021 0.128601
H9    H     H_    0.450472 0.551242 0.199242 0.139434
H10   H     H_    0.306834 0.854138 0.182990 0.118018
H11   H     H_    0.255148 0.806665 0.823045 0.120441
H12   H     H_    0.263567 0.832842 0.311132 0.132051
H13   H     H_    0.697851 0.263714 0.299573 0.131667
H14   H     H_    0.019228 0.144550 0.319454 0.114571
H15   H     H_    0.000864 0.873645 0.319363 0.124060
H16   H     H_    0.626105 0.464382 0.187079 0.109010
H17   H     H_    0.483015 0.580377 0.800174 0.140518
H18   H     H_    0.440851 0.561241 0.673604 0.127453
H19   H     H_    0.305456 0.278322 0.820396 0.103462
H20   H     H_    0.298373 0.230141 0.691771 0.102951
H21   H     H_    0.082951 0.156179 0.623525 0.126857
H22   H     H_    0.625796 0.223009 0.857497 0.131868
O1    O     O_R   0.766500 0.250040 0.579790 -0.516674
O2    O     O_R   0.218690 0.701900 0.425960 -0.507058
O3    O     O_R   0.249490 0.516440 0.419420 -0.523325
O4    O     O_R   0.982880 0.281910 0.424890 -0.504724
O5    O     O_3   0.999980 0.499990 0.499980 -0.237731
O6    O     O_R   0.895110 0.806860 0.920430 -0.523681
O7    O     O_R   0.872260 0.046970 0.925000 -0.507051
O8    O     O_R   0.691430 0.085060 0.918550 -0.524660
O9    O     O_R   0.451490 0.822460 0.925250 -0.495643
O10   O     O_R   0.413330 0.603360 0.920440 -0.530476
O11   O     O_R   0.676110 0.626250 0.926750 -0.511045
O12   O     O_R   0.798570 0.516780 0.574780 -0.504114
O13   O     O_R   0.895350 0.809870 0.080950 -0.526964
O14   O     O_R   0.872490 0.049760 0.073800 -0.508302
O15   O     O_R   0.691680 0.088070 0.079070 -0.524722
O16   O     O_R   0.451720 0.825250 0.074050 -0.500945
O17   O     O_R   0.413580 0.606370 0.080960 -0.527508
O18   O     O_R   0.676340 0.629040 0.075550 -0.507772
O19   O     O_3   0.666780 0.833290 0.000090 -0.245625
O20   O     O_R   0.984000 0.732950 0.581090 -0.531739
O21   O     O_R   0.218600 0.700890 0.574760 -0.513491
O22   O     O_R   0.249390 0.515350 0.579940 -0.516630
O23   O     O_R   0.982790 0.280900 0.573700 -0.504301
O24   O     O_R   0.766600 0.251130 0.419260 -0.530205
O25   O     O_R   0.798660 0.517790 0.425980 -0.508776
O26   O     O_R   0.984100 0.734040 0.420570 -0.528532
H23   H     H_    0.205948 0.781383 0.695641 0.139108
H24   H     H_    0.695868 0.239261 0.173678 0.129359
H25   H     H_    0.010120 0.109799 0.190502 0.118080
H26   H     H_    0.992264 0.884864 0.194202 0.128013
H27   H     H_    0.642433 0.448467 0.316403 0.115469
H28   H     H_    0.094984 0.244976 0.881171 0.129393

loop_
_geom_bond_atom_site_label_1
_geom_bond_atom_site_label_2
_ccdc_geom_bond_type
C55   C56   A    
C41   C42   A    
C14   C18   A    
C35   C36   A    
C49   O6    A    
C7    C8    A    
C38   H14   S    
C43   H16   S    
C40   C46   A    
C5    C47   S    
C52   O18   A    
C50   O15   A    
C33   C39   A    
Cr1   O5    S    
C28   H9    S    
C8    H20   S    
C20   H4    S    
C28   C29   A    
Cr5   O19   S    
C39   C53   S    
C5    C11   A    
Cr4   O14   S    
Cr3   O5    S    
C30   C31   A    
Cr5   O9    S    
C37   H25   S    
C15   C16   A    
C52   O13   A    
C32   C45   S    
Cr3   O4    S    
C2    H17   S    
C33   H13   S    
Cr1   O25   S    
C44   H27   S    
C8    C9    A    
Cr1   O12   S    
C18   H22   S    
C15   H2    S    
C34   C46   S    
C16   H1    S    
C4    C12   S    
Cr4   O19   S    
C9    C10   A    
C41   H26   S    
Cr5   O8    S    
Cr6   O17   S    
C4    C54   A    
C13   C14   A    
C21   H5    S    
Cr5   O15   S    
C47   O8    A    
C3    H18   S    
Cr2   O2    S    
C44   C46   A    
C50   O14   A    
Cr3   O22   S    
C48   O9    A    
C13   C19   A    
C24   C25   A    
Cr4   O13   S    
C6    C11   A    
C16   C17   A    
C31   H12   S    
C25   C26   A    
Cr3   O23   S    
C19   C23   S    
C43   C44   A    
C37   C38   A    
C31   C32   A    
C10   C19   A    
C23   O23   A    
C17   C18   A    
C49   O11   A    
C1    O20   A    
C6    H28   S    
C5    C14   A    
C27   H8    S    
C48   O10   A    
C9    H21   S    
C22   C49   S    
C40   C41   A    
C7    H19   S    
C13   C15   A    
C1    C26   S    
C34   O26   A    
C22   C24   A    
Cr5   O16   S    
C25   H7    S    
C42   C43   A    
C3    C4    A    
C36   C50   S    
Cr6   O19   S    
C29   C51   S    
Cr4   O7    S    
C51   O16   A    
C48   C56   S    
C54   C55   A    
C36   C37   A    
C45   O3    A    
C27   C32   A    
Cr2   O26   S    
C47   O7    A    
C12   O21   A    
C30   H10   S    
C6    C7    A    
Cr4   O6    S    
C51   O17   A    
C17   H3    S    
Cr2   O21   S    
C21   C22   A    
Cr6   O10   S    
C2    C3    A    
C2    C56   A    
C12   O22   A    
C53   O24   A    
C38   C39   A    
C20   C26   A    
C1    O12   A    
C33   C35   A    
Cr1   O1    S    
C54   H23   S    
C45   O2    A    
C53   O4    A    
Cr2   O5    S    
Cr3   O3    S    
C10   C11   A    
C24   H6    S    
C29   C30   A    
C55   H11   S    
Cr1   O24   S    
Cr2   O20   S    
C20   C21   A    
C23   O1    A    
C27   C28   A    
C34   O25   A    
C40   H15   S    
Cr6   O11   S    
C35   H24   S    
C42   C52   S    
Cr6   O18   S    
