data_mof_unit_16477.cif
_audit_creation_date              2012-10-26T21:14:24-0400
_audit_creation_method            fapswitch 2.2
_symmetry_space_group_name_H-M    P1
_symmetry_Int_Tables_number       1
_space_group_crystal_system       triclinic
_cell_length_a                    11.033699
_cell_length_b                    19.287794
_cell_length_c                    18.240283
_cell_angle_alpha                 88.449489
_cell_angle_beta                  102.181603
_cell_angle_gamma                 92.019902
_cell_volume                      3791.29198434

loop_
_atom_site_label
_atom_site_type_symbol
_atom_type_description
_atom_site_fract_x
_atom_site_fract_y
_atom_site_fract_z
_atom_type_partial_charge
C1    C     C_R   0.500536 0.367882 0.500860 0.545882
C2    C     C_R   0.538044 0.928040 0.503386 0.006895
C3    C     C_R   0.423821 0.455652 0.715423 0.128593
C4    C     C_R   0.578126 0.543349 0.284882 0.128589
C5    C     C_R   0.424644 0.457449 0.792437 -0.147275
C6    C     C_R   0.576810 0.541863 0.207796 -0.147177
C7    C     C_R   0.503236 0.503621 0.839283 0.004796
C8    C     C_R   0.496157 0.496864 0.160556 0.005258
C9    C     C_R   0.582640 0.547438 0.806405 -0.150749
C10   C     C_R   0.415124 0.453958 0.193193 -0.151561
C11   C     C_R   0.579217 0.544948 0.728639 0.039888
C12   C     C_R   0.501965 0.632215 0.499384 0.545329
C13   C     C_R   0.418802 0.456229 0.271010 0.037928
C14   C     C_R   0.611897 0.510476 0.976301 -0.114602
C15   C     C_R   0.387331 0.490178 0.023420 -0.114473
C16   C     C_R   0.262901 0.497982 0.469667 0.551696
C17   C     C_R   0.737046 0.501996 0.530328 0.548907
C18   C     C_R   0.610063 0.506640 0.053171 -0.114855
C19   C     C_R   0.389200 0.493902 0.946538 -0.114764
C20   C     C_R   0.497691 0.496703 0.078118 0.034216
C21   C     C_R   0.501560 0.503933 0.921642 0.033955
C22   C     C_2   0.128803 0.487545 0.452626 -0.033552
C23   C     C_R   0.513020 0.707426 0.499031 0.009914
C24   C     C_2   0.871094 0.512078 0.547434 -0.032145
C25   C     C_2   0.065971 0.507879 0.503141 -0.172447
C26   C     C_2   0.933725 0.492285 0.496663 -0.171553
C27   C     C_R   0.416586 0.746861 0.458735 -0.148430
C28   C     C_R   0.406763 0.249900 0.494495 -0.145460
C29   C     C_R   0.426272 0.818916 0.460854 -0.143259
C30   C     C_R   0.418966 0.178396 0.498075 -0.124183
C31   C     C_R   0.533815 0.852004 0.501479 0.023512
C32   C     C_R   0.536789 0.149348 0.509759 0.018758
C33   C     C_R   0.633429 0.812334 0.540475 0.001012
C34   C     C_R   0.512236 0.293245 0.503810 0.013464
C35   C     C_R   0.644151 0.193482 0.515592 -0.007191
C36   C     C_R   0.621160 0.739858 0.539362 -0.134260
C37   C     C_R   0.629881 0.265480 0.513339 -0.129745
C38   C     C_R   0.929535 0.550736 0.615564 0.027285
C39   C     C_R   0.959831 0.621749 0.610092 -0.110000
C40   C     C_R   0.012535 0.658587 0.674578 -0.115986
C41   C     C_R   0.034673 0.624841 0.744734 -0.103856
C42   C     C_R   0.003422 0.554308 0.750544 -0.123768
C43   C     C_R   0.950235 0.517354 0.686193 -0.096065
C44   C     C_R   0.070322 0.448563 0.384590 0.027569
C45   C     C_R   0.482402 0.959648 0.555460 -0.142198
C46   C     C_R   0.058911 0.480019 0.313276 -0.096150
C47   C     C_R   0.004535 0.443092 0.249133 -0.126492
C48   C     C_R   0.962487 0.374454 0.255816 -0.103278
C49   C     C_R   0.975306 0.342494 0.326636 -0.117731
C50   C     C_R   0.029595 0.379236 0.390908 -0.110511
C51   C     C_R   0.751495 0.844817 0.580973 0.038645
C52   C     C_R   0.754033 0.889340 0.641022 -0.084396
C53   C     C_R   0.866203 0.919865 0.678272 -0.119761
C54   C     C_R   0.976651 0.905620 0.656440 -0.115806
C55   C     C_R   0.975126 0.860795 0.597367 -0.126948
C56   C     C_R   0.597342 0.040923 0.459367 -0.118848
C57   C     C_R   0.863165 0.830225 0.560021 -0.102281
C58   C     C_R   0.770953 0.166955 0.521549 0.023737
C59   C     C_R   0.844193 0.192317 0.471563 -0.112228
C60   C     C_R   0.962727 0.167219 0.475468 -0.130368
C61   C     C_R   0.009612 0.116836 0.529390 -0.116250
C62   C     C_R   0.938246 0.091729 0.579708 -0.115526
C63   C     C_R   0.819719 0.116724 0.576152 -0.088674
C64   C     C_R   0.435932 0.062118 0.623111 0.029718
C65   C     C_R   0.506707 0.110461 0.672261 -0.090195
C66   C     C_R   0.459936 0.137120 0.730837 -0.125610
C67   C     C_R   0.486825 0.031828 0.562082 -0.009446
C68   C     C_R   0.342398 0.115718 0.741201 -0.107254
C69   C     C_R   0.271589 0.067464 0.693123 -0.117871
C70   C     C_R   0.317902 0.040652 0.634401 -0.116300
C71   C     C_R   0.662007 0.937509 0.401920 0.034260
C72   C     C_R   0.791440 0.945059 0.411907 -0.093832
C73   C     C_R   0.852638 0.915993 0.360950 -0.123498
C74   C     C_R   0.784841 0.880280 0.299161 -0.108873
C75   C     C_R   0.655733 0.873460 0.288343 -0.124641
C76   C     C_R   0.594345 0.901668 0.339749 -0.099034
C77   C     C_R   0.336868 0.404601 0.672170 0.081583
C78   C     C_R   0.597944 0.968761 0.455699 0.002821
C79   C     C_R   0.373237 0.336153 0.666934 -0.078212
C80   C     C_R   0.285541 0.284921 0.636464 -0.131508
C81   C     C_R   0.160892 0.301162 0.612673 -0.128648
C82   C     C_R   0.123237 0.368347 0.620708 -0.125197
C83   C     C_R   0.210614 0.419589 0.651443 -0.085926
C84   C     C_R   0.668264 0.592635 0.328685 0.079826
C85   C     C_R   0.633641 0.660184 0.340251 -0.074494
C86   C     C_R   0.722677 0.709113 0.374597 -0.124615
C87   C     C_R   0.847788 0.692528 0.392809 -0.125557
C88   C     C_R   0.883831 0.626834 0.377261 -0.121949
C89   C     C_R   0.542752 0.072985 0.511982 -0.000519
C90   C     C_R   0.794532 0.577141 0.345023 -0.092181
Cu1   Cu    Cu3+1 0.499960 0.500000 0.573360 0.943490
Cu2   Cu    Cu3+1 0.500040 0.500000 0.426640 0.940255
H1    H     H_    0.884267 0.463804 0.448396 0.152838
H2    H     H_    0.301850 0.489598 0.906364 0.097562
H3    H     H_    0.333074 0.721853 0.427113 0.102970
H4    H     H_    0.315219 0.271439 0.484724 0.111616
H5    H     H_    0.349908 0.849140 0.430694 0.104725
H6    H     H_    0.335931 0.145408 0.491041 0.113168
H7    H     H_    0.696238 0.708581 0.569474 0.112137
H8    H     H_    0.710691 0.300204 0.518925 0.099216
H9    H     H_    0.700268 0.516960 0.959692 0.098029
H10   H     H_    0.298924 0.483706 0.039978 0.097316
H11   H     H_    0.942476 0.648404 0.556040 0.108938
H12   H     H_    0.114908 0.537275 0.550875 0.152397
H13   H     H_    0.036051 0.713280 0.670187 0.116357
H14   H     H_    0.075648 0.653389 0.794613 0.107597
H15   H     H_    0.020207 0.528315 0.804918 0.099142
H16   H     H_    0.925859 0.462809 0.691268 0.105207
H17   H     H_    0.091116 0.533178 0.307484 0.105973
H18   H     H_    0.994958 0.467684 0.194252 0.098750
H19   H     H_    0.920337 0.345969 0.206105 0.106615
H20   H     H_    0.943297 0.289244 0.331705 0.099154
H21   H     H_    0.039469 0.353917 0.445499 0.108556
H22   H     H_    0.669800 0.899780 0.659646 0.107852
H23   H     H_    0.364519 0.421452 0.815862 0.093802
H24   H     H_    0.867571 0.954386 0.724258 0.099358
H25   H     H_    0.063413 0.929220 0.685364 0.098072
H26   H     H_    0.060676 0.849701 0.580515 0.099261
H27   H     H_    0.863164 0.795815 0.514256 0.099504
H28   H     H_    0.808904 0.230944 0.428911 0.103424
H29   H     H_    0.018288 0.186873 0.436698 0.100177
H30   H     H_    0.101286 0.097432 0.532196 0.108496
H31   H     H_    0.974670 0.052864 0.621541 0.106257
H32   H     H_    0.766444 0.096632 0.615826 0.103001
H33   H     H_    0.439501 0.927353 0.593089 0.108019
H34   H     H_    0.638298 0.577210 0.184677 0.092776
H35   H     H_    0.638541 0.072349 0.420306 0.125543
H36   H     H_    0.598474 0.127193 0.665918 0.102190
H37   H     H_    0.514853 0.174457 0.768185 0.102825
H38   H     H_    0.306234 0.136493 0.786513 0.108243
H39   H     H_    0.180939 0.050667 0.701599 0.094912
H40   H     H_    0.261429 0.003408 0.597583 0.092289
H41   H     H_    0.844804 0.972809 0.459502 0.129006
H42   H     H_    0.952565 0.921283 0.369279 0.101240
H43   H     H_    0.832310 0.857844 0.259713 0.108206
H44   H     H_    0.603357 0.845789 0.240490 0.105221
H45   H     H_    0.645665 0.584099 0.840204 0.094271
H46   H     H_    0.494334 0.896123 0.330801 0.103523
H47   H     H_    0.469012 0.322369 0.687178 0.110654
H48   H     H_    0.313911 0.232488 0.631586 0.138141
H49   H     H_    0.093182 0.261417 0.589431 0.129284
H50   H     H_    0.026077 0.380317 0.604407 0.112768
H51   H     H_    0.180083 0.470634 0.660839 0.113989
H52   H     H_    0.537760 0.674818 0.323034 0.112864
H53   H     H_    0.694853 0.760104 0.386286 0.138409
H54   H     H_    0.917170 0.730860 0.417642 0.099353
H55   H     H_    0.981079 0.614714 0.389541 0.112241
H56   H     H_    0.350565 0.418144 0.159178 0.093573
H57   H     H_    0.823518 0.526954 0.331311 0.113782
H58   H     H_    0.640307 0.579379 0.704335 0.133369
H59   H     H_    0.356356 0.422535 0.295075 0.135168
H60   H     H_    0.697517 0.510743 0.093261 0.097646
N1    N     N_R   0.499990 0.500020 0.683620 -0.225074
N2    N     N_R   0.500010 0.499980 0.316380 -0.225353
O1    O     O_R   0.499950 0.400180 0.561970 -0.496120
O2    O     O_R   0.500050 0.599820 0.438030 -0.500400
O3    O     O_R   0.500010 0.400190 0.438070 -0.502095
O4    O     O_R   0.499990 0.599810 0.561930 -0.502529
O5    O     O_R   0.320670 0.500000 0.539180 -0.497052
O6    O     O_R   0.679330 0.500000 0.460820 -0.497388
O7    O     O_R   0.320730 0.500010 0.415280 -0.504803
O8    O     O_R   0.679270 0.499990 0.584720 -0.503784

loop_
_geom_bond_atom_site_label_1
_geom_bond_atom_site_label_2
_ccdc_geom_bond_type
Cu2   O7    S    
C79   H47   S    
C87   C88   A    
C59   H28   S    
C87   H54   S    
C27   C29   A    
C34   C37   A    
C41   C42   A    
C14   C18   A    
C27   H3    S    
C67   C89   A    
C82   H50   S    
C63   H32   S    
C53   C54   A    
C15   C19   A    
C12   C23   S    
C8    C20   S    
C60   C61   A    
C35   C58   S    
C14   C21   A    
C76   H46   S    
C35   C37   A    
C24   C26   D    
C4    N2    A    
Cu1   N1    S    
C38   C39   A    
C66   C68   A    
C77   C83   A    
C3    N1    A    
C33   C36   A    
C56   C78   A    
C73   C74   A    
C56   H35   S    
C1    O1    A    
C17   O6    A    
Cu1   O4    S    
C46   C47   A    
C9    H45   S    
C22   C44   S    
C32   C89   S    
C45   H33   S    
C68   C69   A    
C22   C25   D    
C45   C67   A    
C24   C38   S    
C31   C33   A    
Cu1   O8    S    
C51   C57   A    
C23   C27   A    
C42   H15   S    
Cu1   O5    S    
C61   C62   A    
C53   H24   S    
C57   H27   S    
C66   H37   S    
C26   H1    S    
C81   H49   S    
C28   C34   A    
C59   C60   A    
C5    H23   S    
C16   O5    A    
C69   C70   A    
C84   C90   A    
C12   O2    A    
C90   H57   S    
C18   H60   S    
C85   H52   S    
C62   H31   S    
C44   C46   A    
C1    C34   S    
C81   C82   A    
C77   C79   A    
C2    C45   A    
C15   C20   A    
C17   C24   S    
C41   H14   S    
C51   C52   A    
C64   C67   S    
C84   C85   A    
C6    H34   S    
C4    C6    A    
C74   C75   A    
Cu1   Cu2   S    
C5    C7    A    
C75   H44   S    
C80   C81   A    
C14   H9    S    
C6    C8    A    
C25   C26   S    
C85   C86   A    
Cu2   O3    S    
C2    C31   S    
C75   C76   A    
C65   H36   S    
Cu1   O1    S    
C62   C63   A    
C2    C78   A    
C71   C78   S    
C11   H58   S    
C47   C48   A    
C4    C84   S    
C69   H39   S    
C74   H43   S    
C83   H51   S    
C70   H40   S    
Cu2   O2    S    
C68   H38   S    
C9    C11   A    
C13   H59   S    
C19   H2    S    
C49   H20   S    
C40   C41   A    
C88   C90   A    
C49   C50   A    
C64   C70   A    
C55   C57   A    
C54   H25   S    
C42   C43   A    
C3    C77   S    
C86   H53   S    
C39   C40   A    
C52   C53   A    
C44   C50   A    
C58   C63   A    
C7    C9    A    
C54   C55   A    
C56   C89   A    
C16   C22   S    
C19   C21   A    
C86   C87   A    
C32   C35   A    
C72   C73   A    
C3    C5    A    
C10   C13   A    
Cu2   O6    S    
C25   H12   S    
C39   H11   S    
C52   H22   S    
C16   O7    A    
C33   C51   S    
C47   H18   S    
C30   H6    S    
C29   H5    S    
C28   H4    S    
C50   H21   S    
C12   O4    A    
C64   C65   A    
C28   C30   A    
C58   C59   A    
C38   C43   A    
C29   C31   A    
C80   H48   S    
C30   C32   A    
C72   H41   S    
C71   C76   A    
C48   C49   A    
C7    C21   S    
C1    O3    A    
C88   H55   S    
C36   H7    S    
C18   C20   A    
C43   H16   S    
C65   C66   A    
C15   H10   S    
C60   H29   S    
C13   N2    A    
C17   O8    A    
C11   N1    A    
C79   C80   A    
C71   C72   A    
C48   H19   S    
C73   H42   S    
C8    C10   A    
C23   C36   A    
C46   H17   S    
C61   H30   S    
Cu2   N2    S    
C82   C83   A    
C37   H8    S    
C10   H56   S    
C40   H13   S    
C55   H26   S    
