data_mof_unit_35161.cif
_audit_creation_date              2012-12-11T16:24:03-0500
_audit_creation_method            fapswitch 2.2
_symmetry_space_group_name_H-M    P1
_symmetry_Int_Tables_number       1
_space_group_crystal_system       triclinic
_cell_length_a                    14.717076
_cell_length_b                    14.76288
_cell_length_c                    33.202626
_cell_angle_alpha                 95.897005
_cell_angle_beta                  95.844892
_cell_angle_gamma                 61.233335
_cell_volume                      6278.70782549

loop_
_atom_site_label
_atom_site_type_symbol
_atom_type_description
_atom_site_fract_x
_atom_site_fract_y
_atom_site_fract_z
_atom_type_partial_charge
C1    C     C_R   0.389733 0.703261 0.446885 0.548061
C2    C     C_R   0.330168 0.347919 0.308739 0.041832
C3    C     C_R   0.412901 0.265638 0.328212 -0.090880
C4    C     C_R   0.432701 0.274447 0.369994 -0.118870
C5    C     C_R   0.402522 0.260432 0.164194 0.061994
C6    C     C_R   0.389081 0.242389 0.122184 -0.125956
C7    C     C_R   0.208034 0.372768 0.122766 -0.126660
C8    C     C_R   0.219654 0.390681 0.164443 -0.135171
C9    C     C_R   0.314871 0.332698 0.185503 0.015725
C10   C     C_1   0.317255 0.341129 0.228997 0.037896
C11   C     C_1   0.320909 0.345106 0.265389 0.023853
C12   C     C_R   0.405831 0.386283 0.434027 0.552223
C13   C     C_R   0.291459 0.295421 0.101562 -0.006717
C14   C     C_R   0.760917 0.371088 0.411012 -0.008397
C15   C     C_R   0.807836 0.424706 0.397471 -0.113198
C16   C     C_R   0.847323 0.400771 0.358831 0.053108
C17   C     C_R   0.835430 0.324009 0.333003 0.016075
C18   C     C_R   0.798153 0.263871 0.348352 -0.143579
C19   C     C_R   0.761526 0.286934 0.387041 -0.140086
C20   C     C_R   0.844415 0.306659 0.206922 0.348294
C21   C     C_R   0.844391 0.316414 0.288907 0.383505
C22   C     C_R   0.838184 0.387617 0.143651 -0.115583
C23   C     C_R   0.701188 0.409881 0.447576 0.546363
C24   C     C_R   0.865990 0.377610 0.103945 -0.128626
C25   C     C_R   0.914684 0.195246 0.100422 -0.126124
C26   C     C_R   0.887429 0.205127 0.140244 -0.110538
C27   C     C_R   0.853542 0.300363 0.162817 0.036552
C28   C     C_R   0.909058 0.280332 0.082680 0.020596
C29   C     C_R   0.368766 0.764019 0.410529 0.007389
C30   C     C_R   0.272730 0.798434 0.387120 -0.006351
C31   C     C_R   0.271827 0.804407 0.345166 -0.103026
C32   C     C_R   0.360090 0.790129 0.327121 -0.009494
C33   C     C_R   0.447718 0.777304 0.351828 -0.124094
C34   C     C_R   0.392271 0.703187 0.560758 0.533219
C35   C     C_R   0.452368 0.766802 0.393516 0.029469
C36   C     C_R   0.353846 0.804461 0.201442 0.348243
C37   C     C_R   0.359017 0.793292 0.282796 0.353310
C38   C     C_R   0.262777 0.819632 0.132902 -0.114983
C39   C     C_R   0.240026 0.856943 0.094291 -0.124533
C40   C     C_R   0.384396 0.894189 0.103816 -0.127382
C41   C     C_R   0.407295 0.856642 0.142475 -0.113708
C42   C     C_R   0.343739 0.823409 0.158048 0.032879
C43   C     C_R   0.297737 0.898851 0.080116 0.019317
C44   C     C_R   0.360692 0.367059 0.582095 -0.027293
C45   C     C_R   0.405565 0.388023 0.548396 0.566562
C46   C     C_R   0.274929 0.451393 0.599988 -0.164916
C47   C     C_R   0.240220 0.444381 0.636602 0.042349
C48   C     C_R   0.295909 0.351864 0.656930 -0.010869
C49   C     C_R   0.374091 0.264290 0.637116 -0.149435
C50   C     C_R   0.405276 0.269697 0.599346 0.038333
C51   C     C_R   0.285465 0.334515 0.781069 0.343026
C52   C     C_R   0.283812 0.347476 0.700154 0.378654
C53   C     C_R   0.226687 0.408415 0.850759 -0.116315
C54   C     C_R   0.225377 0.395124 0.892046 0.040678
C55   C     C_R   0.359727 0.216016 0.881423 -0.147285
C56   C     C_R   0.701554 0.413424 0.562601 0.539074
C57   C     C_R   0.359947 0.230424 0.840938 -0.124989
C58   C     C_R   0.290861 0.325151 0.824919 0.008771
C59   C     C_R   0.288893 0.295407 0.907026 0.002936
C60   C     C_R   0.755452 0.379579 0.602592 0.013547
C61   C     C_R   0.783147 0.444893 0.628651 -0.112069
C62   C     C_R   0.812772 0.423979 0.669376 -0.094727
C63   C     C_R   0.815464 0.337532 0.684391 0.036816
C64   C     C_R   0.794520 0.268615 0.658180 -0.103516
C65   C     C_R   0.765006 0.289227 0.617451 -0.119691
C66   C     C_R   0.888566 0.212209 0.822600 -0.107240
C67   C     C_R   0.370112 0.366177 0.392616 0.021473
C68   C     C_R   0.914965 0.201239 0.864093 -0.124865
C69   C     C_R   0.873842 0.381851 0.873176 -0.114772
C70   C     C_R   0.847330 0.392604 0.831740 -0.103086
C71   C     C_R   0.857584 0.307113 0.806272 0.039310
C72   C     C_1   0.842977 0.315519 0.763194 -0.011362
C73   C     C_1   0.831576 0.324216 0.727163 -0.010536
C74   C     C_R   0.911296 0.285129 0.889567 0.017350
C75   C     C_R   0.374174 0.754232 0.601958 0.008961
C76   C     C_R   0.323665 0.723511 0.626845 -0.124533
C77   C     C_R   0.316772 0.753292 0.667639 -0.138259
C78   C     C_R   0.282461 0.445380 0.373147 -0.113808
C79   C     C_R   0.361885 0.812888 0.685095 0.001798
C80   C     C_R   0.410430 0.848966 0.660993 0.088669
C81   C     C_R   0.413327 0.822622 0.618285 -0.015995
C82   C     C_R   0.402509 0.885082 0.833714 -0.106182
C83   C     C_R   0.380705 0.911564 0.874464 -0.128109
C84   C     C_R   0.230311 0.883781 0.862098 -0.120390
C85   C     C_R   0.252555 0.856977 0.821393 -0.109349
C86   C     C_R   0.336897 0.860404 0.807015 0.038453
C87   C     C_1   0.351512 0.844676 0.764423 0.011865
C88   C     C_1   0.358834 0.831760 0.728358 0.035273
C89   C     C_R   0.262891 0.436325 0.331322 -0.108022
C90   C     C_R   0.292358 0.914475 0.888776 0.021220
C91   C     C_R   0.963573 0.264062 0.045691 0.541885
C92   C     C_R   0.272694 0.259657 0.059986 0.555106
C93   C     C_R   0.259150 0.959359 0.043760 0.547027
C94   C     C_R   0.962802 0.267613 0.930707 0.539629
C95   C     C_R   0.271219 0.263651 0.945082 0.572264
C96   C     C_R   0.256581 0.964955 0.928973 0.544390
Cr1   Cr    Cr6+3 0.576280 0.580550 0.506370 1.059619
Cr2   Cr    Cr6+3 0.346780 0.572400 0.496520 1.024140
Cr3   Cr    Cr6+3 0.576960 0.347070 0.497150 1.055877
Cr4   Cr    Cr6+3 0.087320 0.083240 0.984860 1.022196
Cr5   Cr    Cr6+3 0.087720 0.316210 0.996740 1.065683
Cr6   Cr    Cr6+3 0.317350 0.090340 0.995890 1.024389
H1    H     H_    0.453988 0.184138 0.105625 0.176368
H2    H     H_    0.726856 0.243431 0.396926 0.142273
H3    H     H_    0.859700 0.444769 0.090833 0.134424
H4    H     H_    0.789601 0.204004 0.329277 0.148553
H5    H     H_    0.810634 0.462518 0.160023 0.143719
H6    H     H_    0.947101 0.119319 0.084669 0.135738
H7    H     H_    0.898384 0.136857 0.153974 0.143189
H8    H     H_    0.173528 0.858272 0.076505 0.138112
H9    H     H_    0.201301 0.821426 0.326567 0.145036
H10   H     H_    0.513425 0.774504 0.338588 0.177964
H11   H     H_    0.213435 0.792859 0.143771 0.140154
H12   H     H_    0.430740 0.925328 0.093580 0.141728
H13   H     H_    0.470904 0.859601 0.160980 0.148727
H14   H     H_    0.235433 0.524671 0.585791 0.167140
H15   H     H_    0.413292 0.191547 0.651724 0.179367
H16   H     H_    0.465165 0.196810 0.310836 0.146393
H17   H     H_    0.176056 0.483002 0.838492 0.172483
H18   H     H_    0.410529 0.139230 0.891749 0.140954
H19   H     H_    0.412308 0.165865 0.821803 0.141018
H20   H     H_    0.944124 0.125602 0.875698 0.132456
H21   H     H_    0.896459 0.145672 0.803053 0.120331
H22   H     H_    0.796675 0.201359 0.669569 0.132066
H23   H     H_    0.744177 0.237383 0.598221 0.147440
H24   H     H_    0.776503 0.515062 0.618191 0.147621
H25   H     H_    0.822987 0.466495 0.819325 0.124546
H26   H     H_    0.870236 0.447863 0.891945 0.146541
H27   H     H_    0.500634 0.212102 0.384078 0.141787
H28   H     H_    0.829209 0.477593 0.689506 0.134064
H29   H     H_    0.429895 0.935113 0.894193 0.126354
H30   H     H_    0.468074 0.887665 0.822771 0.123593
H31   H     H_    0.292803 0.671916 0.615073 0.162641
H32   H     H_    0.201596 0.837542 0.800805 0.123283
H33   H     H_    0.161674 0.885583 0.872130 0.135799
H34   H     H_    0.279293 0.725924 0.686086 0.152826
H35   H     H_    0.232778 0.516987 0.389710 0.136898
H36   H     H_    0.152582 0.446419 0.180617 0.127601
H37   H     H_    0.131839 0.414896 0.107691 0.142739
H38   H     H_    0.198475 0.500235 0.316389 0.118503
H39   H     H_    0.811664 0.486808 0.416733 0.185826
N1    N     N_R   0.812881 0.398511 0.228746 -0.216189
N2    N     N_R   0.256935 0.432774 0.726028 -0.181838
N3    N     N_R   0.311567 0.255587 0.715593 -0.218392
N4    N     N_R   0.312200 0.249313 0.755259 -0.217372
N5    N     N_R   0.812010 0.403404 0.268898 -0.170362
N6    N     N_R   0.874418 0.224646 0.267126 -0.218745
N7    N     N_R   0.875199 0.219774 0.226909 -0.219403
N8    N     N_R   0.278169 0.796211 0.218360 -0.225547
N9    N     N_R   0.280792 0.790531 0.258205 -0.225364
N10   N     N_R   0.435729 0.799682 0.265828 -0.211687
N11   N     N_R   0.432934 0.805683 0.225969 -0.217252
N12   N     N_R   0.256737 0.426735 0.765726 -0.222136
O1    O     O_R   0.679450 0.499830 0.463150 -0.495487
O2    O     O_R   0.356040 0.477400 0.534170 -0.511727
O3    O     O_R   0.495910 0.323070 0.537100 -0.462663
O4    O     O_R   0.663920 0.359620 0.542290 -0.504056
O5    O     O_3   0.500010 0.500010 0.500010 -0.252745
O6    O     O_R   0.170070 0.978950 0.027680 -0.516248
O7    O     O_R   0.001760 0.175230 0.026640 -0.501296
O8    O     O_R   0.984760 0.333570 0.037150 -0.518540
O9    O     O_R   0.183410 0.309240 0.041890 -0.490001
O10   O     O_R   0.340240 0.172500 0.045430 -0.514921
O11   O     O_R   0.309670 0.000990 0.032050 -0.500117
O12   O     O_R   0.480650 0.664000 0.464630 -0.458885
O13   O     O_R   0.168330 0.982130 0.939200 -0.515193
O14   O     O_R   0.000140 0.178170 0.944610 -0.503235
O15   O     O_R   0.983010 0.336750 0.948660 -0.508926
O16   O     O_R   0.181800 0.312190 0.959860 -0.457368
O17   O     O_R   0.338500 0.175680 0.956950 -0.526671
O18   O     O_R   0.308050 0.003930 0.950020 -0.505225
O19   O     O_3   0.164130 0.163270 0.992500 -0.250067
O20   O     O_R   0.323930 0.675950 0.455370 -0.531245
O21   O     O_R   0.354700 0.475360 0.451930 -0.500732
O22   O     O_R   0.494470 0.320860 0.448390 -0.505191
O23   O     O_R   0.662580 0.357570 0.460050 -0.505124
O24   O     O_R   0.680900 0.502040 0.551870 -0.511992
O25   O     O_R   0.481990 0.666040 0.546870 -0.498105
O26   O     O_R   0.325370 0.678160 0.544080 -0.515414
C97   C     C_2   0.901157 0.455915 0.346551 0.592320
O27   O     O_2   0.879400 0.542790 0.361370 -0.487492
O28   O     O_R   0.979317 0.407295 0.319045 -0.679226
H40   H     H_    0.010836 0.452248 0.313502 0.340231
C98   C     C_3   0.170395 0.830299 0.405591 -0.263662
C99   C     C_3   0.088184 0.940252 0.395742 -0.436413
H41   H     H_    0.118722 0.995606 0.404705 0.172713
H42   H     H_    0.063832 0.944660 0.362946 0.159870
H43   H     H_    0.018374 0.963711 0.412838 0.147631
H44   H     H_    0.141251 0.774944 0.394247 0.156619
H45   H     H_    0.179204 0.831270 0.439134 0.180416
C100  C     C_2   0.544301 0.761837 0.418350 0.601271
O29   O     O_2   0.630184 0.716895 0.404528 -0.494260
O30   O     O_R   0.531956 0.811883 0.457097 -0.684689
H46   H     H_    0.599980 0.803484 0.470960 0.336529
C101  C     C_2   0.507532 0.200314 0.184622 0.577299
O31   O     O_2   0.528659 0.227540 0.218723 -0.509869
O32   O     O_R   0.583670 0.112944 0.164321 -0.711022
H47   H     H_    0.651915 0.079114 0.181077 0.348994
C102  C     C_2   0.482783 0.172088 0.579169 0.573309
O33   O     O_2   0.475581 0.156467 0.542381 -0.498931
O34   O     O_R   0.560959 0.095269 0.602559 -0.698100
H48   H     H_    0.607396 0.031240 0.585514 0.345020
C103  C     C_2   0.158060 0.486453 0.918224 0.581232
O35   O     O_2   0.182689 0.493179 0.954274 -0.508252
O36   O     O_R   0.067963 0.566973 0.901281 -0.710738
H49   H     H_    0.029115 0.625370 0.922018 0.339533
C104  C     C_2   0.145041 0.534044 0.652318 0.592568
O37   O     O_2   0.123871 0.622238 0.645615 -0.533247
O38   O     O_R   0.077570 0.517553 0.673621 -0.672940
H50   H     H_    0.015132 0.584509 0.682420 0.346225
C105  C     C_2   0.458684 0.911807 0.680890 0.560440
O39   O     O_2   0.545817 0.892155 0.672912 -0.519014
O40   O     O_R   0.404904 0.992479 0.709411 -0.680734
H51   H     H_    0.446183 0.028649 0.721174 0.355536
C106  C     C_3   0.449829 0.872797 0.590261 -0.264130
C107  C     C_3   0.375845 0.988945 0.588615 -0.407451
H52   H     H_    0.295322 0.002918 0.580194 0.156142
H53   H     H_    0.377095 0.031106 0.618104 0.188514
H54   H     H_    0.399678 0.020790 0.565301 0.182888
H55   H     H_    0.529802 0.858641 0.599688 0.199215
H56   H     H_    0.453224 0.840217 0.558597 0.169198

loop_
_geom_bond_atom_site_label_1
_geom_bond_atom_site_label_2
_ccdc_geom_bond_type
C70   H25   S    
Cr6   O17   S    
C7    C13   A    
C66   C68   A    
C103  O35   D    
C84   H33   S    
C55   C59   A    
Cr4   O19   S    
C41   C42   A    
N1    N5    A    
C36   C42   S    
N6    N7    A    
C107  H54   S    
C37   N9    A    
C87   C88   T    
Cr5   O15   S    
C18   H4    S    
Cr1   O25   S    
C7    C8    A    
C85   C86   A    
C97   O27   D    
C25   C28   A    
C83   H29   S    
C103  O36   S    
C1    O20   A    
C26   C27   A    
C52   N3    A    
C59   C95   S    
C47   C104  S    
Cr4   O14   S    
C21   N6    A    
C22   C24   A    
C8    H36   S    
Cr5   O9    S    
C107  H53   S    
C38   C42   A    
C69   C70   A    
C5    C6    A    
Cr2   O21   S    
Cr1   O12   S    
C36   N8    A    
N2    N12   A    
C51   N4    A    
C68   C74   A    
C54   C103  S    
C23   O1    A    
C98   C99   S    
Cr5   O19   S    
Cr4   O13   S    
C18   C19   A    
O34   H48   S    
C55   H18   S    
C93   O6    A    
C62   H28   S    
O28   H40   S    
C75   C76   A    
C43   C93   S    
C15   H39   S    
C39   H8    S    
C40   H12   S    
Cr3   O23   S    
C47   C48   A    
C69   H26   S    
C97   O28   S    
C16   C17   A    
C96   O18   A    
C48   C49   A    
N10   N11   A    
C20   N7    A    
Cr5   O16   S    
C70   C71   A    
C45   O2    A    
C77   H34   S    
C9    C10   S    
C54   C59   A    
O30   H46   S    
C85   H32   S    
C5    C101  S    
C50   C102  S    
C102  O33   D    
C34   O26   A    
C61   C62   A    
C67   C78   A    
C84   C90   A    
C41   H13   S    
C2    C11   S    
C106  H56   S    
C79   C88   S    
C53   C54   A    
C44   C46   A    
O38   H50   S    
C57   C58   A    
C56   O24   A    
C77   C79   A    
C78   C89   A    
Cr6   O19   S    
C38   C39   A    
C12   C67   S    
C49   H15   S    
C52   N2    A    
C21   N5    A    
C15   C16   A    
Cr6   O10   S    
C63   C64   A    
C80   C105  S    
C104  O37   D    
Cr2   O5    S    
C84   C85   A    
C72   C73   T    
C94   O15   A    
C33   H10   S    
C38   H11   S    
C86   C87   S    
C8    C9    A    
C99   H43   S    
C39   C43   A    
C23   O23   A    
C63   C73   S    
C93   O11   A    
C25   C26   A    
C32   C37   S    
C22   H5    S    
C101  O31   D    
C60   C61   A    
C65   H23   S    
C14   C23   S    
C2    C89   A    
C106  C107  S    
C100  O30   S    
C66   C71   A    
C5    C9    A    
C29   C30   A    
C3    H16   S    
C20   N1    A    
C56   O4    A    
C19   H2    S    
Cr4   O7    S    
Cr1   O24   S    
C105  O39   D    
C14   C15   A    
C1    O12   A    
C30   C31   A    
C76   H31   S    
C89   H38   S    
Cr3   O3    S    
C40   C43   A    
C62   C63   A    
C1    C29   S    
C17   C18   A    
Cr2   O2    S    
Cr3   O22   S    
C69   C74   A    
C51   C58   S    
C6    H1    S    
C76   C77   A    
C95   O16   A    
C26   H7    S    
C91   O7    A    
C61   H24   S    
C12   O22   A    
C92   O10   A    
C40   C41   A    
C105  O40   S    
C60   C65   A    
C49   C50   A    
C22   C27   A    
C55   C57   A    
C13   C92   S    
C98   H45   S    
C34   O25   A    
C68   H20   S    
C3    C4    A    
C78   H35   S    
C44   C45   S    
C12   O21   A    
C92   O9    A    
Cr6   O18   S    
Cr2   O20   S    
C83   C90   A    
O36   H49   S    
C46   C47   A    
C51   N12   A    
C35   C100  S    
C66   H21   S    
C30   C98   S    
C14   C19   A    
C31   C32   A    
C36   N11   A    
C24   C28   A    
C104  O38   S    
C80   C81   A    
Cr1   O1    S    
C94   O14   A    
C4    C67   A    
C53   C58   A    
C53   H17   S    
C90   C96   S    
C4    H27   S    
C20   C27   S    
C75   C81   A    
C64   H22   S    
C29   C35   A    
C46   H14   S    
N3    N4    A    
C32   C33   A    
Cr3   O4    S    
C2    C3    A    
C71   C72   S    
C82   C86   A    
C106  H55   S    
Cr1   O5    S    
C6    C13   A    
C7    H37   S    
Cr4   O6    S    
C99   H41   S    
C81   C106  S    
C37   N10   A    
O40   H51   S    
C64   C65   A    
Cr5   O8    S    
C33   C35   A    
C28   C91   S    
C96   O13   A    
O32   H47   S    
C100  O29   D    
C95   O17   A    
C17   C21   S    
C99   H42   S    
C10   C11   T    
C57   H19   S    
C79   C80   A    
C107  H52   S    
C48   C52   S    
C34   C75   S    
C56   C60   S    
C44   C50   A    
Cr6   O11   S    
C82   C83   A    
Cr3   O5    S    
C74   C94   S    
C102  O34   S    
C31   H9    S    
C98   H44   S    
C91   O8    A    
C24   H3    S    
Cr2   O26   S    
N8    N9    A    
C82   H30   S    
C16   C97   S    
C25   H6    S    
C101  O32   S    
C45   O3    A    
