data_mof_unit_22237.cif
_audit_creation_date              2012-12-11T17:25:53-0500
_audit_creation_method            fapswitch 2.2
_symmetry_space_group_name_H-M    P1
_symmetry_Int_Tables_number       1
_space_group_crystal_system       triclinic
_cell_length_a                    22.595667
_cell_length_b                    22.595614
_cell_length_c                    23.572675
_cell_angle_alpha                 90.000363
_cell_angle_beta                  90.000223
_cell_angle_gamma                 89.99983
_cell_volume                      12035.3349491

loop_
_atom_site_label
_atom_site_type_symbol
_atom_type_description
_atom_site_fract_x
_atom_site_fract_y
_atom_site_fract_z
_atom_type_partial_charge
C1    C     C_R   0.859444 0.070838 0.405179 -0.136715
C2    C     C_R   0.859342 0.929195 0.405363 -0.132275
C3    C     C_R   0.160443 0.753341 0.214803 0.049265
C4    C     C_R   0.691170 0.753618 0.653953 0.055797
C5    C     C_R   0.246663 0.160446 0.214810 0.049249
C6    C     C_R   0.246389 0.691170 0.653948 0.055806
C7    C     C_R   0.839557 0.246656 0.214804 0.049247
C8    C     C_R   0.771510 0.162057 0.201321 0.066836
C9    C     C_R   0.315703 0.774297 0.666034 0.073124
C10   C     C_R   0.162061 0.228488 0.201323 0.066836
C11   C     C_R   0.774296 0.684299 0.666035 0.073132
C12   C     C_R   0.228486 0.837943 0.201320 0.066830
C13   C     C_R   0.078409 0.852229 0.581507 -0.129409
C14   C     C_R   0.684297 0.225701 0.666033 0.073130
C15   C     C_R   0.837939 0.771513 0.201319 0.066833
C16   C     C_R   0.225697 0.315705 0.666035 0.073125
C17   C     C_R   0.250276 0.263928 0.642192 0.003413
C18   C     C_R   0.808055 0.815590 0.232987 0.011594
C19   C     C_R   0.736074 0.250279 0.642192 0.003421
C20   C     C_R   0.184408 0.808057 0.232985 0.011577
C21   C     C_R   0.749720 0.736080 0.642197 0.003428
C22   C     C_R   0.191947 0.184411 0.232989 0.011582
C23   C     C_R   0.263924 0.749721 0.642195 0.003418
C24   C     C_R   0.929195 0.140657 0.405363 -0.132273
C25   C     C_R   0.815589 0.191941 0.232986 0.011599
C26   C     C_R   0.750273 0.763928 0.142195 0.003428
C27   C     C_R   0.308052 0.315591 0.732987 0.011570
C28   C     C_R   0.236075 0.750278 0.142194 0.003416
C29   C     C_R   0.684411 0.308053 0.732988 0.011571
C30   C     C_R   0.249726 0.236075 0.142198 0.003423
C31   C     C_R   0.691945 0.684415 0.732990 0.011582
C32   C     C_R   0.763925 0.249721 0.142193 0.003421
C33   C     C_R   0.315588 0.691944 0.732988 0.011581
C34   C     C_3   0.898501 0.749683 0.220930 -0.398116
C35   C     C_R   0.852229 0.921591 0.581506 -0.129416
C36   C     C_3   0.893176 0.707272 0.271777 -0.231246
C37   C     C_3   0.953394 0.682249 0.288282 -0.971174
C38   C     C_3   0.169838 0.345346 0.642211 -0.413355
C39   C     C_3   0.150113 0.327062 0.582115 -0.240313
C40   C     C_3   0.106942 0.371938 0.556840 -0.950900
C41   C     C_3   0.250311 0.898506 0.220932 -0.398062
C42   C     C_3   0.292717 0.893187 0.271783 -0.231393
C43   C     C_3   0.317683 0.953411 0.288329 -0.971186
C44   C     C_3   0.654656 0.169842 0.642205 -0.413361
C45   C     C_3   0.672936 0.150121 0.582108 -0.240322
C46   C     C_R   0.140658 0.070804 0.405363 -0.132284
C47   C     C_3   0.628060 0.106951 0.556831 -0.950905
C48   C     C_3   0.101499 0.250315 0.220936 -0.398108
C49   C     C_3   0.106821 0.292723 0.271785 -0.231262
C50   C     C_3   0.046595 0.317707 0.288318 -0.971116
C51   C     C_3   0.830152 0.654655 0.642206 -0.413361
C52   C     C_3   0.849873 0.672937 0.582109 -0.240312
C53   C     C_3   0.893040 0.628058 0.556830 -0.950903
C54   C     C_3   0.749677 0.101499 0.220936 -0.398102
C55   C     C_3   0.707268 0.106831 0.271784 -0.231339
C56   C     C_3   0.682207 0.046626 0.288267 -0.971333
C57   C     C_R   0.921590 0.147771 0.581505 -0.129412
C58   C     C_3   0.345343 0.830156 0.642207 -0.413353
C59   C     C_3   0.327068 0.849871 0.582106 -0.240317
C60   C     C_3   0.371945 0.893041 0.556831 -0.950892
C61   C     C_3   0.200301 0.662362 0.615429 -0.394219
C62   C     C_3   0.137892 0.662592 0.641388 -0.233781
C63   C     C_3   0.090436 0.653869 0.596042 -0.946780
C64   C     C_3   0.885482 0.278156 0.251742 -0.413426
C65   C     C_3   0.854612 0.314613 0.298045 -0.225737
C66   C     C_3   0.899243 0.344212 0.337427 -0.942519
C67   C     C_3   0.662362 0.799707 0.615437 -0.394220
C68   C     C_R   0.070804 0.859342 0.405362 -0.132284
C69   C     C_3   0.662600 0.862116 0.641395 -0.233777
C70   C     C_3   0.653853 0.909570 0.596053 -0.946769
C71   C     C_3   0.278164 0.114521 0.251749 -0.413413
C72   C     C_3   0.314613 0.145392 0.298057 -0.225746
C73   C     C_3   0.344210 0.100761 0.337440 -0.942488
C74   C     C_3   0.799687 0.337642 0.615422 -0.394221
C75   C     C_3   0.862100 0.337413 0.641371 -0.233789
C76   C     C_3   0.909548 0.346142 0.596021 -0.946774
C77   C     C_3   0.114518 0.721840 0.251741 -0.413448
C78   C     C_3   0.145388 0.685384 0.298044 -0.225730
C79   C     C_R   0.359445 0.570838 0.905179 -0.136703
C80   C     C_3   0.100757 0.655786 0.337426 -0.942528
C81   C     C_3   0.337638 0.200317 0.615419 -0.394220
C82   C     C_3   0.337420 0.137907 0.641372 -0.233789
C83   C     C_3   0.346099 0.090453 0.596019 -0.946806
C84   C     C_3   0.721843 0.885486 0.251746 -0.413467
C85   C     C_3   0.685389 0.854620 0.298053 -0.225722
C86   C     C_3   0.655795 0.899254 0.337435 -0.942554
C87   C     C_3   0.398503 0.249693 0.720929 -0.398111
C88   C     C_3   0.393184 0.207276 0.771772 -0.231202
C89   C     C_3   0.453420 0.182335 0.788333 -0.971055
C90   C     C_R   0.647715 0.422489 0.081843 -0.136849
C91   C     C_3   0.669839 0.845353 0.142218 -0.413354
C92   C     C_3   0.650082 0.827049 0.082137 -0.240291
C93   C     C_3   0.606916 0.871928 0.056860 -0.950847
C94   C     C_3   0.750312 0.398504 0.720937 -0.398097
C95   C     C_3   0.792718 0.393184 0.771788 -0.231274
C96   C     C_3   0.817647 0.453419 0.788362 -0.971104
C97   C     C_3   0.154655 0.669844 0.142205 -0.413351
C98   C     C_3   0.172936 0.650122 0.082108 -0.240320
C99   C     C_3   0.128060 0.606952 0.056831 -0.950899
C100  C     C_3   0.601499 0.750325 0.720946 -0.398104
C101  C     C_R   0.429161 0.359444 0.905179 -0.136696
C102  C     C_3   0.606823 0.792723 0.771803 -0.231278
C103  C     C_3   0.546597 0.817693 0.788349 -0.971146
C104  C     C_3   0.330162 0.154656 0.142215 -0.413364
C105  C     C_3   0.349889 0.172938 0.082119 -0.240324
C106  C     C_3   0.393060 0.128062 0.056845 -0.950912
C107  C     C_3   0.249682 0.601498 0.720937 -0.398099
C108  C     C_3   0.207275 0.606823 0.771787 -0.231311
C109  C     C_3   0.182291 0.546602 0.788323 -0.971210
C110  C     C_3   0.845348 0.330152 0.142205 -0.413350
C111  C     C_3   0.827068 0.349873 0.082107 -0.240315
C112  C     C_R   0.147714 0.922489 0.581843 -0.136848
C113  C     C_R   0.577510 0.647715 0.081844 -0.136845
C114  C     C_3   0.871946 0.393041 0.056831 -0.950899
C115  C     C_3   0.700291 0.162366 0.115435 -0.394210
C116  C     C_3   0.637888 0.162599 0.141403 -0.233802
C117  C     C_3   0.590423 0.153877 0.096067 -0.946809
C118  C     C_3   0.385479 0.778161 0.751744 -0.413413
C119  C     C_3   0.354608 0.814612 0.798051 -0.225730
C120  C     C_3   0.399239 0.844209 0.837434 -0.942532
C121  C     C_3   0.162366 0.299695 0.115429 -0.394221
C122  C     C_3   0.162593 0.362104 0.141386 -0.233784
C123  C     C_3   0.153870 0.409558 0.096041 -0.946787
C124  C     C_R   0.640555 0.429161 0.905179 -0.136694
C125  C     C_3   0.778160 0.614521 0.751743 -0.413394
C126  C     C_3   0.814610 0.645389 0.798052 -0.225760
C127  C     C_3   0.844206 0.600757 0.837435 -0.942515
C128  C     C_3   0.299700 0.837636 0.115431 -0.394224
C129  C     C_3   0.362106 0.837407 0.141395 -0.233740
C130  C     C_3   0.409568 0.846100 0.096050 -0.946749
C131  C     C_3   0.614522 0.221836 0.751743 -0.413401
C132  C     C_3   0.645393 0.185384 0.798048 -0.225747
C133  C     C_3   0.600762 0.155785 0.837431 -0.942480
C134  C     C_3   0.837630 0.700306 0.115424 -0.394217
C135  C     C_R   0.352285 0.577511 0.081844 -0.136852
C136  C     C_3   0.837402 0.637898 0.141383 -0.233782
C137  C     C_3   0.846127 0.590442 0.096039 -0.946797
C138  C     C_3   0.221835 0.385480 0.751747 -0.413421
C139  C     C_3   0.185387 0.354610 0.798055 -0.225748
C140  C     C_3   0.155792 0.399241 0.837439 -0.942497
C141  C     C_R   0.570838 0.640555 0.905179 -0.136703
C142  C     C_R   0.422490 0.352286 0.081844 -0.136848
C143  C     C_R   0.647771 0.578410 0.081507 -0.129409
C144  C     C_R   0.359342 0.429195 0.905363 -0.132289
C145  C     C_R   0.578411 0.352229 0.081506 -0.129406
C146  C     C_R   0.429195 0.640658 0.905363 -0.132286
C147  C     C_R   0.352230 0.421591 0.081507 -0.129409
C148  C     C_R   0.929162 0.859444 0.405180 -0.136710
C149  C     C_R   0.640657 0.570804 0.905363 -0.132285
C150  C     C_R   0.421590 0.647771 0.081507 -0.129402
C151  C     C_R   0.570804 0.359342 0.905363 -0.132293
C152  C     C_1   0.210790 0.218557 0.623448 -0.014741
C153  C     C_1   0.833124 0.836134 0.285253 -0.030550
C154  C     C_1   0.781444 0.210793 0.623446 -0.014753
C155  C     C_1   0.163862 0.833124 0.285251 -0.030550
C156  C     C_1   0.789209 0.781447 0.623450 -0.014766
C157  C     C_1   0.166878 0.163863 0.285254 -0.030558
C158  C     C_1   0.218555 0.789209 0.623450 -0.014753
C159  C     C_R   0.077511 0.147715 0.581843 -0.136853
C160  C     C_1   0.836134 0.166875 0.285252 -0.030551
C161  C     C_1   0.710786 0.718559 0.123450 -0.014765
C162  C     C_1   0.333120 0.336137 0.785253 -0.030560
C163  C     C_1   0.281444 0.710790 0.123450 -0.014747
C164  C     C_1   0.663863 0.333121 0.785253 -0.030559
C165  C     C_1   0.289212 0.281445 0.123452 -0.014757
C166  C     C_1   0.666877 0.663865 0.785255 -0.030556
C167  C     C_1   0.718557 0.289210 0.123449 -0.014761
C168  C     C_1   0.336136 0.666877 0.785253 -0.030556
C169  C     C_1   0.853154 0.854017 0.328913 -0.068533
C170  C     C_R   0.140555 0.929162 0.405179 -0.136701
C171  C     C_1   0.176920 0.179833 0.611693 -0.078281
C172  C     C_1   0.145980 0.853153 0.328912 -0.068506
C173  C     C_1   0.820167 0.176922 0.611691 -0.078296
C174  C     C_1   0.146848 0.145981 0.328913 -0.068516
C175  C     C_1   0.823080 0.820169 0.611694 -0.078303
C176  C     C_1   0.854017 0.146846 0.328913 -0.068553
C177  C     C_1   0.179832 0.823080 0.611694 -0.078293
C178  C     C_1   0.353151 0.354018 0.828913 -0.068487
C179  C     C_1   0.676917 0.679834 0.111694 -0.078298
C180  C     C_1   0.645980 0.353151 0.828913 -0.068488
C181  C     C_R   0.852285 0.077512 0.581842 -0.136849
C182  C     C_1   0.320168 0.676920 0.111694 -0.078286
C183  C     C_1   0.646847 0.645980 0.828913 -0.068512
C184  C     C_1   0.323082 0.320168 0.111696 -0.078293
C185  C     C_1   0.354018 0.646848 0.828913 -0.068513
C186  C     C_1   0.679834 0.323080 0.111693 -0.078293
C187  C     C_R   0.877845 0.122321 0.379270 0.101707
C188  C     C_R   0.135561 0.865253 0.598308 0.099461
C189  C     C_R   0.877679 0.877844 0.379271 0.101702
C190  C     C_R   0.134748 0.135562 0.598307 0.099457
C191  C     C_R   0.122154 0.877679 0.379270 0.101699
C192  C     C_R   0.070838 0.140555 0.405179 -0.136707
C193  C     C_R   0.864438 0.134749 0.598306 0.099461
C194  C     C_R   0.122321 0.122154 0.379270 0.101704
C195  C     C_R   0.865252 0.864439 0.598307 0.099465
C196  C     C_R   0.377845 0.622321 0.879270 0.101703
C197  C     C_R   0.635563 0.365252 0.098306 0.099462
C198  C     C_R   0.377678 0.377845 0.879270 0.101697
C199  C     C_R   0.634746 0.635562 0.098308 0.099463
C200  C     C_R   0.622154 0.377678 0.879270 0.101699
C201  C     C_R   0.364439 0.634748 0.098308 0.099460
C202  C     C_R   0.622320 0.622154 0.879270 0.101704
C203  C     C_R   0.922489 0.852285 0.581843 -0.136847
C204  C     C_R   0.365253 0.364439 0.098309 0.099462
C205  C     C_R   0.808825 0.746393 0.153944 0.055799
C206  C     C_R   0.253336 0.339556 0.714807 0.049257
C207  C     C_R   0.253609 0.808830 0.153946 0.055807
C208  C     C_R   0.660446 0.253338 0.714805 0.049248
C209  C     C_R   0.191174 0.253609 0.153949 0.055802
C210  C     C_R   0.746659 0.660448 0.714807 0.049238
C211  C     C_R   0.746388 0.191170 0.153947 0.055800
C212  C     C_R   0.339554 0.746660 0.714806 0.049250
C213  C     C_R   0.271510 0.662059 0.701322 0.066837
C214  C     C_R   0.147771 0.078410 0.581506 -0.129401
C215  C     C_R   0.815706 0.274295 0.166032 0.073124
C216  C     C_R   0.662060 0.728497 0.701329 0.066840
C217  C     C_R   0.274303 0.184297 0.166039 0.073128
C218  C     C_R   0.728488 0.337941 0.701322 0.066836
C219  C     C_R   0.184295 0.725702 0.166032 0.073121
C220  C     C_R   0.337940 0.271516 0.701318 0.066833
C221  C     C_R   0.725697 0.815706 0.166039 0.073124
C222  C     C_R   0.308828 0.246398 0.653942 0.055813
C223  C     C_R   0.753340 0.839557 0.214808 0.049257
C224  C     C_R   0.753607 0.308831 0.653945 0.055807
H1    H     H_    0.818653 0.047622 0.397146 0.097026
H2    H     H_    0.818489 0.952395 0.397556 0.092227
H3    H     H_    0.825376 0.285629 0.323844 0.200666
H4    H     H_    0.915905 0.245465 0.271430 0.192519
H5    H     H_    0.915100 0.307430 0.227112 0.180390
H6    H     H_    0.652656 0.953910 0.616344 0.249372
H7    H     H_    0.691006 0.908671 0.565188 0.260716
H8    H     H_    0.611459 0.902300 0.573224 0.266086
H9    H     H_    0.626101 0.866350 0.672488 0.200080
H10   H     H_    0.705213 0.870619 0.663512 0.201141
H11   H     H_    0.686490 0.800852 0.574294 0.195249
H12   H     H_    0.616796 0.786216 0.603588 0.163935
H13   H     H_    0.058480 0.808738 0.579481 0.101148
H14   H     H_    0.310268 0.073431 0.359252 0.262631
H15   H     H_    0.374495 0.071595 0.313043 0.270189
H16   H     H_    0.370407 0.124628 0.370067 0.251540
H17   H     H_    0.349339 0.173297 0.278060 0.190687
H18   H     H_    0.285624 0.174625 0.323853 0.200664
H19   H     H_    0.245473 0.084094 0.271431 0.192524
H20   H     H_    0.307443 0.084906 0.227120 0.180383
H21   H     H_    0.953890 0.347349 0.616306 0.249373
H22   H     H_    0.908647 0.308976 0.565171 0.260718
H23   H     H_    0.902273 0.388525 0.573177 0.266092
H24   H     H_    0.952395 0.181511 0.397556 0.092216
H25   H     H_    0.866338 0.373925 0.672450 0.200064
H26   H     H_    0.870607 0.294810 0.663502 0.201145
H27   H     H_    0.800828 0.313513 0.574279 0.195256
H28   H     H_    0.786189 0.383206 0.603573 0.163927
H29   H     H_    0.073431 0.689727 0.359244 0.262616
H30   H     H_    0.071588 0.625507 0.313025 0.270207
H31   H     H_    0.124625 0.629583 0.370048 0.251548
H32   H     H_    0.173291 0.650659 0.278042 0.190688
H33   H     H_    0.174624 0.714369 0.323842 0.200665
H34   H     H_    0.084094 0.754531 0.271428 0.192505
H35   H     H_    0.808738 0.941521 0.579481 0.101154
H36   H     H_    0.084900 0.692566 0.227110 0.180404
H37   H     H_    0.347322 0.046114 0.616306 0.249380
H38   H     H_    0.308903 0.091358 0.565203 0.260717
H39   H     H_    0.388460 0.097720 0.573136 0.266100
H40   H     H_    0.373959 0.133665 0.672422 0.200062
H41   H     H_    0.294836 0.129411 0.663538 0.201151
H42   H     H_    0.313504 0.199171 0.574279 0.195271
H43   H     H_    0.383199 0.213818 0.603564 0.163911
H44   H     H_    0.689737 0.926580 0.359250 0.262611
H45   H     H_    0.625515 0.928423 0.313034 0.270222
H46   H     H_    0.181512 0.047604 0.397557 0.092216
H47   H     H_    0.629592 0.875390 0.370060 0.251554
H48   H     H_    0.650663 0.826716 0.278056 0.190686
H49   H     H_    0.714375 0.825385 0.323852 0.200668
H50   H     H_    0.754537 0.915910 0.271430 0.192500
H51   H     H_    0.692569 0.915103 0.227114 0.180420
H52   H     H_    0.473101 0.157405 0.752360 0.263220
H53   H     H_    0.483551 0.218911 0.800771 0.267464
H54   H     H_    0.448368 0.151859 0.824963 0.258675
H55   H     H_    0.374536 0.230412 0.809190 0.202439
H56   H     H_    0.362845 0.170173 0.761535 0.186987
H57   H     H_    0.941520 0.191263 0.579480 0.101153
H58   H     H_    0.423163 0.227383 0.686521 0.183939
H59   H     H_    0.426470 0.288237 0.732814 0.185494
H60   H     H_    0.567620 0.876954 0.084782 0.265383
H61   H     H_    0.628776 0.915620 0.051586 0.262307
H62   H     H_    0.591875 0.856346 0.014565 0.254062
H63   H     H_    0.689079 0.823375 0.053595 0.201916
H64   H     H_    0.626548 0.784079 0.083755 0.202774
H65   H     H_    0.632511 0.838900 0.172280 0.184409
H66   H     H_    0.679448 0.893461 0.139299 0.192154
H67   H     H_    0.842568 0.473114 0.752393 0.263252
H68   H     H_    0.047604 0.818489 0.397555 0.092223
H69   H     H_    0.781066 0.483536 0.800809 0.267472
H70   H     H_    0.848127 0.448363 0.824989 0.258682
H71   H     H_    0.769579 0.374532 0.809198 0.202469
H72   H     H_    0.829825 0.362853 0.761557 0.187007
H73   H     H_    0.772630 0.423162 0.686533 0.183939
H74   H     H_    0.711765 0.426473 0.732813 0.185501
H75   H     H_    0.123073 0.567635 0.084729 0.265394
H76   H     H_    0.084355 0.628793 0.051598 0.262316
H77   H     H_    0.143619 0.591949 0.014518 0.254074
H78   H     H_    0.176582 0.689134 0.053584 0.201919
H79   H     H_    0.318653 0.547622 0.897146 0.097027
H80   H     H_    0.215915 0.626604 0.083694 0.202790
H81   H     H_    0.161135 0.632506 0.172250 0.184411
H82   H     H_    0.106543 0.679436 0.139308 0.192160
H83   H     H_    0.526952 0.842656 0.752380 0.263247
H84   H     H_    0.516437 0.781132 0.800752 0.267499
H85   H     H_    0.551652 0.848145 0.824998 0.258692
H86   H     H_    0.625438 0.769566 0.809220 0.202467
H87   H     H_    0.637186 0.829809 0.761591 0.187020
H88   H     H_    0.576844 0.772650 0.686544 0.183968
H89   H     H_    0.573526 0.711780 0.732816 0.185476
H90   H     H_    0.690866 0.443177 0.080095 0.095140
H91   H     H_    0.432374 0.123074 0.084745 0.265400
H92   H     H_    0.371219 0.084358 0.051610 0.262320
H93   H     H_    0.408065 0.143621 0.014532 0.254075
H94   H     H_    0.310879 0.176585 0.053593 0.201922
H95   H     H_    0.373407 0.215916 0.083708 0.202795
H96   H     H_    0.367498 0.161136 0.172262 0.184414
H97   H     H_    0.320570 0.106545 0.139316 0.192160
H98   H     H_    0.157348 0.526957 0.752344 0.263256
H99   H     H_    0.218844 0.516443 0.800745 0.267521
H100  H     H_    0.151819 0.551660 0.824957 0.258700
H101  H     H_    0.452378 0.318652 0.897146 0.097027
H102  H     H_    0.230429 0.625430 0.809209 0.202479
H103  H     H_    0.170196 0.637194 0.761571 0.187040
H104  H     H_    0.227364 0.576841 0.686532 0.183969
H105  H     H_    0.288225 0.573526 0.732816 0.185475
H106  H     H_    0.876933 0.432358 0.084729 0.265394
H107  H     H_    0.915651 0.371199 0.051600 0.262316
H108  H     H_    0.856388 0.408043 0.014517 0.254074
H109  H     H_    0.823422 0.310861 0.053583 0.201917
H110  H     H_    0.784090 0.373392 0.083692 0.202791
H111  H     H_    0.838869 0.367490 0.172250 0.184410
H112  H     H_    0.190866 0.943177 0.580096 0.095142
H113  H     H_    0.556821 0.690866 0.080097 0.095127
H114  H     H_    0.893459 0.320558 0.139309 0.192157
H115  H     H_    0.546089 0.152662 0.116366 0.249385
H116  H     H_    0.591313 0.191050 0.065226 0.260716
H117  H     H_    0.597693 0.111500 0.073209 0.266097
H118  H     H_    0.633658 0.126088 0.172482 0.200141
H119  H     H_    0.629391 0.205201 0.163538 0.201150
H120  H     H_    0.699138 0.186498 0.074294 0.195256
H121  H     H_    0.713782 0.116802 0.103577 0.163921
H122  H     H_    0.426571 0.810269 0.859244 0.262636
H123  H     H_    0.428402 0.874496 0.813037 0.270192
H124  H     H_    0.681347 0.452377 0.897146 0.097028
H125  H     H_    0.375372 0.870404 0.870062 0.251547
H126  H     H_    0.326703 0.849337 0.778052 0.190687
H127  H     H_    0.325374 0.785624 0.823848 0.200663
H128  H     H_    0.415906 0.745470 0.771428 0.192516
H129  H     H_    0.415094 0.807440 0.727116 0.180385
H130  H     H_    0.152658 0.453897 0.116332 0.249377
H131  H     H_    0.191041 0.408662 0.065197 0.260717
H132  H     H_    0.111490 0.402286 0.073190 0.266091
H133  H     H_    0.126079 0.366338 0.172463 0.200091
H134  H     H_    0.205194 0.370606 0.163522 0.201144
H135  H     H_    0.309134 0.556823 0.080096 0.095139
H136  H     H_    0.186497 0.300841 0.074288 0.195259
H137  H     H_    0.116802 0.286199 0.103576 0.163926
H138  H     H_    0.810265 0.573430 0.859248 0.262644
H139  H     H_    0.874487 0.571591 0.813036 0.270188
H140  H     H_    0.870406 0.624622 0.870061 0.251543
H141  H     H_    0.849335 0.673295 0.778056 0.190693
H142  H     H_    0.785622 0.674622 0.823850 0.200669
H143  H     H_    0.745469 0.584093 0.771424 0.192539
H144  H     H_    0.807439 0.584908 0.727113 0.180367
H145  H     H_    0.453904 0.847314 0.116346 0.249375
H146  H     H_    0.547621 0.681347 0.897146 0.097030
H147  H     H_    0.408671 0.808913 0.065222 0.260701
H148  H     H_    0.402305 0.888470 0.073178 0.266085
H149  H     H_    0.366341 0.873935 0.172457 0.200072
H150  H     H_    0.370598 0.794813 0.163550 0.201131
H151  H     H_    0.300849 0.813504 0.074290 0.195264
H152  H     H_    0.286207 0.883200 0.103575 0.163908
H153  H     H_    0.573433 0.189726 0.859246 0.262631
H154  H     H_    0.571596 0.125502 0.813031 0.270181
H155  H     H_    0.624630 0.129585 0.870056 0.251535
H156  H     H_    0.673298 0.150659 0.778049 0.190685
H157  H     H_    0.443178 0.309134 0.080097 0.095139
H158  H     H_    0.674626 0.214372 0.823847 0.200661
H159  H     H_    0.584095 0.254526 0.771428 0.192527
H160  H     H_    0.584906 0.192558 0.727113 0.180372
H161  H     H_    0.847339 0.546104 0.116331 0.249379
H162  H     H_    0.808957 0.591337 0.065194 0.260718
H163  H     H_    0.888507 0.597713 0.073188 0.266093
H164  H     H_    0.873916 0.633664 0.172461 0.200110
H165  H     H_    0.794800 0.629396 0.163517 0.201144
H166  H     H_    0.813497 0.699159 0.074284 0.195259
H167  H     H_    0.883193 0.713800 0.103569 0.163927
H168  H     H_    0.691262 0.558481 0.079481 0.101149
H169  H     H_    0.189734 0.426570 0.859251 0.262624
H170  H     H_    0.125507 0.428407 0.813042 0.270194
H171  H     H_    0.129595 0.375373 0.870067 0.251541
H172  H     H_    0.150661 0.326704 0.778058 0.190687
H173  H     H_    0.214376 0.325376 0.823851 0.200665
H174  H     H_    0.254526 0.415908 0.771429 0.192521
H175  H     H_    0.192555 0.415094 0.727118 0.180388
H176  H     H_    0.318488 0.452396 0.897557 0.092218
H177  H     H_    0.558481 0.308737 0.079480 0.101144
H178  H     H_    0.452395 0.681512 0.897557 0.092218
H179  H     H_    0.308738 0.441520 0.079482 0.101149
H180  H     H_    0.952378 0.818652 0.397147 0.097025
H181  H     H_    0.681511 0.547604 0.897556 0.092211
H182  H     H_    0.441520 0.691262 0.079482 0.101141
H183  H     H_    0.547604 0.318488 0.897556 0.092213
H184  H     H_    0.972998 0.657281 0.252296 0.263225
H185  H     H_    0.983590 0.718784 0.300678 0.267532
H186  H     H_    0.948340 0.651790 0.324926 0.258696
H187  H     H_    0.874603 0.730436 0.309212 0.202450
H188  H     H_    0.862776 0.670211 0.261570 0.187029
H189  H     H_    0.923156 0.727367 0.186522 0.183988
H190  H     H_    0.926475 0.788223 0.232811 0.185452
H191  H     H_    0.056823 0.190866 0.580095 0.095137
H192  H     H_    0.067627 0.376927 0.584741 0.265391
H193  H     H_    0.128783 0.415643 0.551604 0.262317
H194  H     H_    0.091935 0.356377 0.514528 0.254073
H195  H     H_    0.189123 0.323415 0.553588 0.201918
H196  H     H_    0.126595 0.284083 0.583703 0.202786
H197  H     H_    0.132502 0.338866 0.672258 0.184410
H198  H     H_    0.179431 0.393457 0.639312 0.192156
H199  H     H_    0.342628 0.973071 0.252357 0.263256
H200  H     H_    0.281119 0.983558 0.300749 0.267508
H201  H     H_    0.348147 0.948355 0.324967 0.258704
H202  H     H_    0.181346 0.952378 0.397146 0.097027
H203  H     H_    0.269569 0.874572 0.309201 0.202497
H204  H     H_    0.329802 0.862828 0.261567 0.187061
H205  H     H_    0.272627 0.923163 0.186527 0.183959
H206  H     H_    0.211765 0.926476 0.232809 0.185476
H207  H     H_    0.623075 0.067633 0.584729 0.265396
H208  H     H_    0.584355 0.128792 0.551601 0.262320
H209  H     H_    0.643618 0.091949 0.514517 0.254075
H210  H     H_    0.676581 0.189133 0.553584 0.201920
H211  H     H_    0.715915 0.126603 0.583693 0.202792
H212  H     H_    0.661137 0.132505 0.672250 0.184410
H213  H     H_    0.809134 0.056824 0.580094 0.095138
H214  H     H_    0.606545 0.179434 0.639309 0.192158
H215  H     H_    0.026954 0.342660 0.252340 0.263228
H216  H     H_    0.016430 0.281152 0.300731 0.267502
H217  H     H_    0.051651 0.348172 0.324958 0.258686
H218  H     H_    0.125426 0.269568 0.309209 0.202456
H219  H     H_    0.137192 0.329803 0.261570 0.187018
H220  H     H_    0.076842 0.272631 0.186530 0.183969
H221  H     H_    0.073528 0.211771 0.232814 0.185471
H222  H     H_    0.932357 0.623069 0.584728 0.265394
H223  H     H_    0.871196 0.584354 0.551597 0.262317
H224  H     H_    0.047622 0.181347 0.397146 0.097027
H225  H     H_    0.908042 0.643617 0.514517 0.254074
H226  H     H_    0.810860 0.676585 0.553585 0.201918
H227  H     H_    0.873393 0.715914 0.583695 0.202792
H228  H     H_    0.867490 0.661133 0.672250 0.184411
H229  H     H_    0.820556 0.606545 0.639308 0.192156
H230  H     H_    0.657225 0.027056 0.252276 0.263253
H231  H     H_    0.718720 0.016403 0.300647 0.267592
H232  H     H_    0.651754 0.051685 0.324915 0.258722
H233  H     H_    0.730442 0.125373 0.309223 0.202483
H234  H     H_    0.670230 0.137257 0.261588 0.187080
H235  H     H_    0.943177 0.809134 0.580095 0.095139
H236  H     H_    0.727361 0.076842 0.186530 0.184009
H237  H     H_    0.788216 0.073522 0.232819 0.185436
H238  H     H_    0.376922 0.932363 0.584725 0.265391
H239  H     H_    0.415653 0.871203 0.551609 0.262314
H240  H     H_    0.356391 0.908035 0.514513 0.254072
H241  H     H_    0.323428 0.810856 0.553585 0.201915
H242  H     H_    0.284087 0.873386 0.583685 0.202792
H243  H     H_    0.338857 0.867495 0.672250 0.184409
H244  H     H_    0.393455 0.820567 0.639315 0.192158
H245  H     H_    0.046097 0.652657 0.616333 0.249375
H246  H     H_    0.191262 0.058479 0.579481 0.101142
H247  H     H_    0.091332 0.691040 0.565198 0.260713
H248  H     H_    0.097709 0.611489 0.573190 0.266092
H249  H     H_    0.133658 0.626078 0.672464 0.200092
H250  H     H_    0.129390 0.705194 0.663523 0.201141
H251  H     H_    0.199154 0.686493 0.574288 0.195257
H252  H     H_    0.213796 0.616798 0.603575 0.163923
H253  H     H_    0.926569 0.310272 0.359245 0.262627
H254  H     H_    0.928411 0.374491 0.313027 0.270198
H255  H     H_    0.875375 0.370416 0.370050 0.251547
H256  H     H_    0.826709 0.349338 0.278043 0.190688
N1    N     N_R   0.900580 0.056480 0.443850 -0.040526
N2    N     N_R   0.900580 0.943520 0.443850 -0.040705
N3    N     N_R   0.056480 0.900580 0.556150 -0.042300
N4    N     N_R   0.943520 0.099420 0.443850 -0.040705
N5    N     N_R   0.900580 0.943520 0.556150 -0.042299
N6    N     N_R   0.099420 0.056480 0.443850 -0.040704
N7    N     N_R   0.943520 0.099420 0.556150 -0.042299
N8    N     N_R   0.056480 0.900580 0.443850 -0.040704
N9    N     N_R   0.400580 0.556480 0.943850 -0.040528
N10   N     N_R   0.599420 0.443520 0.056150 -0.040871
N11   N     N_R   0.443520 0.400580 0.943850 -0.040529
N12   N     N_R   0.099420 0.943520 0.556150 -0.040871
N13   N     N_R   0.556480 0.599420 0.056150 -0.040870
N14   N     N_R   0.599420 0.443520 0.943850 -0.040529
N15   N     N_R   0.400580 0.556480 0.056150 -0.040870
N16   N     N_R   0.556480 0.599420 0.943850 -0.040528
N17   N     N_R   0.443520 0.400580 0.056150 -0.040871
N18   N     N_R   0.599420 0.556480 0.056150 -0.042300
N19   N     N_R   0.400580 0.443520 0.943850 -0.040704
N20   N     N_R   0.556480 0.400580 0.056150 -0.042300
N21   N     N_R   0.443520 0.599420 0.943850 -0.040705
N22   N     N_R   0.400580 0.443520 0.056150 -0.042299
N23   N     N_R   0.943520 0.900580 0.443850 -0.040527
N24   N     N_R   0.599420 0.556480 0.943850 -0.040704
N25   N     N_R   0.443520 0.599420 0.056150 -0.042300
N26   N     N_R   0.556480 0.400580 0.943850 -0.040703
N27   N     N_R   0.056480 0.099420 0.556150 -0.040870
N28   N     N_R   0.099420 0.943520 0.443850 -0.040528
N29   N     N_R   0.900580 0.056480 0.556150 -0.040870
N30   N     N_R   0.056480 0.099420 0.443850 -0.040528
N31   N     N_R   0.943520 0.900580 0.556150 -0.040871
N32   N     N_R   0.099420 0.056480 0.556150 -0.042300
Ni1   Ni    Ni4+2 0.901480 1.000000 0.500000 0.209964
Ni2   Ni    Ni4+2 0.098520 1.000000 0.500000 0.209964
Ni3   Ni    Ni4+2 1.000000 0.901480 0.500000 0.209964
Ni4   Ni    Ni4+2 0.000000 0.098520 0.500000 0.209964
Ni5   Ni    Ni4+2 0.401480 0.500000 0.000000 0.209964
Ni6   Ni    Ni4+2 0.598520 0.500000 0.000000 0.209964
Ni7   Ni    Ni4+2 0.500000 0.401480 0.000000 0.209964
Ni8   Ni    Ni4+2 0.500000 0.598520 0.000000 0.209963

loop_
_geom_bond_atom_site_label_1
_geom_bond_atom_site_label_2
_ccdc_geom_bond_type
C126  C127  S    
C184  C204  S    
C14   C208  A    
C124  N14   A    
C159  C190  A    
C86   H44   S    
C55   C56   S    
C100  H89   S    
C170  N28   A    
C53   H223  S    
C112  H112  S    
C97   H82   S    
C29   C208  A    
C80   H30   S    
C116  H119  S    
C14   C44   S    
C73   H15   S    
C141  N16   A    
C84   H50   S    
C129  H150  S    
C27   C162  S    
C93   H62   S    
C54   H236  S    
C195  C203  A    
C37   H184  S    
C76   H23   S    
C128  H152  S    
C23   C158  S    
C44   H214  S    
C108  C109  S    
C36   H188  S    
C1    N1    A    
C41   H205  S    
C110  C111  S    
C123  H132  S    
C131  H160  S    
C32   C215  A    
C57   H57   S    
C119  H126  S    
C5    C217  A    
C66   H255  S    
C77   H36   S    
C160  C176  T    
C145  H177  S    
C134  H167  S    
C58   H244  S    
C8    C211  A    
C98   H80   S    
C105  H95   S    
C99   H77   S    
C27   C220  A    
N13   Ni8   S    
C183  C202  S    
C133  H154  S    
N2    Ni1   S    
C175  C195  S    
C104  C105  S    
C45   C47   S    
C166  C183  T    
C51   C52   S    
C132  H156  S    
C42   H203  S    
C33   C213  A    
C134  C205  S    
C13   H13   S    
C47   H207  S    
C87   H59   S    
C75   C76   S    
C72   H18   S    
N27   Ni4   S    
C50   H215  S    
C61   H252  S    
N30   Ni4   S    
C12   C20   A    
C113  C199  A    
N20   Ni7   S    
C18   C223  A    
C110  H114  S    
N22   Ni5   S    
C181  N29   A    
C115  H120  S    
C174  C194  S    
C51   H228  S    
C108  H102  S    
N14   Ni6   S    
C33   C168  S    
C3    C77   S    
C91   C92   S    
C2    H2    S    
C140  H169  S    
C91   H65   S    
C14   C19   A    
C19   C224  A    
C72   C73   S    
N6    N30   A    
C84   C223  S    
C101  N11   A    
N23   Ni3   S    
C139  C140  S    
C109  H99   S    
C22   C157  S    
C26   C161  S    
C95   H72   S    
C123  H130  S    
C103  H85   S    
C46   N6    A    
C64   H5    S    
C6    C213  A    
C66   H253  S    
C78   H33   S    
C82   H41   S    
C65   H256  S    
C69   C70   S    
N7    N29   A    
C88   H55   S    
C114  H108  S    
C104  C217  S    
C99   H75   S    
C71   H19   S    
C37   H185  S    
N10   Ni6   S    
C52   H226  S    
C88   C89   S    
C79   N9    A    
C100  C216  S    
C98   C99   S    
N16   N24   A    
C122  H133  S    
N15   Ni5   S    
C150  C201  A    
C67   C69   S    
C112  N12   A    
C145  N20   A    
C142  C204  A    
C35   N5    A    
N5    Ni1   S    
C136  H164  S    
C15   C18   A    
C156  C175  T    
C4    C216  A    
C182  C201  S    
C83   H39   S    
C49   H219  S    
C169  C189  S    
C69   H10   S    
C128  C129  S    
C97   C98   S    
C113  H113  S    
N2    N23   A    
C135  C201  A    
C85   C86   S    
C81   C222  S    
C177  C188  S    
C42   H204  S    
N13   N18   A    
C24   C187  A    
C34   H190  S    
C6    C61   S    
C36   C37   S    
C71   H20   S    
C38   C39   S    
C100  H88   S    
C78   C80   S    
C39   H195  S    
C115  C116  S    
C102  H86   S    
C65   H3    S    
C116  H118  S    
C38   H198  S    
C69   H9    S    
C70   H7    S    
C126  H141  S    
C40   H192  S    
C107  C213  S    
C107  C108  S    
C186  C197  S    
C143  H168  S    
C181  H213  S    
C161  C179  T    
C75   H26   S    
C56   H230  S    
N3    Ni3   S    
C157  C174  T    
C119  H127  S    
C140  H171  S    
C40   H193  S    
C46   H46   S    
C111  H110  S    
C26   C221  A    
C92   H63   S    
C98   H78   S    
C100  C102  S    
N5    N31   A    
C117  H115  S    
C106  H91   S    
C46   C194  A    
C70   H8    S    
C1    C187  A    
C147  H179  S    
C67   H12   S    
C45   H211  S    
C12   C207  A    
N6    Ni2   S    
C141  C202  A    
C39   C40   S    
C32   C211  A    
C9    C23   A    
C68   C191  A    
C63   H247  S    
C136  H165  S    
C24   N4    A    
C50   H217  S    
C170  C191  A    
C11   C21   A    
C171  C190  S    
C146  H178  S    
C192  C194  A    
C114  H106  S    
C180  C200  S    
C137  H161  S    
C127  H139  S    
C141  H146  S    
C125  H143  S    
C89   H53   S    
C135  H135  S    
C87   C220  S    
C94   H74   S    
N11   N19   A    
C120  H123  S    
C62   H250  S    
C29   C218  A    
C138  H175  S    
C118  H129  S    
C82   H40   S    
C57   N7    A    
C83   H37   S    
C144  N19   A    
C52   C53   S    
C90   N10   A    
N9    Ni5   S    
C129  C130  S    
C28   C207  A    
C54   C55   S    
C115  H121  S    
N11   Ni7   S    
C51   H229  S    
C151  C200  A    
C30   C165  S    
C136  C137  S    
C124  H124  S    
C130  H147  S    
C97   H81   S    
C59   H242  S    
C115  C211  S    
C56   H231  S    
C71   C72   S    
C113  N13   A    
C87   H58   S    
C73   H14   S    
C129  H149  S    
C93   H61   S    
N27   N32   A    
C144  H176  S    
C85   H49   S    
C121  H137  S    
C117  H116  S    
C102  C103  S    
N26   Ni7   S    
C162  C178  T    
C123  H131  S    
N29   Ni1   S    
C59   C60   S    
C49   C50   S    
C81   H43   S    
C170  H202  S    
C55   H234  S    
C149  C202  A    
C93   H60   S    
C28   C163  S    
C87   C88   S    
C148  H180  S    
C20   C155  S    
C149  H181  S    
N15   N25   A    
C41   C42   S    
C76   H21   S    
C30   C209  A    
C138  C206  S    
N28   Ni2   S    
C90   C197  A    
C77   C78   S    
C63   H245  S    
C192  N30   A    
C137  H163  S    
C11   C210  A    
C33   C212  A    
C9    C212  A    
C74   C224  S    
N1    N4    A    
C2    N2    A    
C150  N25   A    
C9    C58   S    
C133  H155  S    
C90   H90   S    
C155  C172  T    
C50   H216  S    
C61   H251  S    
C16   C17   A    
N32   Ni2   S    
C139  H172  S    
C2    C189  A    
C60   H239  S    
N8    N28   A    
C132  H158  S    
C142  N17   A    
C181  C193  A    
C15   C34   S    
C164  C180  T    
C35   C195  A    
C47   H209  S    
N14   N26   A    
C8    C25   A    
C29   C164  S    
N16   Ni8   S    
C135  N15   A    
C74   H27   S    
N31   Ni3   S    
C130  H145  S    
C140  H170  S    
C80   H29   S    
C133  H153  S    
C103  H83   S    
C84   C85   S    
C86   H45   S    
C109  H100  S    
C151  H183  S    
C58   C59   S    
C128  H151  S    
N17   N22   A    
C36   H187  S    
C114  H107  S    
C95   H71   S    
C41   H206  S    
C12   C41   S    
C66   H254  S    
C25   C160  S    
N4    Ni4   S    
N18   Ni6   S    
C3    C20   A    
C134  H166  S    
C58   H243  S    
C88   H56   S    
C121  C122  S    
C15   C205  A    
C73   H16   S    
C48   C49   S    
C48   H220  S    
C28   C219  A    
C68   H68   S    
C10   C48   S    
C125  C126  S    
C122  H134  S    
N8    Ni3   S    
C26   C205  A    
C43   H200  S    
C42   C43   S    
C185  C196  S    
C118  H128  S    
C131  C132  S    
C79   H79   S    
C44   C45   S    
C85   H48   S    
C176  C187  S    
C120  H122  S    
C53   H222  S    
C1    H1    S    
C165  C184  T    
C159  H191  S    
C49   H218  S    
C127  H138  S    
C86   H47   S    
C74   H28   S    
C119  C120  S    
C150  H182  S    
C218  C224  A    
C105  C106  S    
C124  C200  A    
N12   Ni2   S    
C47   H208  S    
C7    C25   A    
C27   C206  A    
C78   H32   S    
C64   C65   S    
C110  C215  S    
N1    Ni1   S    
C5    C71   S    
C117  H117  S    
C167  C186  T    
N9    N21   A    
C31   C210  A    
C179  C199  S    
C102  H87   S    
C92   C93   S    
C111  C114  S    
C203  N31   A    
C94   C95   S    
C96   H70   S    
C138  C139  S    
C214  N32   A    
C126  H142  S    
C109  H98   S    
C3    C219  A    
C82   C83   S    
C32   C167  S    
C153  C169  T    
C19   C154  S    
C75   H25   S    
C148  N23   A    
C7    C215  A    
N10   N20   A    
C91   H66   S    
C40   H194  S    
C80   H31   S    
C111  H109  S    
C95   C96   S    
C96   H67   S    
C92   H64   S    
C54   H237  S    
C220  C222  A    
C81   C82   S    
C143  N18   A    
C106  H92   S    
C68   N8    A    
N3    N12   A    
C52   H227  S    
C67   H11   S    
C48   H221  S    
C62   C63   S    
C45   H210  S    
C147  C204  A    
C192  H224  S    
C158  C177  T    
C149  N24   A    
C16   C206  A    
C94   C218  S    
C116  C117  S    
C118  C212  S    
C203  H235  S    
C118  C119  S    
C99   H76   S    
C106  H93   S    
C96   H69   S    
C37   H186  S    
C5    C22   A    
C132  C133  S    
C13   N3    A    
C89   H52   S    
C97   C219  S    
C17   C222  A    
C128  C207  S    
C43   H199  S    
C91   C221  S    
C34   C36   S    
C178  C198  S    
C159  N27   A    
C94   H73   S    
C13   C188  A    
C163  C182  T    
C139  H173  S    
C60   H238  S    
C61   C62   S    
C142  H157  S    
C131  C208  S    
N24   Ni6   S    
C172  C191  S    
C101  H101  S    
C74   C75   S    
C104  H96   S    
C34   H189  S    
C35   H35   S    
C8    C54   S    
C152  C171  T    
C101  C198  A    
C134  C136  S    
C31   C216  A    
C39   H196  S    
C130  H148  S    
C10   C22   A    
C131  H159  S    
C79   C196  A    
C59   H241  S    
C57   C193  A    
C56   H232  S    
C38   H197  S    
C104  H97   S    
C70   H6    S    
C145  C197  A    
C110  H111  S    
C53   H225  S    
C10   C209  A    
C107  H104  S    
C31   C166  S    
C44   H212  S    
C108  H103  S    
C214  H246  S    
C43   H201  S    
C121  H136  S    
C190  C214  A    
C146  N21   A    
C84   H51   S    
C18   C153  S    
C30   C217  A    
C103  H84   S    
C121  C209  S    
C77   H34   S    
C138  H174  S    
C81   H42   S    
C24   H24   S    
C146  C196  A    
C55   H233  S    
C64   H4    S    
C148  C189  A    
C168  C185  T    
C154  C173  T    
C72   H17   S    
C76   H22   S    
C147  N22   A    
C112  C188  A    
C4    C67   S    
C125  C210  S    
C120  H125  S    
C63   H248  S    
C143  C199  A    
N7    Ni4   S    
C221  C223  A    
C137  H162  S    
C173  C193  S    
C4    C21   A    
N21   Ni8   S    
C127  H140  S    
C125  H144  S    
C6    C23   A    
C105  H94   S    
C89   H54   S    
C21   C156  S    
C107  H105  S    
C151  N26   A    
N25   Ni8   S    
C7    C64   S    
C11   C51   S    
C17   C152  S    
C62   H249  S    
C144  C198  A    
C65   C66   S    
N17   Ni7   S    
C60   H240  S    
C83   H38   S    
N19   Ni5   S    
C122  C123  S    
C16   C38   S    
