data_mof_unit_42425.cif
_audit_creation_date              2012-12-10T20:34:55-0500
_audit_creation_method            fapswitch 2.2
_symmetry_space_group_name_H-M    P1
_symmetry_Int_Tables_number       1
_space_group_crystal_system       triclinic
_cell_length_a                    10.629332
_cell_length_b                    10.66875
_cell_length_c                    9.883694
_cell_angle_alpha                 88.510232
_cell_angle_beta                  89.764225
_cell_angle_gamma                 90.363522
_cell_volume                      1120.41588226

loop_
_atom_site_label
_atom_site_type_symbol
_atom_type_description
_atom_site_fract_x
_atom_site_fract_y
_atom_site_fract_z
_atom_type_partial_charge
C1    C     C_R   0.499352 0.260054 0.501333 0.885888
C2    C     C_R   0.595677 0.934033 0.569919 0.108649
C3    C     C_3   0.626031 0.917178 0.716227 -0.486178
C4    C     C_R   0.257646 0.499943 0.499867 0.839870
C5    C     C_3   0.616371 0.058215 0.724283 -0.477764
C6    C     C_R   0.419772 0.423201 0.074117 0.178168
C7    C     C_R   0.571276 0.583176 0.069220 -0.126098
C8    C     C_R   0.571336 0.583144 0.925404 -0.138940
C9    C     C_R   0.420317 0.422535 0.931326 0.204686
C10   C     C_3   0.424400 0.282984 0.933349 -0.054933
C11   C     C_3   0.418540 0.284149 0.086169 -0.531023
C12   C     C_3   0.878564 0.499986 0.498263 0.179658
C13   C     C_R   0.501790 0.739544 0.498026 0.872505
C14   C     C_R   0.742241 0.500025 0.499504 0.824440
C15   C     C_3   0.070697 0.384548 0.580553 -0.373924
C16   C     C_3   0.926439 0.382999 0.578085 -0.406698
C17   C     C_3   0.072579 0.621477 0.563388 -0.397239
C18   C     C_3   0.071829 0.494563 0.351055 -0.386304
C19   C     C_3   0.121099 0.500122 0.498770 0.154815
C20   C     C_3   0.928084 0.620598 0.564782 -0.403770
C21   C     C_3   0.928969 0.496131 0.350662 -0.389589
C22   C     C_R   0.591135 0.062054 0.575664 0.101928
C23   C     C_R   0.501251 0.127658 0.500765 -0.066233
C24   C     C_R   0.428490 0.066186 0.404610 -0.212374
C25   C     C_R   0.432609 0.937005 0.399412 -0.216114
C26   C     C_R   0.509258 0.871181 0.490861 -0.078304
H1    H     H_    0.102407 0.388766 0.687376 0.214131
H2    H     H_    0.706360 0.105048 0.750708 0.198034
H3    H     H_    0.630970 0.648584 0.121304 0.144923
H4    H     H_    0.107486 0.296488 0.537596 0.173530
H5    H     H_    0.631225 0.648395 0.869202 0.143874
H6    H     H_    0.516925 0.251129 0.896396 0.147789
H7    H     H_    0.328539 0.248141 0.130051 0.214560
H8    H     H_    0.504681 0.245498 0.134617 0.211103
H9    H     H_    0.892428 0.295931 0.529951 0.159789
H10   H     H_    0.889939 0.381696 0.683880 0.186849
H11   H     H_    0.107718 0.628671 0.668885 0.185504
H12   H     H_    0.896308 0.579674 0.290945 0.175793
H13   H     H_    0.893912 0.625129 0.671179 0.177360
H14   H     H_    0.107697 0.576250 0.289491 0.181610
H15   H     H_    0.105158 0.407627 0.302526 0.179905
H16   H     H_    0.893418 0.410928 0.299932 0.180451
H17   H     H_    0.107679 0.705269 0.504883 0.160861
H18   H     H_    0.892636 0.705210 0.509098 0.155783
H19   H     H_    0.364433 0.117284 0.338858 0.154787
H20   H     H_    0.370390 0.888606 0.331267 0.160200
H21   H     H_    0.551364 0.866568 0.775277 0.226854
H22   H     H_    0.723107 0.881714 0.732180 0.192088
H23   H     H_    0.532663 0.084440 0.783377 0.234544
I1    I     I_    0.262327 0.198930 0.844454 -0.466176
N1    N     N_R   0.499150 0.499140 0.142800 -0.104781
N2    N     N_R   0.499150 0.499180 0.857150 -0.120977
O1    O     O_R   0.500020 0.316790 0.614690 -0.600010
O2    O     O_R   0.500000 0.316760 0.385350 -0.627410
O3    O     O_R   0.314800 0.500000 0.614670 -0.604868
O4    O     O_R   0.314790 0.499960 0.385330 -0.627412
O5    O     O_R   0.500000 0.683240 0.614650 -0.619551
O6    O     O_R   0.499980 0.683210 0.385310 -0.623251
O7    O     O_R   0.685210 0.500040 0.614670 -0.629871
O8    O     O_R   0.685200 0.500000 0.385330 -0.628747
Zn1   Zn    Zn3+2 0.500010 0.500020 0.653130 0.951251
Zn2   Zn    Zn3+2 0.499990 0.499980 0.346870 0.936360

loop_
_geom_bond_atom_site_label_1
_geom_bond_atom_site_label_2
_ccdc_geom_bond_type
C2    C22   A    
C23   C24   A    
C17   H17   S    
O5    Zn1   S    
C7    H3    S    
C6    N1    A    
C5    H2    S    
C14   O8    A    
C9    C10   S    
C8    N2    A    
C15   H1    S    
C1    O2    A    
C15   C16   S    
C12   C20   S    
C6    C9    A    
C2    C3    S    
C7    N1    A    
C7    C8    A    
C2    C26   A    
C17   H11   S    
C4    O4    A    
C15   C19   S    
C14   O7    A    
N1    Zn2   S    
C5    H23   S    
C9    N2    A    
O6    Zn2   S    
C24   H19   S    
O3    Zn1   S    
C3    H21   S    
C20   H18   S    
C12   C14   S    
C1    C23   S    
N2    Zn1   S    
C6    C11   S    
C16   H9    S    
O4    Zn2   S    
C13   C26   S    
O7    Zn1   S    
C8    H5    S    
C13   O5    A    
C10   C11   S    
C21   H12   S    
C21   H16   S    
C18   C21   S    
C10   H6    S    
C3    H22   S    
C11   H7    S    
C17   C20   S    
C24   C25   A    
C25   H20   S    
C15   H4    S    
O8    Zn2   S    
C18   C19   S    
C18   H15   S    
C4    O3    A    
C20   H13   S    
C1    O1    A    
C22   C23   A    
C18   H14   S    
C13   O6    A    
O2    Zn2   S    
C17   C19   S    
C25   C26   A    
C4    C19   S    
O1    Zn1   S    
C12   C21   S    
C11   H8    S    
C16   H10   S    
C5    C22   S    
C12   C16   S    
C3    C5    S    
C10   I1    S    
