data_mof_unit_36944.cif
_audit_creation_date              2012-12-10T17:03:37-0500
_audit_creation_method            fapswitch 2.2
_symmetry_space_group_name_H-M    P1
_symmetry_Int_Tables_number       1
_space_group_crystal_system       triclinic
_cell_length_a                    10.048371
_cell_length_b                    10.665262
_cell_length_c                    13.120977
_cell_angle_alpha                 90.803005
_cell_angle_beta                  70.205099
_cell_angle_gamma                 90.657174
_cell_volume                      1322.90337604

loop_
_atom_site_label
_atom_site_type_symbol
_atom_type_description
_atom_site_fract_x
_atom_site_fract_y
_atom_site_fract_z
_atom_type_partial_charge
C1    C     C_R   0.497484 0.737575 0.508448 0.936346
C2    C     C_R   0.370045 0.482121 0.821522 -0.119138
C3    C     C_2   0.563030 0.074328 0.565106 -0.165531
C4    C     C_R   0.421408 0.493207 0.703865 0.852728
C5    C     C_2   0.499140 0.129829 0.503572 -0.364168
C6    C     C_2   0.586116 0.939234 0.557294 0.134362
C7    C     C_2   0.486346 0.868930 0.534874 -0.407606
C8    C     C_2   0.100365 0.430569 0.434711 0.126313
C9    C     C_2   0.957446 0.449565 0.424052 -0.180331
C10   C     C_R   0.499220 0.262456 0.500555 0.927060
C11   C     C_R   0.578482 0.498790 0.295921 0.869351
C12   C     C_R   0.430486 0.469552 0.984719 0.086922
C13   C     C_R   0.766905 0.366401 0.019588 -0.201932
C14   C     C_R   0.624830 0.479077 0.179589 -0.058994
C15   C     C_R   0.237424 0.531672 0.881476 -0.193181
C16   C     C_R   0.198309 0.544664 0.993157 -0.149192
C17   C     C_R   0.294895 0.517352 0.044518 -0.203808
C18   C     C_3   0.720871 0.885160 0.568635 -0.335063
C19   C     C_3   0.815243 0.979467 0.602849 -0.404114
C20   C     C_3   0.948710 0.916697 0.607852 -0.885925
C21   C     C_3   0.187130 0.327834 0.362600 -0.345521
C22   C     C_3   0.123778 0.198231 0.401260 -0.370506
C23   C     C_R   0.459724 0.436743 0.875148 0.091842
C24   C     C_3   0.208285 0.094287 0.327087 -0.884790
C25   C     C_R   0.538344 0.453597 0.029804 0.078458
C26   C     C_R   0.662169 0.385269 0.972684 0.179487
C27   C     C_R   0.678390 0.335758 0.870433 -0.265942
C28   C     C_R   0.578659 0.361482 0.821890 -0.208606
C29   C     C_R   0.527775 0.507208 0.129252 -0.267041
C30   C     C_R   0.746967 0.411275 0.124078 -0.209034
H1    H     H_    0.822832 0.388218 0.162973 0.150341
H2    H     H_    0.165706 0.563765 0.841738 0.158129
H3    H     H_    0.259652 0.531350 0.131196 0.128564
H4    H     H_    0.095184 0.581345 0.039512 0.146807
H5    H     H_    0.594836 0.320497 0.742791 0.163370
H6    H     H_    0.606561 0.130945 0.615848 0.147455
H7    H     H_    0.920503 0.840473 0.668475 0.260348
H8    H     H_    0.011146 0.876907 0.527363 0.259659
H9    H     H_    0.015238 0.987060 0.631824 0.252532
H10   H     H_    0.847450 0.056927 0.543530 0.230124
H11   H     H_    0.756211 0.019071 0.684296 0.222601
H12   H     H_    0.454934 0.079598 0.449930 0.142179
H13   H     H_    0.690372 0.809860 0.630261 0.213395
H14   H     H_    0.785791 0.844413 0.489110 0.221636
H15   H     H_    0.205867 0.105658 0.243708 0.264469
H16   H     H_    0.319827 0.096518 0.324596 0.255798
H17   H     H_    0.161292 0.001721 0.357920 0.254040
H18   H     H_    0.123717 0.182646 0.484903 0.237776
H19   H     H_    0.012856 0.192744 0.402202 0.220973
H20   H     H_    0.189463 0.342772 0.278283 0.167507
H21   H     H_    0.297462 0.328601 0.358823 0.262146
H22   H     H_    0.385840 0.909687 0.539336 0.153387
H23   H     H_    0.086111 0.571916 0.539388 0.145312
H24   H     H_    0.938430 0.411075 0.353136 0.162319
H25   H     H_    0.867868 0.524180 0.569975 0.166947
H26   H     H_    0.769730 0.279626 0.826889 0.146156
H27   H     H_    0.861215 0.313338 0.977148 0.140335
H28   H     H_    0.441234 0.568392 0.171469 0.153877
N1    N     N_2   0.148270 0.498670 0.498870 -0.206749
N2    N     N_2   0.852610 0.498640 0.498840 -0.204297
O1    O     O_R   0.386950 0.680940 0.500020 -0.608699
O2    O     O_R   0.613110 0.680900 0.499980 -0.614616
O3    O     O_R   0.330780 0.500000 0.653640 -0.609189
O4    O     O_R   0.556930 0.499960 0.653610 -0.615998
O5    O     O_R   0.386890 0.319100 0.500020 -0.622075
O6    O     O_R   0.613050 0.319060 0.499980 -0.609603
O7    O     O_R   0.443070 0.500040 0.346390 -0.630567
O8    O     O_R   0.669220 0.500000 0.346360 -0.608228
Zn1   Zn    Zn3+2 0.349000 0.500030 0.500020 0.920887
Zn2   Zn    Zn3+2 0.651000 0.499970 0.499980 0.918511

loop_
_geom_bond_atom_site_label_1
_geom_bond_atom_site_label_2
_ccdc_geom_bond_type
C12   C17   A    
C22   H18   S    
C5    H12   S    
C23   C28   A    
C6    C7    D    
C20   H7    S    
O4    Zn2   S    
C20   H8    S    
C4    O4    A    
C2    C4    S    
C19   C20   S    
C12   C23   A    
N2    Zn2   S    
C12   C25   A    
C3    C5    D    
C3    C6    S    
C24   H16   S    
C1    O2    A    
C9    N2    D    
C27   C28   A    
C8    C21   S    
H23   N1    S    
C14   C30   A    
C15   H2    S    
H25   N2    S    
C29   H28   S    
C2    C15   A    
C4    O3    A    
C26   C27   A    
O6    Zn2   S    
C17   H3    S    
C3    H6    S    
N1    Zn1   S    
C22   H19   S    
O5    Zn1   S    
C24   H15   S    
C21   C22   S    
C21   H20   S    
C11   O7    A    
C7    H22   S    
C18   H14   S    
C10   O6    A    
C8    N1    D    
C25   C29   A    
C30   H1    S    
C6    C18   S    
C11   C14   S    
C22   C24   S    
C13   C26   A    
C21   H21   S    
C13   H27   S    
C19   H10   S    
C14   C29   A    
O1    Zn1   S    
C15   C16   A    
O3    Zn1   S    
C13   C30   A    
C5    C10   S    
C11   O8    A    
O2    Zn2   S    
O8    Zn2   S    
C18   C19   S    
C10   O5    A    
C18   H13   S    
C2    C23   A    
C20   H9    S    
C27   H26   S    
C16   C17   A    
C9    H24   S    
C16   H4    S    
C25   C26   A    
C1    C7    S    
C24   H17   S    
C19   H11   S    
C28   H5    S    
C8    C9    S    
O7    Zn1   S    
C1    O1    A    
