data_mof_unit_44825.cif
_audit_creation_date              2012-12-10T16:47:27-0500
_audit_creation_method            fapswitch 2.2
_symmetry_space_group_name_H-M    P1
_symmetry_Int_Tables_number       1
_space_group_crystal_system       triclinic
_cell_length_a                    10.581424
_cell_length_b                    8.740511
_cell_length_c                    7.480316
_cell_angle_alpha                 103.129424
_cell_angle_beta                  94.387915
_cell_angle_gamma                 93.032426
_cell_volume                      670.010768764

loop_
_atom_site_label
_atom_site_type_symbol
_atom_type_description
_atom_site_fract_x
_atom_site_fract_y
_atom_site_fract_z
_atom_type_partial_charge
C1    C     C_R   0.491499 0.200099 0.453220 0.770612
C2    C     C_R   0.497818 0.799239 0.546041 0.771651
C3    C     C_R   0.259606 0.499878 0.501854 0.719432
C4    C     C_R   0.740490 0.500622 0.498250 0.767027
C5    C     C_3   0.049328 0.516159 0.675279 -0.125523
C6    C     C_3   0.951071 0.485111 0.325099 -0.096722
C7    C     C_3   0.955261 0.379703 0.565881 -0.170658
C8    C     C_3   0.045164 0.621567 0.434533 -0.183448
C9    C     C_3   0.877329 0.500557 0.495894 0.033309
C10   C     C_3   0.122980 0.500645 0.504461 0.033042
C11   C     C_3   0.969079 0.637044 0.605302 -0.177626
C12   C     C_3   0.031290 0.364213 0.395097 -0.174471
C13   C     C_2   0.485676 0.031905 0.424135 0.161333
C14   C     C_2   0.478413 0.963912 0.568555 0.186095
Cu1   Cu    Cu3+1 0.514140 0.517380 0.684380 1.118640
Cu2   Cu    Cu3+1 0.485860 0.482620 0.315620 1.115091
H1    H     H_    0.915062 0.280574 0.618999 0.138128
H2    H     H_    0.085688 0.720701 0.381676 0.119706
H3    H     H_    0.092411 0.528836 0.818446 0.162485
H4    H     H_    0.908140 0.472515 0.181880 0.167974
H5    H     H_    0.940268 0.748783 0.690691 0.141376
H6    H     H_    0.060351 0.252544 0.309837 0.128338
N1    N     N_2   0.464560 0.456420 0.038510 0.243395
N2    N     N_2   0.535440 0.543580 0.961490 0.242214
O1    O     O_R   0.509190 0.286130 0.619780 -0.528606
O2    O     O_R   0.490810 0.713870 0.380220 -0.539345
O3    O     O_R   0.485310 0.256770 0.308360 -0.555318
O4    O     O_R   0.514690 0.743230 0.691640 -0.558453
O5    O     O_R   0.328790 0.514640 0.655680 -0.560079
O6    O     O_R   0.671210 0.485360 0.344320 -0.540420
O7    O     O_R   0.304910 0.485280 0.344260 -0.585771
O8    O     O_R   0.695090 0.514720 0.655740 -0.570569
F1    F     F_    0.361589 0.382899 0.934166 -0.573605
F2    F     F_    0.635242 0.623656 0.068249 -0.535111
O9    O     O_3   0.496642 0.945749 0.246288 -0.520913
C15   C     C_3   0.373423 0.910921 0.153564 -0.156210
H7    H     H_    0.326516 0.019861 0.143824 0.127661
H8    H     H_    0.312138 0.838431 0.222040 0.105494
H9    H     H_    0.381375 0.841528 0.011608 0.211552
O10   O     O_3   0.444515 0.045859 0.737408 -0.526388
C16   C     C_3   0.310532 0.030639 0.731886 -0.230660
H10   H     H_    0.274344 0.905219 0.710718 0.094400
H11   H     H_    0.265115 0.083511 0.623151 0.129731
H12   H     H_    0.281000 0.095141 0.865494 0.221211

loop_
_geom_bond_atom_site_label_1
_geom_bond_atom_site_label_2
_ccdc_geom_bond_type
C1    O1    A    
N1    N2    D    
C13   O9    S    
C5    H3    S    
C12   H6    S    
C9    C11   S    
C16   H10   S    
O9    C15   S    
Cu2   O3    S    
C15   H8    S    
Cu1   O8    S    
C2    O2    A    
C3    C10   S    
Cu1   N2    S    
C13   C14   D    
Cu2   O7    S    
C3    O7    A    
C16   H11   S    
C3    O5    A    
Cu1   O4    S    
C4    O8    A    
C10   C12   S    
C6    C9    S    
C8    C11   S    
C8    C10   S    
C15   H7    S    
Cu1   O5    S    
Cu2   N1    S    
C5    C11   S    
C6    C12   S    
C7    C12   S    
C2    C14   S    
C16   H12   S    
C8    H2    S    
Cu1   O1    S    
C1    C13   S    
Cu2   O6    S    
Cu1   Cu2   S    
C7    C9    S    
C5    C10   S    
C6    H4    S    
C1    O3    A    
C5    C7    S    
C2    O4    A    
O10   C16   S    
C6    C8    S    
C7    H1    S    
C4    C9    S    
C14   O10   S    
C11   H5    S    
C15   H9    S    
C4    O6    A    
N1    F1    S    
Cu2   O2    S    
N2    F2    S    
