data_mof_unit_50593.cif
_audit_creation_date              2012-12-10T18:57:12-0500
_audit_creation_method            fapswitch 2.2
_symmetry_space_group_name_H-M    P1
_symmetry_Int_Tables_number       1
_space_group_crystal_system       triclinic
_cell_length_a                    8.731311
_cell_length_b                    10.836119
_cell_length_c                    9.563666
_cell_angle_alpha                 89.772154
_cell_angle_beta                  97.322359
_cell_angle_gamma                 90.158719
_cell_volume                      897.463452522

loop_
_atom_site_label
_atom_site_type_symbol
_atom_type_description
_atom_site_fract_x
_atom_site_fract_y
_atom_site_fract_z
_atom_type_partial_charge
C1    C     C_R   0.500122 0.262610 0.500115 0.816933
C2    C     C_R   0.469184 0.937503 0.367915 0.467223
C3    C     C_R   0.505329 0.871363 0.495951 -0.195831
C4    C     C_R   0.559964 0.936023 0.618323 0.057381
C5    C     C_3   0.514024 0.928099 0.763253 -0.451921
C6    C     C_3   0.514722 0.068273 0.764609 -0.444421
C7    C     C_R   0.590780 0.580894 0.083606 0.188771
C8    C     C_R   0.397936 0.428996 0.063197 0.552823
C9    C     C_R   0.401034 0.427447 0.913936 -0.155564
C10   C     C_R   0.589858 0.581693 0.936301 0.218614
C11   C     C_3   0.761411 0.591557 0.949560 -0.468509
C12   C     C_R   0.204286 0.499783 0.464779 0.914348
C13   C     C_3   0.762457 0.588420 0.107906 -0.515502
C14   C     C_R   0.498521 0.737690 0.499095 0.822371
C15   C     C_R   0.795399 0.494997 0.535523 0.757518
C16   C     C_2   0.039340 0.507533 0.448394 -0.490008
C17   C     C_2   0.959366 0.475306 0.553596 0.339224
C18   C     C_R   0.561171 0.063030 0.619755 0.104450
C19   C     C_R   0.507663 0.129692 0.498634 -0.168161
C20   C     C_R   0.468882 0.066605 0.371237 -0.300635
Cu1   Cu    Cu3+1 0.499990 0.499980 0.640670 0.958319
Cu2   Cu    Cu3+1 0.500010 0.500020 0.359330 0.987181
H1    H     H_    0.983342 0.546074 0.350484 0.128271
H2    H     H_    0.326305 0.365235 0.848532 0.175032
H3    H     H_    0.817152 0.509022 0.909565 0.234695
H4    H     H_    0.799875 0.681529 0.909806 0.191539
H5    H     H_    0.815055 0.502358 0.155471 0.208135
H6    H     H_    0.804301 0.675631 0.160537 0.195177
H7    H     H_    0.428592 0.116966 0.275608 0.204985
H8    H     H_    0.397172 0.887399 0.764807 0.205312
H9    H     H_    0.606700 0.886880 0.839546 0.185091
H10   H     H_    0.398143 0.108969 0.766316 0.198848
H11   H     H_    0.607178 0.107819 0.842359 0.190166
N1    N     N_R   0.500980 0.500930 0.148050 -0.220110
N2    N     N_R   0.500990 0.500890 0.852140 -0.210631
O1    O     O_R   0.500000 0.319640 0.618810 -0.591152
O2    O     O_R   0.500020 0.319680 0.381230 -0.549954
O3    O     O_R   0.274830 0.499980 0.591380 -0.528502
O4    O     O_R   0.274850 0.500020 0.353800 -0.557565
O5    O     O_R   0.499980 0.680320 0.618770 -0.589692
O6    O     O_R   0.500000 0.680360 0.381190 -0.536271
O7    O     O_R   0.725150 0.499980 0.646200 -0.567801
O8    O     O_R   0.725170 0.500020 0.408620 -0.615915
O9    O     O_3   0.028787 0.419549 0.676329 -0.565088
C21   C     C_3   0.006033 0.290828 0.662948 -0.351370
H12   H     H_    0.049021 0.254518 0.566298 0.157635
H13   H     H_    0.882243 0.266183 0.663309 0.162543
H14   H     H_    0.072903 0.243966 0.754119 0.171136
O10   O     O_3   0.410817 0.876919 0.245210 -0.558461
C22   C     C_3   0.511097 0.894798 0.142308 -0.294710
H15   H     H_    0.473913 0.832621 0.052571 0.181642
H16   H     H_    0.632544 0.870702 0.183285 0.146992
H17   H     H_    0.504382 0.990764 0.100666 0.160649
O11   O     O_3   0.301084 0.350342 0.125142 -0.564437
C23   C     C_3   0.145749 0.380905 0.078765 -0.317517
H18   H     H_    0.071440 0.335164 0.149450 0.180486
H19   H     H_    0.109844 0.346132 0.970832 0.170945
H20   H     H_    0.124186 0.482082 0.083408 0.175291

loop_
_geom_bond_atom_site_label_1
_geom_bond_atom_site_label_2
_ccdc_geom_bond_type
C8    C9    A    
C7    C10   A    
C22   H16   S    
C23   H18   S    
C9    H2    S    
C10   N2    A    
Cu1   N2    S    
C2    O10   S    
C6    H10   S    
C19   C20   A    
C6    H11   S    
C1    O2    A    
C4    C18   A    
C12   O4    A    
C21   H13   S    
C2    C3    A    
C17   O9    S    
C15   O8    A    
C13   H6    S    
Cu1   O1    S    
C8    N1    A    
Cu1   Cu2   S    
C11   C13   S    
C23   H20   S    
C3    C14   S    
C14   O6    A    
C6    C18   S    
Cu2   O4    S    
O10   C22   S    
C16   H1    S    
C20   H7    S    
C23   H19   S    
C12   O3    A    
C5    C6    S    
Cu2   N1    S    
C7    N1    A    
C1    C19   S    
C22   H17   S    
C10   C11   S    
C11   H3    S    
C2    C20   A    
C3    C4    A    
Cu2   O6    S    
C12   C16   S    
C7    C13   S    
O9    C21   S    
C15   O7    A    
C15   C17   S    
C18   C19   A    
C5    H8    S    
C21   H14   S    
C8    O11   S    
C9    N2    A    
O11   C23   S    
C4    C5    S    
C11   H4    S    
C22   H15   S    
C21   H12   S    
Cu2   O2    S    
C14   O5    A    
Cu2   O8    S    
C13   H5    S    
Cu1   O3    S    
Cu1   O7    S    
C1    O1    A    
C16   C17   D    
C5    H9    S    
Cu1   O5    S    
