data_mof_unit_56770.cif
_audit_creation_date              2012-12-10T17:08:39-0500
_audit_creation_method            fapswitch 2.2
_symmetry_space_group_name_H-M    P1
_symmetry_Int_Tables_number       1
_space_group_crystal_system       triclinic
_cell_length_a                    15.735229
_cell_length_b                    10.716844
_cell_length_c                    10.000455
_cell_angle_alpha                 89.309607
_cell_angle_beta                  90.290734
_cell_angle_gamma                 89.791838
_cell_volume                      1686.24102928

loop_
_atom_site_label
_atom_site_type_symbol
_atom_type_description
_atom_site_fract_x
_atom_site_fract_y
_atom_site_fract_z
_atom_type_partial_charge
C1    C     C_R   0.496040 0.262647 0.500704 0.908465
C2    C     C_2   0.519942 0.868357 0.493975 0.347465
C3    C     C_2   0.484757 0.067179 0.390313 -0.153520
C4    C     C_R   0.338288 0.500605 0.499666 0.894921
C5    C     C_2   0.482948 0.131592 0.503081 -0.257387
C6    C     C_2   0.535325 0.586880 0.924500 -0.290885
C7    C     C_2   0.546367 0.576994 0.076028 0.510205
C8    C     C_R   0.504354 0.737081 0.499005 0.774587
C9    C     C_R   0.661656 0.500381 0.500290 0.893744
C10   C     C_3   0.051523 0.428724 0.620158 -0.483924
C11   C     C_3   0.047047 0.443695 0.366464 -0.218483
C12   C     C_3   0.953615 0.417304 0.613511 0.366515
C13   C     C_3   0.948227 0.451559 0.364558 -0.534527
C14   C     C_1   0.750366 0.502024 0.501054 -0.200263
C15   C     C_3   0.082633 0.505976 0.497032 0.172771
C16   C     C_3   0.910909 0.536578 0.802535 0.134265
C17   C     C_3   0.898526 0.516656 0.951978 -0.847746
C18   C     C_3   0.652976 0.859549 0.593567 0.106382
C19   C     C_3   0.719163 0.942317 0.658882 -0.830820
C20   C     C_3   0.675503 0.681958 0.074946 0.094220
C21   C     C_3   0.742132 0.728202 0.173248 -0.837730
C22   C     C_R   0.087088 0.489948 0.235778 0.172725
C23   C     C_3   0.916831 0.504209 0.499663 0.168606
C24   C     C_R   0.148070 0.414917 0.172034 -0.150549
C25   C     C_R   0.184573 0.453238 0.051189 -0.136107
C26   C     C_R   0.160776 0.566770 0.992057 -0.099109
C27   C     C_R   0.100724 0.642390 0.054041 -0.144261
C28   C     C_R   0.063998 0.604621 0.174784 -0.179702
C29   C     C_3   0.088013 0.825824 0.615571 0.084491
C30   C     C_3   0.102937 0.882684 0.752109 -0.850145
C31   C     C_3   0.950320 0.640324 0.507938 -0.499838
C32   C     C_3   0.048924 0.642044 0.509478 0.370808
C33   C     C_1   0.825571 0.503371 0.500941 -0.040896
C34   C     C_1   0.174212 0.504925 0.497421 -0.036446
C35   C     C_1   0.249474 0.502998 0.498536 -0.185692
C36   C     C_2   0.479635 0.933484 0.397405 -0.260629
H1    H     H_    0.941884 0.320411 0.578827 0.111503
H2    H     H_    0.454786 0.450059 0.100851 0.103652
H3    H     H_    0.062729 0.342394 0.376035 0.139204
H4    H     H_    0.921630 0.356735 0.348113 0.173513
H5    H     H_    0.923509 0.510104 0.280396 0.204232
H6    H     H_    0.072264 0.695871 0.421137 0.053505
H7    H     H_    0.924284 0.690243 0.595017 0.169403
H8    H     H_    0.855835 0.591610 0.764204 0.141583
H9    H     H_    0.970348 0.590273 0.789177 0.184846
H10   H     H_    0.951134 0.458526 0.993653 0.275182
H11   H     H_    0.898170 0.607995 0.003087 0.199350
H12   H     H_    0.073344 0.471037 0.715040 0.225040
H13   H     H_    0.837225 0.468774 0.971050 0.256939
H14   H     H_    0.676974 0.833177 0.492931 0.127080
H15   H     H_    0.645989 0.774283 0.656885 0.151178
H16   H     H_    0.698235 0.968239 0.760792 0.258419
H17   H     H_    0.780685 0.891512 0.666700 0.193901
H18   H     H_    0.728256 0.028480 0.597846 0.263441
H19   H     H_    0.664889 0.756451 0.998308 0.138813
H20   H     H_    0.701099 0.596506 0.026644 0.133196
H21   H     H_    0.757606 0.653733 0.247656 0.256048
H22   H     H_    0.800938 0.754148 0.118925 0.197052
H23   H     H_    0.927245 0.694900 0.419462 0.139793
H24   H     H_    0.717948 0.811471 0.226333 0.256168
H25   H     H_    0.167640 0.326455 0.215913 0.112232
H26   H     H_    0.231272 0.394651 0.003236 0.127645
H27   H     H_    0.188717 0.596024 0.898127 0.153799
H28   H     H_    0.081925 0.730095 0.008111 0.137476
H29   H     H_    0.016268 0.664348 0.217947 0.111785
H30   H     H_    0.029905 0.869695 0.571136 0.129895
H31   H     H_    0.143675 0.847268 0.551143 0.145343
H32   H     H_    0.159993 0.840001 0.800184 0.256617
H33   H     H_    0.113006 0.984790 0.741070 0.210686
H34   H     H_    0.441930 0.887771 0.320949 0.146170
H35   H     H_    0.046676 0.866422 0.816502 0.241925
H36   H     H_    0.489075 0.111770 0.292438 0.171917
H37   H     H_    0.471147 0.087194 0.599497 0.191497
H38   H     H_    0.559505 0.668865 0.873186 0.174927
H39   H     H_    0.484476 0.419051 0.898852 0.156122
H40   H     H_    0.080286 0.333562 0.619263 0.136987
N1    N     N_2   0.500900 0.501330 0.852150 -0.198869
N2    N     N_2   0.500920 0.501360 0.147810 -0.211534
O1    O     O_R   0.499990 0.319060 0.613040 -0.614152
O2    O     O_3   0.574900 0.925148 0.584533 -0.611702
O3    O     O_3   0.599331 0.658142 0.144760 -0.566205
O4    O     O_3   0.078971 0.695208 0.630247 -0.624114
O5    O     O_R   0.500010 0.319100 0.386900 -0.622770
O6    O     O_R   0.377130 0.499990 0.613120 -0.604712
O7    O     O_R   0.377160 0.500030 0.386980 -0.614790
O8    O     O_R   0.499990 0.680900 0.613100 -0.609664
O9    O     O_R   0.500010 0.680940 0.386960 -0.586650
O10   O     O_R   0.622840 0.499970 0.613020 -0.611808
O11   O     O_R   0.622870 0.500010 0.386880 -0.569102
O12   O     O_3   0.912738 0.419037 0.740391 -0.603042
Zn1   Zn    Zn3+2 0.499980 0.499970 0.650990 0.946917
Zn2   Zn    Zn3+2 0.500020 0.500030 0.349010 0.982618

loop_
_geom_bond_atom_site_label_1
_geom_bond_atom_site_label_2
_ccdc_geom_bond_type
C16   O12   S    
C24   H25   S    
C26   H27   S    
C14   C33   T    
C13   H5    S    
C30   H35   S    
C15   C32   S    
O5    Zn2   S    
C12   C23   S    
C26   C27   A    
C31   H7    S    
C1    C5    S    
C12   O12   S    
C18   C19   S    
C10   C15   S    
C9    O10   A    
C13   C23   S    
C34   C35   T    
C31   H23   S    
C12   H1    S    
C13   H4    S    
C29   H31   S    
C11   C15   S    
C19   H16   S    
C16   C17   S    
C23   C33   S    
O6    Zn1   S    
C16   H8    S    
C15   C34   S    
O1    Zn1   S    
C20   H20   S    
C19   H17   S    
C4    C35   S    
C22   C28   A    
O9    Zn2   S    
C10   H40   S    
C20   H19   S    
O7    Zn2   S    
C36   H34   S    
C18   H15   S    
C6    H38   S    
C17   H10   S    
C21   H24   S    
C9    O11   A    
C6    N1    D    
C4    O7    A    
H2    N2    S    
N2    Zn2   S    
C25   C26   A    
C23   C31   S    
C9    C14   S    
C21   H21   S    
C29   C30   S    
C31   C32   S    
C4    O6    A    
O10   Zn1   S    
C24   C25   A    
O11   Zn2   S    
C11   H3    S    
H39   N1    S    
C10   C12   S    
C7    N2    D    
C19   H18   S    
C7    O3    S    
C10   H12   S    
C1    O1    A    
C22   C24   A    
C17   H13   S    
C30   H33   S    
C18   H14   S    
C2    C36   D    
N1    Zn1   S    
C2    C8    S    
C17   H11   S    
C3    C5    D    
C16   H9    S    
C6    C7    S    
C1    O5    A    
C32   O4    S    
C11   C22   S    
O8    Zn1   S    
C8    O9    A    
C3    H36   S    
C21   H22   S    
C11   C13   S    
C3    C36   S    
C28   H29   S    
C8    O8    A    
C25   H26   S    
C5    H37   S    
C2    O2    S    
C27   H28   S    
C29   H30   S    
C29   O4    S    
C20   C21   S    
C18   O2    S    
C27   C28   A    
C32   H6    S    
C20   O3    S    
C30   H32   S    
