data_mof_unit_21761.cif
_audit_creation_date              2012-12-10T17:22:42-0500
_audit_creation_method            fapswitch 2.2
_symmetry_space_group_name_H-M    P1
_symmetry_Int_Tables_number       1
_space_group_crystal_system       triclinic
_cell_length_a                    10.62388
_cell_length_b                    10.842506
_cell_length_c                    9.627109
_cell_angle_alpha                 89.164621
_cell_angle_beta                  90.323093
_cell_angle_gamma                 90.897883
_cell_volume                      1108.67145243

loop_
_atom_site_label
_atom_site_type_symbol
_atom_type_description
_atom_site_fract_x
_atom_site_fract_y
_atom_site_fract_z
_atom_type_partial_charge
C1    C     C_R   0.512370 0.262808 0.501844 0.797386
C2    C     C_3   0.961301 0.611237 0.441754 -0.194972
C3    C     C_3   0.040195 0.513346 0.368032 -0.128460
C4    C     C_3   0.122577 0.503020 0.498867 0.027477
C5    C     C_R   0.740433 0.106063 0.614336 0.131327
C6    C     C_R   0.846351 0.031512 0.633471 -0.114097
C7    C     C_R   0.842753 0.908734 0.597988 -0.216527
C8    C     C_R   0.731535 0.856403 0.550694 -0.212609
C9    C     C_R   0.622204 0.927436 0.532877 0.079222
C10   C     C_R   0.627372 0.057189 0.552135 0.078066
C11   C     C_R   0.519531 0.127421 0.506780 -0.095256
C12   C     C_R   0.259549 0.500537 0.499584 0.780334
C13   C     C_R   0.411284 0.066287 0.457886 -0.197637
C14   C     C_R   0.404224 0.938918 0.455659 -0.209433
C15   C     C_R   0.507990 0.869941 0.494770 -0.068106
C16   C     C_R   0.660578 0.666753 0.141660 -0.150981
C17   C     C_R   0.734584 0.752705 0.068546 0.176386
C18   C     C_R   0.735896 0.749705 0.925203 -0.207097
C19   C     C_R   0.662187 0.664152 0.855214 -0.191025
C20   C     C_R   0.579522 0.580915 0.924682 0.205536
C21   C     C_R   0.579211 0.581428 0.073885 0.164957
C22   C     C_R   0.424573 0.422876 0.074565 -0.054527
C23   C     C_R   0.495707 0.736876 0.498534 0.770416
C24   C     C_R   0.424541 0.422977 0.926879 -0.065175
C25   C     C_R   0.740420 0.507491 0.500158 0.721566
C26   C     C_3   0.039094 0.399064 0.558628 -0.181997
C27   C     C_3   0.954574 0.409270 0.427824 -0.154597
C28   C     C_3   0.877754 0.507317 0.501197 0.039132
C29   C     C_3   0.960149 0.497134 0.632129 -0.134429
C30   C     C_3   0.046002 0.601023 0.572387 -0.169808
Cu1   Cu    Cu3+1 0.499990 0.499990 0.640660 0.925507
Cu2   Cu    Cu3+1 0.500010 0.500010 0.359340 0.931968
H1    H     H_    0.914189 0.330687 0.368806 0.135530
H2    H     H_    0.925463 0.852829 0.611812 0.141030
H3    H     H_    0.732225 0.759534 0.526812 0.116614
H4    H     H_    0.317363 0.893814 0.423255 0.136144
H5    H     H_    0.362525 0.359579 0.130072 0.135126
H6    H     H_    0.670382 0.671656 0.250944 0.204908
H7    H     H_    0.795696 0.813105 0.866777 0.167175
H8    H     H_    0.674173 0.667979 0.746549 0.213383
H9    H     H_    0.362522 0.359730 0.872569 0.137153
H10   H     H_    0.073902 0.312062 0.606191 0.121505
H11   H     H_    0.924739 0.491013 0.740340 0.143281
H12   H     H_    0.086887 0.679302 0.631470 0.125048
H13   H     H_    0.926555 0.698710 0.396675 0.126449
H14   H     H_    0.075258 0.520046 0.259723 0.138573
H15   H     H_    0.329700 0.117988 0.424330 0.136309
H16   H     H_    0.933274 0.068567 0.676486 0.127095
N1    N     N_R   0.501210 0.501210 0.147910 -0.192391
N2    N     N_R   0.501250 0.501290 0.852040 -0.193469
O1    O     O_R   0.499990 0.319640 0.618810 -0.580431
O2    O     O_R   0.500000 0.319660 0.381240 -0.571043
O3    O     O_R   0.316850 0.499960 0.618770 -0.576316
O4    O     O_R   0.316860 0.499980 0.381190 -0.585225
O5    O     O_R   0.500000 0.680340 0.618760 -0.589036
O6    O     O_R   0.500010 0.680360 0.381190 -0.598102
O7    O     O_R   0.683140 0.500020 0.618810 -0.604475
O8    O     O_R   0.683150 0.500040 0.381230 -0.595081
C31   C     C_3   0.813268 0.846717 0.144281 -0.879003
H17   H     H_    0.893831 0.800797 0.195362 0.223961
H18   H     H_    0.851342 0.918842 0.072175 0.235009
H19   H     H_    0.755574 0.892810 0.223574 0.243577
C32   C     C_3   0.753566 0.233959 0.665334 -0.825787
H20   H     H_    0.846387 0.253236 0.714709 0.208733
H21   H     H_    0.746960 0.292102 0.572643 0.228343
H22   H     H_    0.681212 0.252229 0.744498 0.262867

loop_
_geom_bond_atom_site_label_1
_geom_bond_atom_site_label_2
_ccdc_geom_bond_type
C4    C26   S    
C18   H7    S    
C32   H21   S    
C23   O5    A    
C16   C21   A    
C20   N2    A    
C4    C12   S    
C11   C13   A    
C9    C10   A    
C3    H14   S    
C19   C20   A    
C1    C11   S    
Cu2   O8    S    
C2    C30   S    
Cu1   O7    S    
C15   C23   S    
C17   C18   A    
C9    C15   A    
C32   H22   S    
C4    C30   S    
C31   H17   S    
C12   O4    A    
C13   C14   A    
Cu1   O3    S    
C25   C28   S    
C14   H4    S    
C24   H9    S    
C1    O1    A    
C30   H12   S    
C26   C27   S    
C29   C30   S    
C6    H16   S    
C17   C31   S    
C22   N1    A    
C21   N1    A    
C29   H11   S    
Cu2   O4    S    
C28   C29   S    
C7    H2    S    
C2    C3    S    
C6    C7    A    
C3    C27   S    
C2    H13   S    
C24   N2    A    
C5    C6    A    
C1    O2    A    
C22   C24   A    
Cu2   N1    S    
C31   H18   S    
C7    C8    A    
C19   H8    S    
Cu1   N2    S    
C5    C10   A    
C3    C4    S    
C25   O7    A    
C23   O6    A    
C20   C21   A    
C5    C32   S    
C26   C29   S    
C13   H15   S    
C18   C19   A    
C10   C11   A    
Cu1   O1    S    
C27   C28   S    
C26   H10   S    
C25   O8    A    
C14   C15   A    
Cu2   O2    S    
C31   H19   S    
C2    C28   S    
Cu1   O5    S    
C32   H20   S    
C22   H5    S    
Cu2   O6    S    
Cu1   Cu2   S    
C27   H1    S    
C12   O3    A    
C16   C17   A    
C16   H6    S    
C8    C9    A    
C8    H3    S    
