data_mof_unit_26921.cif
_audit_creation_date              2013-03-05T16:00:38-0500
_audit_creation_method            fapswitch 2.2
_symmetry_space_group_name_H-M    P1
_symmetry_Int_Tables_number       1
_space_group_crystal_system       triclinic
_cell_length_a                    10.833016
_cell_length_b                    14.78898
_cell_length_c                    14.710115
_cell_angle_alpha                 63.949927
_cell_angle_beta                  105.421559
_cell_angle_gamma                 103.256358
_cell_volume                      2023.74748865

loop_
_atom_site_label
_atom_site_type_symbol
_atom_site_description
_atom_site_fract_x
_atom_site_fract_y
_atom_site_fract_z
_atom_type_partial_charge
O1    O     O_R   0.455060 0.022100 0.338110 -0.612609
O2    O     O_R   0.512640 0.160150 0.379180 -0.593782
C1    C     C_R   0.475486 0.120354 0.311070 0.777266
O3    O     O_R   0.288900 0.930980 0.479450 -0.605157
O4    O     O_R   0.346480 0.069030 0.520520 -0.540696
C2    C     C_R   0.260351 0.000297 0.499202 0.843009
Cu1   Cu    Cu3+1 0.465900 0.918260 0.475680 0.942081
Cu2   Cu    Cu3+1 0.534100 0.081740 0.524320 0.947581
O5    O     O_R   0.487360 0.839850 0.620820 -0.557710
O6    O     O_R   0.544940 0.977900 0.661890 -0.584168
O7    O     O_R   0.653520 0.930970 0.479480 -0.591180
O8    O     O_R   0.711100 0.069020 0.520550 -0.593574
C3    C     C_R   0.519785 0.879568 0.688540 0.807308
C4    C     C_R   0.739767 0.001711 0.498045 0.799003
C5    C     C_3   0.029758 0.935756 0.443159 -0.433662
H1    H     H_    0.056709 0.858700 0.470317 0.212154
H2    H     H_    0.033433 0.971218 0.359938 0.213439
C6    C     C_3   0.890541 0.926540 0.456280 -0.487081
H3    H     H_    0.824867 0.940514 0.380237 0.194147
H4    H     H_    0.860253 0.848279 0.506455 0.198672
C7    C     C_3   0.102809 0.950050 0.617911 -0.079902
C8    C     C_3   0.085908 0.111937 0.441360 0.017353
C9    C     C_3   0.123272 0.000050 0.500944 -0.002304
H5    H     H_    0.131928 0.154480 0.489801 0.260448
C10   C     C_3   0.879400 0.002705 0.500553 0.071322
C11   C     C_3   0.961175 0.968042 0.616962 0.079304
C12   C     C_3   0.937028 0.108477 0.422746 -0.019203
H6    H     H_    0.898443 0.108966 0.344177 0.177750
C13   C     C_R   0.445264 0.188158 0.200444 -0.060693
C14   C     C_R   0.512626 0.810190 0.796518 -0.028409
C15   C     C_R   0.348768 0.210449 0.023508 0.030231
C16   C     C_R   0.389951 0.147685 0.126810 -0.274607
C17   C     C_R   0.456813 0.293041 0.169866 -0.239262
C18   C     C_R   0.409241 0.358056 0.067828 0.065175
C19   C     C_R   0.370862 0.318496 0.990764 0.082665
C20   C     C_R   0.407493 0.462800 0.041006 0.023734
C21   C     C_R   0.406600 0.531759 0.937264 -0.062933
C22   C     C_R   0.364059 0.493281 0.858819 -0.086490
C23   C     C_R   0.354946 0.387771 0.885341 -0.056105
C24   C     C_R   0.400512 0.500663 0.113444 0.151424
C25   C     C_R   0.430361 0.605853 0.090186 -0.018968
C26   C     C_R   0.456011 0.674157 0.991861 0.043498
C27   C     C_R   0.447488 0.636962 0.916068 0.086318
C28   C     C_R   0.489738 0.779545 0.966924 -0.173813
C29   C     C_R   0.512769 0.846798 0.869240 -0.160572
C30   C     C_R   0.489053 0.705260 0.823413 -0.173637
H7    H     H_    0.503899 0.677639 0.770826 0.165168
H8    H     H_    0.528984 0.927368 0.850599 0.150529
H9    H     H_    0.372576 0.066014 0.150699 0.139676
H10   H     H_    0.503497 0.324129 0.226532 0.175394
H11   H     H_    0.496093 0.811829 0.021442 0.124529
N1    N     N_R   0.585360 0.204570 0.560800 -0.186626
N2    N     N_R   0.414550 0.795430 0.439160 -0.223405
C31   C     C_R   0.717217 0.290201 0.668983 0.066006
C32   C     C_R   0.678712 0.203166 0.646299 0.377516
C33   C     C_R   0.518302 0.286326 0.506439 -0.001069
C34   C     C_R   0.550134 0.373433 0.530771 -0.048596
C35   C     C_R   0.667332 0.380646 0.598314 -0.020657
C36   C     C_R   0.472667 0.454017 0.490925 0.101708
C37   C     C_R   0.531331 0.550197 0.495715 0.057625
C38   C     C_R   0.667017 0.563630 0.530774 0.129158
C39   C     C_R   0.732387 0.477545 0.591068 0.006980
C40   C     C_R   0.337903 0.441477 0.451588 0.152776
C41   C     C_R   0.272048 0.525840 0.399549 -0.160645
C42   C     C_R   0.327560 0.618459 0.404529 0.105047
C43   C     C_R   0.452765 0.629846 0.460808 0.043126
C44   C     C_R   0.254067 0.697955 0.358187 -0.262757
C45   C     C_R   0.299403 0.787796 0.372648 0.204325
C46   C     C_R   0.489417 0.718034 0.483729 0.040406
H12   H     H_    0.574945 0.724212 0.539474 0.143991
H13   H     H_    0.171531 0.516553 0.362909 0.134833
H14   H     H_    0.441728 0.283509 0.443425 0.143495
H15   H     H_    0.160132 0.689288 0.310925 0.182037
C47   C     C_3   0.893768 0.207689 0.408781 -0.795934
H16   H     H_    0.796781 0.217138 0.358283 0.218791
H17   H     H_    0.885660 0.210918 0.480182 0.296232
H18   H     H_    0.960244 0.275249 0.370152 0.223516
C48   C     C_2   0.207102 0.990755 0.690729 0.438343
H19   H     H_    0.227111 0.942974 0.772604 0.091761
O9    O     O_2   0.261668 0.077696 0.662012 -0.523801
C49   C     C_2   0.972449 0.045270 0.663387 0.371940
H20   H     H_    0.947670 0.019562 0.738400 0.086384
O10   O     O_2   0.024654 0.132212 0.626884 -0.548467
C50   C     C_2   0.344867 0.353349 0.802423 0.516254
H21   H     H_    0.266626 0.371848 0.736111 0.124223
O11   O     O_2   0.425847 0.305176 0.807225 -0.549339
C51   C     C_2   0.436076 0.643848 0.169714 0.350107
H22   H     H_    0.389118 0.708997 0.150576 0.056498
O12   O     O_2   0.496324 0.603592 0.256913 -0.551640
C52   C     C_2   0.267427 0.157480 0.958462 0.402244
H23   H     H_    0.290492 0.085785 0.967983 0.074098
O13   O     O_2   0.169107 0.189397 0.899298 -0.564618
C53   C     C_2   0.307983 0.560929 0.752019 0.323763
H24   H     H_    0.251066 0.617660 0.741104 0.166172
O14   O     O_2   0.329432 0.557735 0.676170 -0.569791
C54   C     C_3   0.335874 0.434249 0.205416 -0.838490
H25   H     H_    0.280769 0.363369 0.199578 0.228316
H26   H     H_    0.408894 0.416110 0.277647 0.250580
H27   H     H_    0.263473 0.474183 0.209348 0.232472
C55   C     C_2   0.874112 0.489818 0.632152 0.356951
H28   H     H_    0.934657 0.440409 0.632572 0.091273
O15   O     O_2   0.923530 0.552669 0.668437 -0.554260
C56   C     C_2   0.216582 0.870725 0.315687 0.316167
H29   H     H_    0.251017 0.947453 0.306709 0.129808
O16   O     O_2   0.104679 0.854072 0.275099 -0.584022
C57   C     C_3   0.794417 0.282226 0.774485 -0.801831
H30   H     H_    0.755673 0.213078 0.835977 0.247280
H31   H     H_    0.897762 0.279345 0.779976 0.245433
H32   H     H_    0.786233 0.346360 0.791625 0.254967
C58   C     C_3   0.738215 0.108912 0.721122 -0.775778
H33   H     H_    0.746477 0.062110 0.683681 0.251258
H34   H     H_    0.838831 0.127414 0.757206 0.218618
H35   H     H_    0.681215 0.064951 0.782933 0.213743
C59   C     C_3   0.746377 0.666635 0.492393 -0.804909
H36   H     H_    0.693027 0.723737 0.423942 0.223666
H37   H     H_    0.779716 0.691417 0.556735 0.234510
H38   H     H_    0.831530 0.662376 0.466540 0.254032
C60   C     C_3   0.255143 0.340347 0.474529 -0.855463
H39   H     H_    0.237451 0.320859 0.407449 0.222662
H40   H     H_    0.298713 0.280406 0.546237 0.293198
H41   H     H_    0.160159 0.343616 0.487716 0.254049
C61   C     C_2   0.115846 0.835877 0.661368 0.280044
H42   H     H_    0.039735 0.783891 0.638570 0.143032
O17   O     O_2   0.212722 0.800622 0.720147 -0.583392
C62   C     C_3   0.887607 0.870052 0.690975 -0.982999
H43   H     H_    0.857859 0.807520 0.664719 0.243340
H44   H     H_    0.948640 0.840604 0.769136 0.242626
H45   H     H_    0.797574 0.886484 0.700086 0.216640
C63   C     C_3   0.134304 0.172258 0.337397 -0.969121
H46   H     H_    0.241112 0.187713 0.349744 0.246447
H47   H     H_    0.101335 0.132029 0.285345 0.246110
H48   H     H_    0.098011 0.247002 0.295432 0.248368

loop_
_geom_bond_atom_site_label_1
_geom_bond_atom_site_label_2
_geom_bond_distance
_ccdc_geom_bond_type
C35   C39   1.415708 A    
C5    C6    1.538746 S    
C51   H22   1.084767 S    
C53   H24   1.084495 S    
C25   C26   1.411162 A    
C31   C32   1.413895 A    
C14   C29   1.394595 A    
C45   C56   1.487758 S    
C7    C11   1.611752 S    
N2    C46   1.371710 A    
C59   H36   1.108393 S    
C52   H23   1.085703 S    
Cu1   Cu2   2.705937 S    
Cu1   O7    1.985716 S    
C47   H17   1.099180 S    
C20   C21   1.413761 A    
C50   O11   1.221300 D    
C23   C50   1.485894 S    
C18   C19   1.421458 A    
C13   C16   1.396543 A    
O4    C2    1.300596 A    
O7    C4    1.307279 A    
C48   O9    1.219939 D    
C34   C36   1.432360 A    
C43   C46   1.431730 A    
C57   H30   1.110290 S    
C5    H1    1.110940 S    
C54   H27   1.110798 S    
C13   C17   1.397166 A    
C33   C34   1.429040 A    
C38   C59   1.510151 S    
Cu1   O5    1.908457 S    
C6    H3    1.114120 S    
C41   H13   1.085986 S    
C7    C61   1.546913 S    
C1    C13   1.481506 S    
N2    C45   1.381791 A    
O5    C3    1.301534 A    
C60   H39   1.103345 S    
C15   C19   1.432660 A    
C58   H33   1.086224 S    
C33   H14   1.076198 S    
C47   H18   1.108493 S    
C54   H26   1.107528 S    
C7    C48   1.548242 S    
C62   H45   1.111358 S    
C44   H15   1.085109 S    
C12   C47   1.553709 S    
Cu2   N1    2.032532 S    
C18   C20   1.424179 A    
N1    C32   1.383900 A    
C63   H48   1.108346 S    
C5    C9    1.569414 S    
C37   C43   1.439329 A    
C36   C37   1.442804 A    
C53   O14   1.220777 D    
C38   C39   1.413012 A    
C6    C10   1.567150 S    
C26   C28   1.416056 A    
C24   C54   1.518782 S    
O3    Cu1   1.986503 S    
C49   O10   1.217794 D    
C49   H20   1.084652 S    
C58   H34   1.108029 S    
C25   C51   1.486951 S    
C47   H16   1.111893 S    
C31   C57   1.521855 S    
C44   C45   1.394699 A    
C3    C14   1.476235 S    
C20   C24   1.428653 A    
C50   H21   1.084906 S    
O3    C2    1.298373 A    
C40   C60   1.502389 S    
C48   H19   1.086637 S    
C42   C44   1.384728 A    
C10   C11   1.615654 S    
C37   C38   1.420885 A    
O1    C1    1.307787 A    
C60   H41   1.111737 S    
C21   C27   1.430166 A    
C19   C23   1.423936 A    
C21   C22   1.428787 A    
C52   O13   1.221250 D    
C15   C16   1.400084 A    
Cu2   O8    1.986504 S    
C15   C52   1.482893 S    
C54   H25   1.107862 S    
C55   O15   1.221089 D    
C17   C18   1.411136 A    
C56   O16   1.222277 D    
C58   H35   1.107242 S    
C39   C55   1.493464 S    
C28   H11   1.080604 S    
C24   C25   1.415044 A    
O8    C4    1.297240 A    
C11   C49   1.537024 S    
C8    C12   1.555116 S    
C51   O12   1.219830 D    
C8    C63   1.556640 S    
C62   H43   1.104115 S    
C8    H5    1.101433 S    
C26   C27   1.419426 A    
Cu1   N2    2.032874 S    
C61   O17   1.221970 D    
C12   H6    1.116995 S    
C28   C29   1.392081 A    
C63   H46   1.107875 S    
C31   C35   1.404743 A    
C29   H8    1.080955 S    
C5    H2    1.108024 S    
C30   H7    1.079317 S    
O1    Cu1   1.922011 S    
C14   C30   1.400934 A    
O2    Cu2   1.908457 S    
O6    C3    1.310372 A    
O4    Cu2   1.985716 S    
C59   H37   1.105783 S    
C10   C12   1.583128 S    
C36   C40   1.421743 A    
C41   C42   1.389296 A    
C7    C9    1.602047 S    
O2    C1    1.306520 A    
C17   H10   1.080610 S    
C32   C58   1.502391 S    
C34   C35   1.403759 A    
C22   C23   1.418421 A    
C57   H31   1.110167 S    
C2    C9    1.491139 S    
C22   C53   1.492893 S    
C55   H28   1.085284 S    
C6    H4    1.093760 S    
C4    C10   1.500084 S    
C46   H12   1.078020 S    
C27   C30   1.410428 A    
C60   H40   1.107742 S    
C16   H9    1.084392 S    
C59   H38   1.110773 S    
C40   C41   1.389418 A    
Cu2   O6    1.922011 S    
C42   C43   1.404954 A    
C56   H29   1.069887 S    
C62   H44   1.112080 S    
C8    C9    1.585779 S    
C61   H42   1.082620 S    
C11   C62   1.570545 S    
N1    C33   1.368839 A    
C63   H47   1.106817 S    
C57   H32   1.109746 S    
