data_mof_unit_12162.cif
_audit_creation_date              2012-10-26T19:40:43-0400
_audit_creation_method            fapswitch 2.2
_symmetry_space_group_name_H-M    P1
_symmetry_Int_Tables_number       1
_space_group_crystal_system       triclinic
_cell_length_a                    9.677997
_cell_length_b                    10.936714
_cell_length_c                    13.425023
_cell_angle_alpha                 89.959769
_cell_angle_beta                  71.917072
_cell_angle_gamma                 89.959735
_cell_volume                      1350.79298523

loop_
_atom_site_label
_atom_site_type_symbol
_atom_type_description
_atom_site_fract_x
_atom_site_fract_y
_atom_site_fract_z
_atom_type_partial_charge
C1    C     C_R   0.499171 0.734657 0.501649 0.525964
C2    C     C_R   0.371606 0.507669 0.816568 -0.001556
C3    C     C_2   0.610940 0.066881 0.505315 -0.153895
C4    C     C_R   0.421374 0.504288 0.700652 0.562989
C5    C     C_2   0.500334 0.133354 0.494102 -0.100071
C6    C     C_2   0.612752 0.932900 0.501588 -0.165462
C7    C     C_2   0.494447 0.866560 0.506639 -0.118309
C8    C     C_2   0.052447 0.571785 0.559242 0.003861
C9    C     C_2   0.898850 0.576701 0.554509 -0.018969
C10   C     C_R   0.500445 0.265312 0.498866 0.575511
C11   C     C_R   0.578954 0.504448 0.299287 0.580646
C12   C     C_R   0.431181 0.519565 0.981100 0.039684
C13   C     C_R   0.773611 0.626125 0.026232 -0.122208
C14   C     C_R   0.625681 0.524968 0.184616 0.020967
C15   C     C_R   0.233711 0.460549 0.872058 0.370061
C16   C     C_R   0.191685 0.450575 0.980507 -0.120926
C17   C     C_R   0.288965 0.478403 0.034679 -0.143150
C18   C     C_3   0.873790 0.622788 0.175813 -0.246622
C19   C     C_3   0.837790 0.741891 0.238682 -0.277917
C20   C     C_3   0.953568 0.771855 0.290367 -0.432369
C21   C     C_R   0.464761 0.548525 0.873139 -0.034920
C22   C     C_R   0.539135 0.538410 0.031635 0.053142
C23   C     C_R   0.666903 0.604065 0.978372 0.000298
C24   C     C_R   0.687547 0.647930 0.877327 -0.113758
C25   C     C_R   0.588056 0.620838 0.825502 -0.110130
C26   C     C_R   0.526806 0.491388 0.131808 0.339367
C27   C     C_R   0.754691 0.589176 0.129393 -0.068270
Cu1   Cu    Cu3+1 0.361370 0.499980 0.499980 1.023318
Cu2   Cu    Cu3+1 0.638630 0.500020 0.500020 0.925105
F1    F     F_    0.425411 0.405404 0.176929 -0.651212
F2    F     F_    0.139231 0.423024 0.821802 -0.615451
H1    H     H_    0.406800 0.092564 0.479398 0.108534
H2    H     H_    0.247568 0.472476 0.118881 0.194186
H3    H     H_    0.083645 0.418300 0.022947 0.146492
H4    H     H_    0.606664 0.661120 0.749010 0.131710
H5    H     H_    0.705321 0.111568 0.516383 0.154550
H6    H     H_    0.958139 0.698956 0.346834 0.171758
H7    H     H_    0.061848 0.780504 0.230201 0.153860
H8    H     H_    0.926804 0.859869 0.333162 0.141185
H9    H     H_    0.831775 0.818164 0.185378 0.161838
H10   H     H_    0.730624 0.734776 0.299914 0.191426
H11   H     H_    0.896571 0.546542 0.222848 0.174689
H12   H     H_    0.714992 0.888090 0.496204 0.142964
H13   H     H_    0.978036 0.636433 0.111953 0.131376
H14   H     H_    0.389222 0.907438 0.516730 0.107692
H15   H     H_    0.080341 0.632755 0.613750 0.143953
H16   H     H_    0.129426 0.448236 0.445426 0.216442
H17   H     H_    0.828245 0.647244 0.599820 0.127598
H18   H     H_    0.910568 0.430928 0.461968 0.208610
H19   H     H_    0.782332 0.702162 0.837379 0.108897
H20   H     H_    0.870975 0.675959 0.983640 0.129493
N1    N     N_2   0.152660 0.501340 0.501130 -0.336958
N2    N     N_2   0.846520 0.501370 0.501160 -0.351289
O1    O     O_R   0.382960 0.678040 0.499980 -0.512538
O2    O     O_R   0.617100 0.678080 0.500020 -0.516431
O3    O     O_R   0.325800 0.499940 0.650950 -0.425419
O4    O     O_R   0.559930 0.499980 0.650990 -0.503020
O5    O     O_R   0.382900 0.321920 0.499980 -0.473495
O6    O     O_R   0.617040 0.321960 0.500020 -0.494406
O7    O     O_R   0.440070 0.500020 0.349010 -0.439810
O8    O     O_R   0.674200 0.500060 0.349050 -0.519604

loop_
_geom_bond_atom_site_label_1
_geom_bond_atom_site_label_2
_ccdc_geom_bond_type
C4    O4    A    
C12   C17   A    
C2    C4    S    
C23   C24   A    
C8    C9    S    
C15   F2    S    
C6    C7    D    
C2    C15   A    
Cu1   O5    S    
C14   C27   A    
C20   H7    S    
C8    N1    D    
C19   C20   S    
C1    O1    A    
C3    C6    S    
C5    H1    S    
C2    C21   A    
C18   H11   S    
C10   O6    A    
C1    O2    A    
C3    C5    D    
C19   H10   S    
C5    C10   S    
C1    C7    S    
C11   O7    A    
C4    O3    A    
C20   H6    S    
Cu1   N1    S    
H16   N1    S    
C17   H2    S    
C3    H5    S    
C25   H4    S    
H18   N2    S    
C7    H14   S    
Cu1   Cu2   S    
C10   O5    A    
Cu2   O4    S    
C26   F1    S    
C18   H13   S    
C6    H12   S    
Cu1   O7    S    
C11   O8    A    
C24   H19   S    
C11   C14   S    
Cu2   O8    S    
C9    N2    D    
C19   H9    S    
C18   C27   S    
C15   C16   A    
C12   C22   A    
C24   C25   A    
C13   C23   A    
C9    H17   S    
C18   C19   S    
C22   C26   A    
C20   H8    S    
C21   C25   A    
C22   C23   A    
C13   C27   A    
Cu1   O1    S    
Cu2   O2    S    
C8    H15   S    
C16   H3    S    
C13   H20   S    
C12   C21   A    
C14   C26   A    
Cu1   O3    S    
Cu2   O6    S    
C16   C17   A    
Cu2   N2    S    
