data_mof_unit_41364.cif
_audit_creation_date              2012-12-10T17:42:38-0500
_audit_creation_method            fapswitch 2.2
_symmetry_space_group_name_H-M    P1
_symmetry_Int_Tables_number       1
_space_group_crystal_system       triclinic
_cell_length_a                    9.957947
_cell_length_b                    10.637617
_cell_length_c                    13.183039
_cell_angle_alpha                 93.709514
_cell_angle_beta                  70.619699
_cell_angle_gamma                 90.996021
_cell_volume                      1314.56339302

loop_
_atom_site_label
_atom_site_type_symbol
_atom_type_description
_atom_site_fract_x
_atom_site_fract_y
_atom_site_fract_z
_atom_type_partial_charge
C1    C     C_R   0.501663 0.739048 0.498091 0.840901
C2    C     C_R   0.425807 0.505577 0.986607 0.081802
C3    C     C_R   0.447328 0.549496 0.883952 0.105052
C4    C     C_R   0.529941 0.534004 0.036641 0.032941
C5    C     C_R   0.630937 0.630208 0.996120 0.140887
C6    C     C_R   0.633230 0.688677 0.904457 -0.240622
C7    C     C_R   0.543869 0.647565 0.847901 -0.208765
C8    C     C_R   0.540753 0.469308 0.123689 0.051402
C9    C     C_R   0.720824 0.616724 0.143839 -0.255136
C10   C     C_R   0.367393 0.497685 0.821489 -0.118409
C11   C     C_R   0.466241 0.852390 0.314588 -0.165373
C12   C     C_R   0.420376 0.502269 0.704034 0.836202
C13   C     C_R   0.445231 0.910209 0.229151 -0.134844
C14   C     C_R   0.441656 0.040916 0.230164 -0.139771
C15   C     C_R   0.459794 0.114080 0.316404 -0.186312
C16   C     C_R   0.480058 0.056954 0.404045 0.089076
C17   C     C_R   0.483201 0.925254 0.403201 0.098304
C18   C     C_R   0.506167 0.870658 0.490693 -0.086691
C19   C     C_R   0.528821 0.942157 0.575422 -0.207575
C20   C     C_R   0.527110 0.070740 0.575811 -0.187497
C21   C     C_R   0.500950 0.127367 0.491965 -0.105900
C22   C     C_R   0.818348 0.695412 0.615989 -0.156798
C23   C     C_R   0.500079 0.260450 0.497671 0.868648
C24   C     C_R   0.871280 0.796588 0.664412 0.123999
C25   C     C_R   0.004746 0.785324 0.675469 -0.231383
C26   C     C_R   0.088673 0.680114 0.629362 -0.172220
C27   C     C_R   0.047468 0.590138 0.562592 0.166565
C28   C     C_R   0.905121 0.593479 0.559560 0.136622
C29   C     C_R   0.952519 0.411430 0.441718 -0.106902
C30   C     C_R   0.095789 0.412289 0.440819 -0.114711
C31   C     C_R   0.578779 0.498797 0.296534 0.858135
C32   C     C_R   0.727603 0.668589 0.048508 -0.201167
C33   C     C_R   0.624228 0.520223 0.182868 -0.046047
C34   C     C_R   0.245036 0.427503 0.870366 -0.189035
C35   C     C_R   0.206853 0.405007 0.979029 -0.147694
C36   C     C_R   0.296969 0.442369 0.036721 -0.210768
H1    H     H_    0.784773 0.656750 0.190126 0.171001
H2    H     H_    0.470405 0.750842 0.309820 0.155141
H3    H     H_    0.432564 0.853427 0.161750 0.145511
H4    H     H_    0.425745 0.085492 0.163559 0.137959
H5    H     H_    0.459346 0.215079 0.313566 0.152678
H6    H     H_    0.543509 0.126450 0.642564 0.154406
H7    H     H_    0.918851 0.339077 0.393932 0.145438
H8    H     H_    0.709360 0.698967 0.625231 0.189562
H9    H     H_    0.044482 0.858200 0.719210 0.144985
H10   H     H_    0.185814 0.672233 0.646299 0.204547
H11   H     H_    0.706509 0.764718 0.876423 0.148727
H12   H     H_    0.169146 0.340646 0.392218 0.137813
H13   H     H_    0.802861 0.743565 0.018975 0.147104
H14   H     H_    0.180086 0.388939 0.824351 0.161026
H15   H     H_    0.260748 0.426552 0.121267 0.140200
H16   H     H_    0.543848 0.696955 0.779175 0.121683
H17   H     H_    0.543951 0.897945 0.642557 0.137467
N1    N     N_R   0.856860 0.501200 0.500990 -0.113013
N2    N     N_R   0.142450 0.501280 0.501020 -0.115717
O1    O     O_R   0.385310 0.683220 0.500000 -0.631631
O2    O     O_R   0.614640 0.683250 0.500010 -0.632572
O3    O     O_R   0.328400 0.499950 0.653610 -0.630256
O4    O     O_R   0.557730 0.499970 0.653620 -0.608996
O5    O     O_R   0.385360 0.316750 0.499990 -0.616461
O6    O     O_R   0.614690 0.316780 0.500000 -0.605765
O7    O     O_R   0.442270 0.500030 0.346380 -0.618795
O8    O     O_R   0.671600 0.500050 0.346390 -0.612117
Zn1   Zn    Zn3+2 0.346880 0.499980 0.499990 0.927651
Zn2   Zn    Zn3+2 0.653120 0.500020 0.500010 0.941598
N3    N     N_3   0.790158 0.911309 0.698886 -0.454890
H18   H     H_    0.690965 0.891599 0.754323 0.153633
H19   H     H_    0.840651 0.974471 0.738461 0.184463
N4    N     N_3   0.485464 0.344640 0.145668 -0.497277
H20   H     H_    0.482417 0.294902 0.075464 0.191275
H21   H     H_    0.385062 0.349134 0.204730 0.179811
H22   H     H_    0.109460 0.355125 0.017878 0.146899

loop_
_geom_bond_atom_site_label_1
_geom_bond_atom_site_label_2
_ccdc_geom_bond_type
C7    H16   S    
C11   H2    S    
N3    H19   S    
O1    Zn1   S    
C16   C21   A    
C1    O2    A    
C31   O8    A    
C30   N2    A    
C27   N2    A    
C20   H6    S    
C19   C20   A    
C9    C32   A    
C24   N3    S    
C4    C8    A    
C5    C32   A    
C12   O3    A    
N2    Zn1   S    
C19   H17   S    
O8    Zn2   S    
N3    H18   S    
C1    C18   S    
C22   H8    S    
C10   C34   A    
C3    C10   A    
C22   C28   A    
C13   C14   A    
C29   H7    S    
C9    C33   A    
C11   C13   A    
C31   O7    A    
C26   C27   A    
C29   C30   A    
C36   H15   S    
C10   C12   S    
C5    C6    A    
C2    C4    A    
C30   H12   S    
C1    O1    A    
C35   H22   S    
C17   C18   A    
C6    C7    A    
C3    C7    A    
N4    H20   S    
C21   C23   S    
O3    Zn1   S    
C23   O5    A    
N1    Zn2   S    
C22   C24   A    
C32   H13   S    
C34   H14   S    
C13   H3    S    
C31   C33   S    
C26   H10   S    
C25   H9    S    
C14   H4    S    
C15   C16   A    
C20   C21   A    
O6    Zn2   S    
C23   O6    A    
C18   C19   A    
C24   C25   A    
C15   H5    S    
O7    Zn1   S    
C34   C35   A    
C6    H11   S    
C29   N1    A    
C2    C36   A    
C27   C28   A    
N4    H21   S    
C28   N1    A    
C14   C15   A    
C4    C5    A    
C2    C3    A    
C8    N4    S    
C25   C26   A    
O4    Zn2   S    
C12   O4    A    
C11   C17   A    
C35   C36   A    
C16   C17   A    
O2    Zn2   S    
C8    C33   A    
O5    Zn1   S    
C9    H1    S    
