data_mof_unit_54508.cif
_audit_creation_date              2012-12-10T18:31:58-0500
_audit_creation_method            fapswitch 2.2
_symmetry_space_group_name_H-M    P1
_symmetry_Int_Tables_number       1
_space_group_crystal_system       triclinic
_cell_length_a                    10.635826
_cell_length_b                    14.987676
_cell_length_c                    15.429993
_cell_angle_alpha                 82.10682
_cell_angle_beta                  89.496127
_cell_angle_gamma                 104.378459
_cell_volume                      2357.66128454

loop_
_atom_site_label
_atom_site_type_symbol
_atom_type_description
_atom_site_fract_x
_atom_site_fract_y
_atom_site_fract_z
_atom_type_partial_charge
C1    C     C_R   0.481958 0.441678 0.662148 0.890224
C2    C     C_R   0.538401 0.452051 0.896722 0.025964
C3    C     C_R   0.575200 0.367802 0.923305 0.107635
C4    C     C_R   0.742073 0.500651 0.500257 0.822827
C5    C     C_R   0.563683 0.522720 0.950888 0.089329
C6    C     C_R   0.585640 0.499325 0.039779 0.084760
C7    C     C_R   0.614231 0.412969 0.067511 -0.240341
C8    C     C_R   0.614072 0.350023 0.009215 -0.218161
C9    C     C_R   0.575538 0.616999 0.917559 -0.235997
C10   C     C_R   0.585990 0.683590 0.973279 -0.244569
C11   C     C_R   0.580064 0.657207 0.064293 0.153677
C12   C     C_3   0.121124 0.500021 0.500295 0.179100
C13   C     C_R   0.578747 0.563620 0.097571 0.050059
C14   C     C_R   0.572842 0.720977 0.123044 0.209737
C15   C     C_R   0.555458 0.688850 0.213138 -0.204554
C16   C     C_R   0.520888 0.558468 0.337729 0.877646
C17   C     C_R   0.559462 0.534220 0.187370 -0.280428
C18   C     C_R   0.687980 0.840839 0.640360 -0.322717
C19   C     C_R   0.658420 0.752398 0.616545 0.006490
C20   C     C_R   0.515331 0.794037 0.510132 -0.067666
C21   C     C_R   0.540710 0.885175 0.531250 -0.002259
C22   C     C_R   0.629448 0.907649 0.597859 0.183726
C23   C     C_3   0.067917 0.485431 0.408885 -0.407605
C24   C     C_R   0.481719 0.953907 0.488984 0.081133
C25   C     C_R   0.514098 0.044975 0.513692 0.082323
C26   C     C_R   0.602854 0.063916 0.580581 -0.241530
C27   C     C_R   0.659046 0.996350 0.621700 -0.213639
C28   C     C_R   0.257838 0.499592 0.500110 0.823477
C29   C     C_R   0.391378 0.934532 0.423085 -0.243083
C30   C     C_R   0.334997 0.002022 0.382075 -0.212145
C31   C     C_R   0.366357 0.091192 0.404799 0.180727
C32   C     C_R   0.456245 0.114009 0.470689 -0.002853
C33   C     C_R   0.308268 0.158085 0.361976 -0.318598
C34   C     C_3   0.104065 0.595040 0.522107 -0.380524
C35   C     C_R   0.339752 0.247068 0.384524 0.013391
C36   C     C_R   0.484137 0.205847 0.490179 -0.065190
C37   C     C_3   0.899152 0.422038 0.570598 -0.402035
C38   C     C_3   0.043303 0.421177 0.570292 -0.399461
C39   C     C_3   0.923885 0.486460 0.408937 -0.393928
C40   C     C_3   0.961496 0.595743 0.522286 -0.396941
C41   C     C_3   0.878855 0.501422 0.500575 0.182515
C42   C     C_3   0.614058 0.215020 0.886428 -0.942691
C43   C     C_3   0.374811 0.518590 0.804961 -0.892209
C44   C     C_3   0.579348 0.821913 0.091441 -0.958170
C45   C     C_R   0.491116 0.406822 0.754217 -0.122309
C46   C     C_R   0.545006 0.595080 0.244725 -0.113423
C47   C     C_R   0.572503 0.304196 0.862958 0.209053
C48   C     C_R   0.536840 0.327250 0.777330 -0.261635
C49   C     C_R   0.475774 0.462237 0.817354 0.127773
H1    H     H_    0.840060 0.353343 0.556949 0.176278
H2    H     H_    0.580131 0.640389 0.847911 0.168103
H3    H     H_    0.726533 0.013831 0.672694 0.142695
H4    H     H_    0.551124 0.230621 0.538493 0.122681
H5    H     H_    0.295668 0.299668 0.352145 0.132343
H6    H     H_    0.266191 0.984170 0.331902 0.143189
H7    H     H_    0.755649 0.856826 0.691519 0.143002
H8    H     H_    0.702363 0.699738 0.648976 0.131296
H9    H     H_    0.450088 0.769740 0.460742 0.123593
H10   H     H_    0.631269 0.130402 0.603428 0.132423
H11   H     H_    0.239317 0.141702 0.311622 0.144094
H12   H     H_    0.159476 0.653291 0.472828 0.172484
H13   H     H_    0.053241 0.352293 0.556228 0.181986
H14   H     H_    0.078293 0.417782 0.391676 0.177307
H15   H     H_    0.948359 0.654059 0.473024 0.180526
H16   H     H_    0.142027 0.607516 0.587627 0.181063
H17   H     H_    0.909708 0.543063 0.358137 0.158093
H18   H     H_    0.642045 0.286677 0.032895 0.162562
H19   H     H_    0.606983 0.174880 0.830467 0.241141
H20   H     H_    0.716602 0.230951 0.905893 0.239566
H21   H     H_    0.550565 0.170256 0.941332 0.243994
H22   H     H_    0.338400 0.531102 0.868703 0.245632
H23   H     H_    0.124013 0.541499 0.358019 0.156794
H24   H     H_    0.414143 0.586323 0.762945 0.253892
H25   H     H_    0.288929 0.479253 0.773591 0.224356
H26   H     H_    0.573163 0.861234 0.146676 0.244349
H27   H     H_    0.672810 0.855300 0.054195 0.243433
H28   H     H_    0.497250 0.827225 0.048760 0.243765
H29   H     H_    0.081574 0.430793 0.636225 0.155304
H30   H     H_    0.361138 0.867571 0.401357 0.133570
H31   H     H_    0.865384 0.419338 0.391377 0.182203
H32   H     H_    0.930818 0.608244 0.587845 0.174292
H33   H     H_    0.548137 0.461978 0.213431 0.170261
H34   H     H_    0.546662 0.736392 0.258469 0.158046
H35   H     H_    0.592879 0.754677 0.944301 0.164289
H36   H     H_    0.546811 0.283984 0.728157 0.164754
H37   H     H_    0.867044 0.432042 0.636677 0.157988
H38   H     H_    0.644750 0.394910 0.132752 0.147351
N1    N     N_R   0.573860 0.731700 0.552730 -0.099032
N2    N     N_R   0.426060 0.268290 0.447230 -0.099966
O1    O     O_R   0.462770 0.383110 0.605620 -0.618747
O2    O     O_R   0.510160 0.531900 0.639510 -0.608453
O3    O     O_R   0.661510 0.425600 0.483070 -0.628635
O4    O     O_R   0.708900 0.574390 0.516960 -0.626654
O5    O     O_R   0.489840 0.468100 0.360490 -0.618844
O6    O     O_R   0.537230 0.616890 0.394380 -0.616898
O7    O     O_R   0.291100 0.425610 0.483040 -0.622883
O8    O     O_R   0.338490 0.574400 0.516930 -0.629051
Zn1   Zn    Zn3+2 0.468350 0.400660 0.477370 0.927511
Zn2   Zn    Zn3+2 0.531650 0.599340 0.522630 0.926049

loop_
_geom_bond_atom_site_label_1
_geom_bond_atom_site_label_2
_ccdc_geom_bond_type
C36   N2    A    
C43   H24   S    
C1    O1    A    
C9    H2    S    
O3    Zn1   S    
C7    C8    A    
C39   C41   S    
C19   H8    S    
C12   C23   S    
C26   C27   A    
C37   C38   S    
C12   C28   S    
C37   C41   S    
C34   C40   S    
C32   C36   A    
C44   H28   S    
C18   C19   A    
C5    C6    A    
C11   C14   A    
O6    Zn2   S    
C4    C41   S    
O5    Zn1   S    
C42   H21   S    
C17   H33   S    
C10   H35   S    
C44   H27   S    
C24   C29   A    
C36   H4    S    
C7    H38   S    
C47   C48   A    
O7    Zn1   S    
C31   C33   A    
C26   H10   S    
O4    Zn2   S    
C18   H7    S    
C25   C32   A    
C23   H14   S    
C1    O2    A    
C21   C22   A    
C35   H5    S    
C42   H19   S    
C40   H32   S    
C34   H16   S    
O8    Zn2   S    
C37   H37   S    
C17   C46   A    
C19   N1    A    
C16   C46   S    
C43   C49   S    
C15   H34   S    
C38   H29   S    
C25   C26   A    
C34   H12   S    
C38   H13   S    
C44   H26   S    
C5    C9    A    
C29   C30   A    
C2    C49   A    
C31   C32   A    
C29   H30   S    
C45   C49   A    
C24   C25   A    
C35   N2    A    
C40   C41   S    
C3    C8    A    
C33   H11   S    
C22   C27   A    
C39   H17   S    
C2    C5    A    
C20   H9    S    
C27   H3    S    
C14   C44   S    
C9    C10   A    
C45   C48   A    
C16   O6    A    
C43   H22   S    
C18   C22   A    
C23   H23   S    
C48   H36   S    
C6    C7    A    
C30   H6    S    
C16   O5    A    
C40   H15   S    
C28   O8    A    
C13   C17   A    
N2    Zn1   S    
C28   O7    A    
C39   H31   S    
C2    C3    A    
C6    C13   A    
C37   H1    S    
C11   C13   A    
C1    C45   S    
C30   C31   A    
C43   H25   S    
C23   C39   S    
C20   N1    A    
C3    C47   A    
C33   C35   A    
C42   C47   S    
C42   H20   S    
C12   C38   S    
N1    Zn2   S    
C10   C11   A    
C4    O4    A    
C20   C21   A    
C8    H18   S    
C21   C24   A    
C14   C15   A    
C15   C46   A    
O2    Zn2   S    
C12   C34   S    
O1    Zn1   S    
C4    O3    A    
