data_mof_unit_35313.cif
_audit_creation_date              2012-12-10T16:54:57-0500
_audit_creation_method            fapswitch 2.2
_symmetry_space_group_name_H-M    P1
_symmetry_Int_Tables_number       1
_space_group_crystal_system       triclinic
_cell_length_a                    7.770406
_cell_length_b                    8.578668
_cell_length_c                    15.720746
_cell_angle_alpha                 90.824653
_cell_angle_beta                  85.910756
_cell_angle_gamma                 93.627215
_cell_volume                      1043.12758251

loop_
_atom_site_label
_atom_site_type_symbol
_atom_type_description
_atom_site_fract_x
_atom_site_fract_y
_atom_site_fract_z
_atom_type_partial_charge
C1    C     C_R   0.545769 0.794728 0.497807 0.960653
C2    C     C_3   0.358627 0.612577 0.053034 -0.035168
C3    C     C_3   0.493399 0.501547 0.082828 0.358504
C4    C     C_3   0.455442 0.333143 0.048985 -0.405158
C5    C     C_3   0.455368 0.333900 0.950879 -0.406503
C6    C     C_1   0.491941 0.501169 0.174392 -0.088512
C7    C     C_1   0.506237 0.500382 0.825712 -0.116658
C8    C     C_1   0.506361 0.500008 0.750348 -0.184900
C9    C     C_2   0.569860 0.958199 0.496549 -0.381736
C10   C     C_2   0.430138 0.041800 0.503421 -0.381369
C11   C     C_R   0.502104 0.500046 0.661596 0.904822
C12   C     C_R   0.454230 0.205273 0.502181 0.960252
C13   C     C_R   0.497872 0.499975 0.338409 0.903252
C14   C     C_3   0.363389 0.610703 0.954108 -0.445028
C15   C     C_3   0.680627 0.559611 0.947002 -0.406577
C16   C     C_3   0.675458 0.560718 0.045328 -0.463776
C17   C     C_1   0.493322 0.500676 0.249687 -0.175899
C18   C     C_3   0.501860 0.501172 0.917277 0.356028
H1    H     H_    0.396790 0.733568 0.074425 0.137512
H2    H     H_    0.234898 0.571847 0.931475 0.167284
H3    H     H_    0.556115 0.256318 0.068008 0.165006
H4    H     H_    0.701835 0.009225 0.489992 0.180694
H5    H     H_    0.298163 0.990774 0.509976 0.180713
H6    H     H_    0.013420 0.382001 0.436586 0.193313
H7    H     H_    0.986581 0.618004 0.563411 0.191292
H8    H     H_    0.394468 0.731450 0.930164 0.153689
H9    H     H_    0.781826 0.482322 0.920800 0.171827
H10   H     H_    0.716569 0.679525 0.922928 0.167266
H11   H     H_    0.708122 0.681341 0.068727 0.165634
H12   H     H_    0.775358 0.485090 0.066417 0.178567
H13   H     H_    0.325456 0.291426 0.931430 0.164821
H14   H     H_    0.550307 0.252042 0.923035 0.167610
H15   H     H_    0.329366 0.282231 0.077141 0.168338
N1    N     N_2   0.950340 0.457950 0.477370 -0.172123
N2    N     N_2   0.049660 0.542050 0.522630 -0.173376
O1    O     O_R   0.389240 0.738570 0.505550 -0.612939
O2    O     O_R   0.678400 0.711630 0.491050 -0.630771
O3    O     O_R   0.355360 0.513470 0.630110 -0.613931
O4    O     O_R   0.644510 0.486530 0.615610 -0.622603
O5    O     O_R   0.321600 0.288370 0.508950 -0.631510
O6    O     O_R   0.610760 0.261430 0.494450 -0.613218
O7    O     O_R   0.355490 0.513470 0.384390 -0.617493
O8    O     O_R   0.644640 0.486530 0.369890 -0.612941
Zn1   Zn    Zn3+2 0.306930 0.517990 0.509680 0.944771
Zn2   Zn    Zn3+2 0.693070 0.482010 0.490320 0.944460
N3    N     N_3   0.184038 0.571492 0.091453 -0.460430
H16   H     H_    0.132927 0.469119 0.063395 0.187457
H17   H     H_    0.104198 0.660276 0.077861 0.178854

loop_
_geom_bond_atom_site_label_1
_geom_bond_atom_site_label_2
_ccdc_geom_bond_type
C12   O5    A    
C11   O3    A    
O3    Zn1   S    
C12   O6    A    
C4    H3    S    
C7    C18   S    
C13   C17   S    
C10   H5    S    
C15   C18   S    
C9    C10   D    
C14   C18   S    
C15   H9    S    
C1    O2    A    
O4    Zn2   S    
C5    H14   S    
C3    C6    S    
C13   O8    A    
C2    C3    S    
C16   H11   S    
C7    C8    T    
N1    Zn2   S    
C14   H8    S    
C11   O4    A    
N2    Zn1   S    
O8    Zn2   S    
C15   H10   S    
O7    Zn1   S    
H7    N2    S    
C8    C11   S    
C10   C12   S    
C13   O7    A    
C2    N3    S    
C2    C14   S    
N3    H17   S    
C9    H4    S    
O1    Zn1   S    
C16   H12   S    
C3    C4    S    
C14   H2    S    
O5    Zn1   S    
C1    C9    S    
N1    N2    D    
C6    C17   T    
O6    Zn2   S    
C4    H15   S    
C5    C18   S    
C2    H1    S    
N3    H16   S    
O2    Zn2   S    
H6    N1    S    
C3    C16   S    
C15   C16   S    
C1    O1    A    
C4    C5    S    
C5    H13   S    
