data_mof_unit_62038.cif
_audit_creation_date              2012-10-26T18:12:30-0400
_audit_creation_method            fapswitch 2.2
_symmetry_space_group_name_H-M    P1
_symmetry_Int_Tables_number       1
_space_group_crystal_system       triclinic
_cell_length_a                    36.524327
_cell_length_b                    29.391616
_cell_length_c                    21.659455
_cell_angle_alpha                 89.579602
_cell_angle_beta                  126.518481
_cell_angle_gamma                 90.270178
_cell_volume                      18686.0071932

loop_
_atom_site_label
_atom_site_type_symbol
_atom_type_description
_atom_site_fract_x
_atom_site_fract_y
_atom_site_fract_z
_atom_type_partial_charge
C1    C     C_R   0.914451 0.999991 0.914509 0.546148
C2    C     C_1   0.229338 0.000023 0.229059 -0.002886
C3    C     C_3   0.449739 0.524898 0.230437 0.036388
C4    C     C_1   0.863320 0.999974 0.863446 -0.052794
C5    C     C_1   0.136680 0.000024 0.136510 -0.051474
C6    C     C_1   0.363319 0.499979 0.863476 -0.051824
C7    C     C_1   0.636680 0.500025 0.136571 -0.050018
C8    C     C_3   0.913753 0.960504 0.598158 -0.187884
C9    C     C_3   0.874867 0.937814 0.596413 -0.294038
C10   C     C_3   0.833258 0.929255 0.514040 -0.452651
C11   C     C_3   0.090653 0.032118 0.403045 -0.193034
C12   C     C_3   0.104002 0.066977 0.466880 -0.229486
C13   C     C_1   0.270661 0.499983 0.770915 -0.003501
C14   C     C_3   0.144100 0.050426 0.546249 -0.457215
C15   C     C_3   0.054153 0.930591 0.356461 -0.208465
C16   C     C_3   0.057844 0.878584 0.349393 -0.266881
C17   C     C_3   0.107485 0.863027 0.399265 -0.474279
C18   C     C_3   0.939096 0.066305 0.638173 -0.207918
C19   C     C_3   0.930535 0.117570 0.641280 -0.268006
C20   C     C_3   0.879664 0.128470 0.589849 -0.474185
C21   C     C_3   0.423279 0.444100 0.609283 -0.202480
C22   C     C_3   0.423476 0.406608 0.559837 -0.234692
C23   C     C_3   0.381263 0.408713 0.476290 -0.447546
C24   C     C_1   0.729339 0.500023 0.229148 -0.002024
C25   C     C_3   0.590538 0.532479 0.403056 -0.192173
C26   C     C_3   0.603522 0.567252 0.466828 -0.228768
C27   C     C_3   0.643254 0.550614 0.546453 -0.459603
C28   C     C_3   0.554360 0.430767 0.356701 -0.208339
C29   C     C_3   0.558178 0.378763 0.349816 -0.266611
C30   C     C_3   0.607856 0.363326 0.399749 -0.473735
C31   C     C_3   0.423377 0.551872 0.624807 -0.204481
C32   C     C_3   0.402623 0.599157 0.618606 -0.266453
C33   C     C_3   0.350616 0.597339 0.566890 -0.475174
C34   C     C_3   0.069649 0.937944 0.752105 -0.180226
C35   C     C_1   0.728257 0.999976 0.728500 -0.002290
C36   C     C_3   0.093060 0.900856 0.815406 -0.298723
C37   C     C_3   0.120483 0.868152 0.803017 -0.450968
C38   C     C_3   0.932506 0.074728 0.231422 -0.215372
C39   C     C_3   0.928927 0.085958 0.296421 -0.262180
C40   C     C_3   0.906874 0.132367 0.284469 -0.461264
C41   C     C_3   0.907701 0.991636 0.200552 -0.221321
C42   C     C_3   0.859022 0.008087 0.135184 -0.345613
C43   C     C_3   0.824995 0.968706 0.101542 -0.442693
C44   C     C_3   0.089961 0.018742 0.799828 -0.223324
C45   C     C_3   0.139097 0.004247 0.866945 -0.338130
C46   C     C_1   0.271744 0.000019 0.271457 -0.001658
C47   C     C_3   0.171816 0.044610 0.895706 -0.444235
C48   C     C_3   0.581487 0.454067 0.771339 -0.194205
C49   C     C_3   0.628925 0.460209 0.789275 -0.325647
C50   C     C_3   0.652741 0.414400 0.804506 -0.456871
C51   C     C_3   0.432345 0.574594 0.231262 -0.215592
C52   C     C_3   0.428780 0.585844 0.296273 -0.261827
C53   C     C_3   0.406661 0.632222 0.284242 -0.460949
C54   C     C_3   0.407748 0.491435 0.200612 -0.221392
C55   C     C_3   0.359027 0.507760 0.135209 -0.345742
C56   C     C_3   0.325101 0.468291 0.101694 -0.443003
C57   C     C_1   0.228256 0.499988 0.728522 -0.002080
C58   C     C_3   0.583775 0.541478 0.797624 -0.186607
C59   C     C_3   0.598413 0.564221 0.750322 -0.240395
C60   C     C_3   0.618478 0.611507 0.781561 -0.443706
C61   C     C_1   0.771745 0.500018 0.271530 -0.001042
C62   C     C_1   0.677999 0.999984 0.678236 -0.036344
C63   C     C_1   0.322001 0.000012 0.321740 -0.035929
C64   C     C_1   0.177998 0.499993 0.678248 -0.036200
C65   C     C_R   0.085549 0.000009 0.085468 0.546819
C66   C     C_1   0.822003 0.500011 0.321782 -0.035550
C67   C     C_1   0.635592 0.999991 0.635786 -0.035884
C68   C     C_1   0.364408 0.000006 0.364205 -0.035627
C69   C     C_1   0.135592 0.499996 0.635791 -0.035804
C70   C     C_1   0.864409 0.500006 0.364221 -0.035426
C71   C     C_R   0.999999 0.914448 0.499961 0.594899
C72   C     C_R   0.000031 0.085541 0.501104 0.577514
C73   C     C_R   0.500013 0.414461 0.499159 0.588098
C74   C     C_R   0.500038 0.585539 0.501119 0.570072
C75   C     C_R   0.999981 0.996865 0.621202 0.599064
C76   C     C_R   0.414450 0.499991 0.914536 0.544807
C77   C     C_R   0.999868 0.006026 0.378912 0.598228
C78   C     C_R   0.500027 0.498934 0.621467 0.607003
C79   C     C_R   0.499867 0.506051 0.378920 0.602289
C80   C     C_R   0.499999 0.084470 0.499803 0.539356
C81   C     C_R   0.499998 0.915529 0.500192 0.539097
C82   C     C_R   0.000008 0.584469 0.499816 0.539256
C83   C     C_R   0.999991 0.415529 0.500185 0.539365
C84   C     C_R   0.584450 0.999999 0.584514 0.539474
C85   C     C_R   0.415550 0.000000 0.415485 0.539553
C86   C     C_R   0.084450 0.500000 0.584514 0.539548
C87   C     C_R   0.585549 0.500009 0.085487 0.548054
C88   C     C_R   0.915550 0.500000 0.415487 0.539650
C89   C     C_1   0.000016 0.863326 0.499816 -0.008332
C90   C     C_1   0.000042 0.136663 0.500953 -0.013458
C91   C     C_1   0.500005 0.363337 0.499182 -0.019761
C92   C     C_1   0.500080 0.636658 0.501011 -0.013990
C93   C     C_R   0.999231 0.000165 0.878231 0.548439
C94   C     C_R   0.000848 0.999818 0.121843 0.550918
C95   C     C_R   0.497608 0.500210 0.876777 0.551117
C96   C     C_R   0.500892 0.499819 0.121891 0.550247
C97   C     C_1   0.000043 0.820941 0.499698 -0.020723
C98   C     C_1   0.820917 0.999970 0.821097 -0.044526
C99   C     C_1   0.999997 0.179046 0.500811 -0.021124
C100  C     C_1   0.499987 0.320953 0.499172 -0.023256
C101  C     C_1   0.500059 0.679040 0.500900 -0.019976
C102  C     C_1   0.000059 0.770683 0.499567 0.007509
C103  C     C_1   0.999953 0.229303 0.500711 0.007068
C104  C     C_1   0.499979 0.270694 0.499168 0.007591
C105  C     C_1   0.500026 0.729299 0.500807 0.006623
C106  C     C_1   0.499981 0.228297 0.499189 0.004967
C107  C     C_1   0.500009 0.771696 0.500759 0.003953
C108  C     C_1   0.000057 0.728288 0.499477 0.004804
C109  C     C_1   0.179083 0.000026 0.178848 -0.043318
C110  C     C_1   0.999943 0.271700 0.500676 0.004756
C111  C     C_1   0.499987 0.178027 0.499265 -0.031980
C112  C     C_1   0.500000 0.821967 0.500693 -0.032660
C113  C     C_1   0.000042 0.678021 0.499424 -0.032382
C114  C     C_1   0.999954 0.321970 0.500637 -0.032070
C115  C     C_1   0.499992 0.135627 0.499415 -0.034007
C116  C     C_1   0.499998 0.864369 0.500563 -0.034542
C117  C     C_1   0.000026 0.635623 0.499484 -0.034386
C118  C     C_1   0.999971 0.364371 0.500532 -0.034104
C119  C     C_3   0.956556 0.973769 0.744663 -0.189105
C120  C     C_1   0.320916 0.499979 0.821128 -0.043917
C121  C     C_3   0.044022 0.024905 0.256105 -0.195021
C122  C     C_3   0.998795 0.951648 0.215747 -0.206596
C123  C     C_3   0.996822 0.049250 0.780948 -0.203858
C124  C     C_3   0.462981 0.465038 0.750394 -0.190511
C125  C     C_3   0.544019 0.525005 0.256138 -0.195074
C126  C     C_3   0.498943 0.451659 0.215922 -0.206519
C127  C     C_3   0.483586 0.547842 0.769293 -0.198340
C128  C     C_3   0.961376 0.962295 0.679820 0.158332
C129  C     C_3   0.041217 0.036827 0.323257 0.169131
C130  C     C_3   0.006406 0.952900 0.294623 0.168264
C131  C     C_1   0.679084 0.500027 0.178934 -0.042005
C132  C     C_3   0.988800 0.048707 0.701655 0.169166
C133  C     C_3   0.470857 0.455327 0.688587 0.156994
C134  C     C_3   0.541132 0.536978 0.323186 0.168842
C135  C     C_3   0.506551 0.452948 0.294795 0.168345
C136  C     C_3   0.476010 0.546122 0.690575 0.177106
C137  C     C_3   0.042960 0.975068 0.831450 -0.195968
C138  C     C_3   0.957202 0.026681 0.166384 -0.214191
C139  C     C_3   0.546565 0.488080 0.835588 -0.221846
C140  C     C_3   0.457178 0.526593 0.166363 -0.213972
C141  C     C_3   0.999178 0.999891 0.809985 -0.046067
C142  C     C_1   0.770662 0.999971 0.770887 -0.003768
C143  C     C_3   0.000227 0.000413 0.189417 -0.044665
C144  C     C_3   0.497873 0.500482 0.808980 -0.041938
C145  C     C_3   0.500272 0.500421 0.189476 -0.044512
C146  C     C_3   0.000110 0.997259 0.690266 0.073764
C147  C     C_3   0.999323 0.005891 0.309239 0.092368
C148  C     C_3   0.500082 0.499157 0.690465 0.083940
C149  C     C_3   0.499324 0.505927 0.309253 0.091716
C150  C     C_3   0.050578 0.981784 0.767815 0.036775
C151  C     C_3   0.949777 0.024993 0.230469 0.036396
C152  C     C_3   0.553099 0.496354 0.770355 0.042590
Cl1   Cl    Cl    0.977261 0.902779 0.694084 -0.739727
Cl2   Cl    Cl    0.031432 0.097427 0.315089 -0.739207
Cl3   Cl    Cl    0.967347 0.914344 0.294630 -0.696780
Cl4   Cl    Cl    0.024385 0.090716 0.698771 -0.700224
Cl5   Cl    Cl    0.500568 0.401006 0.719735 -0.745190
Cl6   Cl    Cl    0.531200 0.597560 0.314715 -0.739896
Cl7   Cl    Cl    0.467587 0.414299 0.294911 -0.697351
Cl8   Cl    Cl    0.499747 0.596346 0.678474 -0.731663
Cu1   Cu    Cu3+1 1.000000 0.957500 0.000000 0.929241
Cu2   Cu    Cu3+1 0.500030 0.000000 0.562500 0.949393
Cu3   Cu    Cu3+1 0.999970 0.500000 0.437500 0.947812
Cu4   Cu    Cu3+1 0.000030 0.500000 0.562500 0.948472
Cu5   Cu    Cu3+1 1.000000 0.042500 0.000000 0.933405
Cu6   Cu    Cu3+1 0.500000 0.457500 0.000000 0.937572
Cu7   Cu    Cu3+1 0.500000 0.542500 0.000000 0.932499
Cu8   Cu    Cu3+1 0.957500 1.000000 0.457520 0.906253
Cu9   Cu    Cu3+1 0.042500 1.000000 0.542480 0.893134
Cu10  Cu    Cu3+1 0.457500 0.500000 0.457520 0.891445
Cu11  Cu    Cu3+1 0.542500 0.500000 0.542480 0.860147
Cu12  Cu    Cu3+1 0.499970 1.000000 0.437500 0.947481
H1    H     H_    0.951186 0.942232 0.767141 0.184438
H2    H     H_    0.073579 0.002501 0.275810 0.066386
H3    H     H_    0.911974 0.960887 0.176618 0.199903
H4    H     H_    0.905947 0.981115 0.247730 0.221517
H5    H     H_    0.172157 0.058924 0.848437 0.165269
H6    H     H_    0.161530 0.071565 0.918253 0.167459
H7    H     H_    0.206821 0.033242 0.942776 0.148984
H8    H     H_    0.140564 0.990711 0.916251 0.158809
H9    H     H_    0.152329 0.977793 0.848741 0.163292
H10   H     H_    0.091701 0.030780 0.753041 0.218545
H11   H     H_    0.083220 0.048232 0.822691 0.196317
H12   H     H_    0.659552 0.398011 0.856790 0.161899
H13   H     H_    0.025337 0.931075 0.218965 0.124581
H14   H     H_    0.631355 0.391399 0.754660 0.168768
H15   H     H_    0.685778 0.419733 0.813677 0.144113
H16   H     H_    0.624886 0.474794 0.738205 0.172403
H17   H     H_    0.651692 0.481459 0.840751 0.159639
H18   H     H_    0.586746 0.427692 0.812749 0.186146
H19   H     H_    0.561574 0.437078 0.714801 0.212980
H20   H     H_    0.426919 0.659453 0.281655 0.176587
H21   H     H_    0.371407 0.632527 0.230222 0.143271
H22   H     H_    0.405171 0.639378 0.332978 0.154023
H23   H     H_    0.407851 0.559867 0.299552 0.180008
H24   H     H_    0.968786 0.067407 0.776743 0.122356
H25   H     H_    0.463573 0.587411 0.350481 0.204680
H26   H     H_    0.449832 0.602711 0.225104 0.210200
H27   H     H_    0.398690 0.581256 0.176518 0.115029
H28   H     H_    0.334116 0.443113 0.074747 0.165622
H29   H     H_    0.324923 0.451217 0.147445 0.167290
H30   H     H_    0.290338 0.481377 0.057032 0.149630
H31   H     H_    0.347026 0.532688 0.157908 0.160029
H32   H     H_    0.358181 0.523885 0.087858 0.160700
H33   H     H_    0.412099 0.460695 0.176759 0.199924
H34   H     H_    0.406021 0.480911 0.247818 0.221114
H35   H     H_    0.428079 0.477741 0.724859 0.063491
H36   H     H_    0.592756 0.634317 0.776815 0.206641
H37   H     H_    0.648533 0.609106 0.842748 0.141222
H38   H     H_    0.629500 0.626759 0.747982 0.145693
H39   H     H_    0.625502 0.545141 0.754132 0.129243
H40   H     H_    0.570163 0.568330 0.689072 0.256575
H41   H     H_    0.568921 0.568140 0.811932 0.180620
H42   H     H_    0.615999 0.534559 0.855221 0.107388
H43   H     H_    0.573639 0.502664 0.275995 0.066206
H44   H     H_    0.525529 0.431138 0.219191 0.124593
H45   H     H_    0.452075 0.558152 0.762327 0.114710
H46   H     H_    0.039416 0.938692 0.840592 0.175102
H47   H     H_    0.960720 0.062245 0.152554 0.159382
H48   H     H_    0.927246 0.013020 0.110983 0.100314
H49   H     H_    0.050616 0.056029 0.234487 0.192386
H50   H     H_    0.072375 0.987366 0.888389 0.095090
H51   H     H_    0.552542 0.452210 0.855779 0.169620
H52   H     H_    0.460615 0.562162 0.152446 0.159483
H53   H     H_    0.427255 0.512861 0.110994 0.100299
H54   H     H_    0.571998 0.507253 0.888912 0.091465
H55   H     H_    0.820617 0.961784 0.481326 0.147532
H56   H     H_    0.841999 0.905574 0.484874 0.166868
H57   H     H_    0.805655 0.913735 0.514537 0.152874
H58   H     H_    0.886062 0.904788 0.627656 0.224437
H59   H     H_    0.864089 0.960190 0.623963 0.144085
H60   H     H_    0.966114 0.934864 0.170989 0.154741
H61   H     H_    0.900905 0.993432 0.569060 0.110353
H62   H     H_    0.918011 0.940579 0.559302 0.207073
H63   H     H_    0.134617 0.019093 0.562703 0.155607
H64   H     H_    0.173965 0.043227 0.546355 0.143701
H65   H     H_    0.153646 0.077091 0.589507 0.147353
H66   H     H_    0.114210 0.099638 0.454873 0.203021
H67   H     H_    0.074880 0.074120 0.468625 0.223104
H68   H     H_    0.096998 0.998796 0.429871 0.123350
H69   H     H_    0.116974 0.035826 0.392806 0.130128
H70   H     H_    0.126338 0.879228 0.379360 0.152562
H71   H     H_    0.027896 0.068500 0.824740 0.154902
H72   H     H_    0.124137 0.872083 0.460279 0.152946
H73   H     H_    0.108992 0.825530 0.395206 0.152380
H74   H     H_    0.040121 0.859703 0.369208 0.219611
H75   H     H_    0.042095 0.868573 0.289170 0.177866
H76   H     H_    0.080242 0.946155 0.352267 0.102203
H77   H     H_    0.063237 0.935437 0.414706 0.178426
H78   H     H_    0.864219 0.118476 0.529627 0.152923
H79   H     H_    0.862136 0.110110 0.610469 0.152652
H80   H     H_    0.874646 0.165585 0.591192 0.152284
H81   H     H_    0.944989 0.128408 0.700647 0.177395
H82   H     H_    0.464707 0.433036 0.779837 0.199210
H83   H     H_    0.946713 0.138411 0.620540 0.220760
H84   H     H_    0.930438 0.060772 0.580359 0.177030
H85   H     H_    0.914462 0.047983 0.643067 0.108911
H86   H     H_    0.349919 0.405124 0.473190 0.141327
H87   H     H_    0.380121 0.441525 0.449412 0.164915
H88   H     H_    0.382395 0.380573 0.443530 0.156239
H89   H     H_    0.454280 0.409789 0.561808 0.211323
H90   H     H_    0.424185 0.372538 0.583180 0.205298
H91   H     H_    0.398478 0.432570 0.620070 0.131854
H92   H     H_    0.407568 0.473788 0.571809 0.124595
H93   H     H_    0.550578 0.556116 0.234442 0.192337
H94   H     H_    0.633518 0.519257 0.562426 0.156227
H95   H     H_    0.673379 0.543431 0.547297 0.143970
H96   H     H_    0.652509 0.577223 0.589651 0.140483
H97   H     H_    0.613934 0.599930 0.455247 0.201375
H98   H     H_    0.574156 0.574425 0.467882 0.224209
H99   H     H_    0.597101 0.499105 0.429819 0.123344
H100  H     H_    0.616876 0.536530 0.392920 0.130265
H101  H     H_    0.626674 0.379552 0.379797 0.152511
H102  H     H_    0.624482 0.372446 0.460731 0.153513
H103  H     H_    0.609455 0.325830 0.395819 0.152854
H104  H     H_    0.466299 0.434802 0.171208 0.154891
H105  H     H_    0.540499 0.359860 0.369693 0.220227
H106  H     H_    0.542457 0.368692 0.289628 0.178036
H107  H     H_    0.580404 0.446373 0.352436 0.102011
H108  H     H_    0.563459 0.435664 0.414943 0.179298
H109  H     H_    0.337684 0.585060 0.508800 0.151596
H110  H     H_    0.338425 0.574288 0.592030 0.153466
H111  H     H_    0.336749 0.631905 0.561271 0.151773
H112  H     H_    0.414318 0.612085 0.675613 0.177273
H113  H     H_    0.412899 0.624332 0.593009 0.220895
H114  H     H_    0.416063 0.546405 0.567979 0.178468
H115  H     H_    0.509053 0.573949 0.807846 0.160319
H116  H     H_    0.403795 0.527237 0.633259 0.101304
H117  H     H_    0.098038 0.851866 0.745750 0.170998
H118  H     H_    0.148422 0.886604 0.806984 0.142424
H119  H     H_    0.135711 0.841164 0.847905 0.151342
H120  H     H_    0.116250 0.916113 0.873167 0.147719
H121  H     H_    0.067170 0.880471 0.814651 0.216438
H122  H     H_    0.044101 0.921521 0.696656 0.199096
H123  H     H_    0.094098 0.948775 0.740224 0.136337
H124  H     H_    0.927187 0.159575 0.281976 0.176906
H125  H     H_    0.871631 0.132735 0.230424 0.144003
H126  H     H_    0.926084 0.994844 0.723531 0.072289
H127  H     H_    0.905366 0.139506 0.333190 0.151527
H128  H     H_    0.907952 0.060003 0.299624 0.180025
H129  H     H_    0.963715 0.087461 0.350644 0.203631
H130  H     H_    0.950083 0.102807 0.225394 0.210267
H131  H     H_    0.898881 0.081482 0.176672 0.115212
H132  H     H_    0.833950 0.943514 0.074524 0.165200
H133  H     H_    0.824767 0.951622 0.147235 0.168400
H134  H     H_    0.790267 0.981884 0.056911 0.149770
H135  H     H_    0.847081 0.033042 0.157948 0.160403
H136  H     H_    0.858221 0.024224 0.087884 0.160756
O1    O     O_R   0.938020 0.964110 0.938040 -0.485013
O2    O     O_R   0.000010 0.035890 0.091160 -0.502446
O3    O     O_R   0.000010 0.964110 0.091160 -0.506975
O4    O     O_R   0.999990 0.035890 0.908840 -0.507082
O5    O     O_R   0.499990 0.464110 0.908840 -0.500484
O6    O     O_R   0.500010 0.535890 0.091160 -0.502740
O7    O     O_R   0.500010 0.464110 0.091160 -0.507280
O8    O     O_R   0.499990 0.535890 0.908840 -0.508606
O9    O     O_R   0.964100 0.938030 0.464100 -0.460821
O10   O     O_R   0.035900 0.061970 0.535900 -0.478055
O11   O     O_R   0.035900 0.938030 0.535900 -0.506457
O12   O     O_R   0.061980 0.035890 0.061960 -0.483392
O13   O     O_R   0.964100 0.061970 0.464100 -0.512875
O14   O     O_R   0.464100 0.438030 0.464100 -0.474794
O15   O     O_R   0.535900 0.561970 0.535900 -0.508227
O16   O     O_R   0.535900 0.438030 0.535900 -0.493181
O17   O     O_R   0.464100 0.561970 0.464100 -0.499396
O18   O     O_R   0.964110 0.000000 0.555280 -0.532664
O19   O     O_R   0.035890 1.000000 0.444720 -0.526827
O20   O     O_R   0.464110 0.500000 0.555280 -0.520294
O21   O     O_R   0.535890 0.500000 0.444720 -0.522941
O22   O     O_R   0.035850 0.000000 0.627010 -0.499203
O23   O     O_R   0.061980 0.964110 0.061960 -0.489191
O24   O     O_R   0.964150 1.000000 0.372990 -0.496521
O25   O     O_R   0.535850 0.500000 0.627010 -0.516609
O26   O     O_R   0.464150 0.500000 0.372990 -0.494441
O27   O     O_R   0.499940 0.061950 0.447200 -0.483399
O28   O     O_R   0.500060 0.938050 0.552800 -0.483049
O29   O     O_R   0.500060 0.061950 0.552800 -0.482261
O30   O     O_R   0.499940 0.938050 0.447200 -0.482936
O31   O     O_R   0.999940 0.561950 0.447200 -0.483458
O32   O     O_R   0.000060 0.438050 0.552800 -0.483075
O33   O     O_R   0.000060 0.561950 0.552800 -0.482592
O34   O     O_R   0.938020 0.035890 0.938040 -0.488582
O35   O     O_R   0.999940 0.438050 0.447200 -0.482690
O36   O     O_R   0.561950 1.000000 0.509180 -0.483628
O37   O     O_R   0.438050 1.000000 0.490820 -0.483201
O38   O     O_R   0.061950 0.500000 0.509180 -0.483543
O39   O     O_R   0.938050 0.500000 0.490820 -0.483363
O40   O     O_R   0.561950 0.000000 0.614710 -0.483181
O41   O     O_R   0.438050 1.000000 0.385290 -0.483477
O42   O     O_R   0.061950 0.500000 0.614710 -0.483315
O43   O     O_R   0.938050 0.500000 0.385290 -0.483285
O44   O     O_R   0.438020 0.464110 0.938040 -0.485815
O45   O     O_R   0.561980 0.535890 0.061960 -0.484585
O46   O     O_R   0.561980 0.464110 0.061960 -0.485911
O47   O     O_R   0.438020 0.535890 0.938040 -0.489784
O48   O     O_R   0.999990 0.964110 0.908840 -0.503319

loop_
_geom_bond_atom_site_label_1
_geom_bond_atom_site_label_2
_ccdc_geom_bond_type
C99   C103  S    
C33   H111  S    
C24   C61   T    
Cu11  O25   S    
C107  C112  S    
C18   C132  S    
C19   C20   S    
C88   O39   A    
Cu1   O48   S    
C96   C145  S    
C124  C133  S    
C138  C143  S    
C129  Cl2   S    
C3    C54   S    
C16   H75   S    
C29   H105  S    
C139  C152  S    
C100  C104  S    
C74   C92   S    
Cu10  O14   S    
C1    O1    A    
C146  C150  S    
C21   H91   S    
C31   H116  S    
C37   H118  S    
Cu1   O3    S    
C39   H128  S    
C91   C100  T    
C77   C147  S    
C78   C148  S    
C79   C149  S    
C119  C128  S    
C12   H66   S    
C30   H103  S    
C21   C22   S    
C53   H22   S    
C77   O19   A    
C11   C129  S    
C21   C133  S    
C58   C152  S    
C28   H108  S    
C45   C47   S    
C3    C149  S    
C135  Cl7   S    
C51   C52   S    
C127  H115  S    
C127  C136  S    
C15   H77   S    
C18   H84   S    
Cu9   O22   S    
Cu3   O35   S    
C137  H50   S    
C44   C150  S    
Cu11  O16   S    
C108  C113  S    
C83   O35   A    
Cu2   O29   S    
C26   H97   S    
C20   H78   S    
C27   H96   S    
C54   H33   S    
C55   H31   S    
C123  C141  S    
C38   H131  S    
C76   O47   A    
C96   O7    A    
C95   O5    A    
C58   H42   S    
C19   H83   S    
Cu8   Cu9   S    
C41   H4    S    
C119  C141  S    
C123  H24   S    
C31   H114  S    
C119  H126  S    
Cu5   O34   S    
C139  H51   S    
C54   C55   S    
C126  H104  S    
C40   H125  S    
C86   O42   A    
C125  H93   S    
C50   H12   S    
Cu8   O24   S    
C31   C136  S    
C20   H79   S    
C140  C145  S    
C14   H65   S    
C41   C151  S    
C138  C151  S    
C43   H132  S    
C63   C68   T    
C42   H135  S    
C87   O46   A    
Cu10  O20   S    
C25   C26   S    
C125  H43   S    
C24   C131  S    
C66   C70   T    
C49   H16   S    
C22   H90   S    
Cu8   O13   S    
C53   H20   S    
C129  C147  S    
Cu9   O11   S    
C15   H76   S    
C30   H101  S    
C22   C23   S    
C43   H133  S    
Cu1   Cu5   S    
C56   H28   S    
C2    C109  S    
C123  C132  S    
C28   C135  S    
C123  H71   S    
C105  C107  T    
C78   O20   A    
C139  H54   S    
Cu7   O8    S    
C36   C37   S    
C95   O8    A    
C38   C39   S    
C20   H80   S    
C27   H94   S    
C13   C57   T    
Cu10  Cu11  S    
C55   H32   S    
C48   H19   S    
C71   O11   A    
C34   H122  S    
C19   H81   S    
Cu11  O21   S    
C9    C10   S    
C110  C114  S    
C65   O12   A    
C98   C142  S    
C68   C85   S    
Cu8   O18   S    
C122  C143  S    
C14   H63   S    
C126  C145  S    
C59   H39   S    
Cu12  O30   S    
C106  C111  S    
C75   C146  S    
C93   O4    A    
C27   H95   S    
C94   O3    A    
C77   O24   A    
C82   O31   A    
C39   C40   S    
C140  H52   S    
C56   H29   S    
C11   H68   S    
C134  C149  S    
Cu1   O23   S    
C9    H58   S    
C147  C151  S    
C29   C30   S    
C72   C90   S    
C31   C32   S    
C17   H73   S    
Cu9   O19   S    
C81   O30   A    
C78   O25   A    
C25   H99   S    
C64   C69   T    
C44   H11   S    
C136  C148  S    
C126  H44   S    
C113  C117  T    
C134  Cl6   S    
C138  H47   S    
C10   H55   S    
C11   H69   S    
C137  C150  S    
C40   H124  S    
C50   H14   S    
C96   O6    A    
C38   C151  S    
C112  C116  T    
C13   C120  S    
C52   C53   S    
C72   O13   A    
Cu3   O31   S    
C33   H110  S    
C130  C147  S    
Cu7   O6    S    
C7    C131  T    
Cu8   O9    S    
C148  C152  S    
C23   H88   S    
C6    C76   S    
Cu7   O47   S    
Cu6   O46   S    
C46   C63   S    
C125  C145  S    
C71   O9    A    
C128  C146  S    
C81   O28   A    
C81   C116  S    
C132  Cl4   S    
C133  Cl5   S    
C35   C142  T    
C136  Cl8   S    
C59   C60   S    
Cu5   O12   S    
Cu2   Cu12  S    
C37   H117  S    
C49   C50   S    
C86   O38   A    
C15   C130  S    
C8    H62   S    
C125  C134  S    
C55   C56   S    
Cu3   O43   S    
Cu4   O33   S    
C53   H21   S    
C41   C42   S    
C90   C99   T    
C104  C106  T    
C34   C150  S    
Cu2   O37   S    
C45   H9    S    
C73   O14   A    
C93   O48   A    
C26   C27   S    
C28   C29   S    
C114  C118  T    
C47   H6    S    
Cu3   O38   S    
Cu4   O42   S    
Cu11  O15   S    
C18   C19   S    
Cu6   O44   S    
C45   H8    S    
C26   H98   S    
C7    C87   S    
C84   O36   A    
C23   H86   S    
C16   C17   S    
C54   H34   S    
C60   H37   S    
C48   H18   S    
C97   C102  S    
C65   O23   A    
C41   H3    S    
C76   O44   A    
C52   H23   S    
Cu10  O17   S    
Cu7   O45   S    
C38   H130  S    
C8    H61   S    
C124  H82   S    
C3    C51   S    
C60   H36   S    
Cu12  O41   S    
C29   H106  S    
C42   H136  S    
C87   O45   A    
C51   H26   S    
C21   H92   S    
C121  H2    S    
C80   C115  S    
C37   H119  S    
C25   C134  S    
C128  Cl1   S    
C48   C49   S    
C75   O22   A    
C126  C135  S    
C30   H102  S    
C103  C110  T    
C124  H35   S    
C42   C43   S    
C44   H10   S    
C93   C141  S    
C44   C45   S    
C127  H45   S    
C28   H107  S    
C73   O16   A    
C137  C141  S    
C85   O41   A    
C40   H127  S    
C121  C129  S    
C122  H60   S    
C39   H129  S    
C132  C146  S    
C32   C33   S    
C58   C59   S    
C88   O43   A    
C119  H1    S    
C5    C109  T    
Cu5   O2    S    
C127  C144  S    
C34   H123  S    
C58   H41   S    
C56   H30   S    
C75   O18   A    
C121  H49   S    
C52   H25   S    
C82   C117  S    
C32   H112  S    
C15   C16   S    
C4    C98   T    
C79   O26   A    
C121  C143  S    
Cu3   Cu4   S    
C70   C88   S    
C14   H64   S    
C2    C46   T    
C140  H53   S    
C62   C67   T    
Cu4   O32   S    
C94   C143  S    
C83   C118  S    
Cu2   O40   S    
C49   H17   S    
C22   H89   S    
Cu6   O7    S    
C80   O27   A    
C1    O34   A    
C47   H7    S    
Cu12  O36   S    
C61   C66   S    
C12   H67   S    
C17   H72   S    
C8    C9    S    
C18   H85   S    
C137  H46   S    
C43   H134  S    
C102  C108  T    
C130  Cl3   S    
C82   O33   A    
C34   C36   S    
C138  H48   S    
C67   C84   S    
C10   H56   S    
C50   H15   S    
C6    C120  T    
C8    C128  S    
C101  C105  S    
C33   H109  S    
C73   C91   S    
C5    C65   S    
C32   H113  S    
C74   O15   A    
C122  H13   S    
C84   O40   A    
Cu2   O28   S    
C135  C149  S    
Cu5   O4    S    
C10   H57   S    
C89   C97   T    
C79   O21   A    
C139  C144  S    
C71   C89   S    
C83   O32   A    
C133  C148  S    
C80   O29   A    
C51   H27   S    
C92   C101  T    
Cu9   O10   S    
C12   C14   S    
Cu1   O1    S    
Cu6   Cu7   S    
C59   H40   S    
C57   C64   S    
C72   O10   A    
C36   H120  S    
C36   H121  S    
C94   O2    A    
C95   C144  S    
C17   H70   S    
C11   C12   S    
C74   O17   A    
C16   H74   S    
Cu6   O5    S    
C9    H59   S    
C1    C4    S    
C48   C152  S    
C47   H5    S    
Cu4   O39   S    
Cu10  O26   S    
C35   C62   S    
C25   H100  S    
C23   H87   S    
C85   O37   A    
C124  C144  S    
C111  C115  T    
C3    C140  S    
C60   H38   S    
C122  C130  S    
Cu12  O27   S    
C69   C86   S    
