data_mof_unit_57577.cif
_audit_creation_date              2012-12-10T20:25:46-0500
_audit_creation_method            fapswitch 2.2
_symmetry_space_group_name_H-M    P1
_symmetry_Int_Tables_number       1
_space_group_crystal_system       triclinic
_cell_length_a                    8.587261
_cell_length_b                    10.684534
_cell_length_c                    9.873924
_cell_angle_alpha                 89.695799
_cell_angle_beta                  98.474074
_cell_angle_gamma                 90.145151
_cell_volume                      896.036721528

loop_
_atom_site_label
_atom_site_type_symbol
_atom_type_description
_atom_site_fract_x
_atom_site_fract_y
_atom_site_fract_z
_atom_type_partial_charge
C1    C     C_R   0.505491 0.259947 0.500996 0.883846
C2    C     C_R   0.363394 0.481196 0.911596 0.199955
C3    C     C_3   0.260737 0.367820 0.894655 -0.510207
C4    C     C_R   0.201255 0.500304 0.464205 0.970073
C5    C     C_3   0.261455 0.367800 0.048433 -0.504849
C6    C     C_R   0.504503 0.740015 0.500352 0.874634
C7    C     C_R   0.798712 0.501365 0.535690 0.969126
C8    C     C_2   0.036162 0.499276 0.444832 -0.388012
C9    C     C_2   0.963668 0.505720 0.554557 -0.393198
C10   C     C_R   0.531126 0.062978 0.627245 0.099760
C11   C     C_R   0.531559 0.128562 0.505104 -0.105122
C12   C     C_R   0.560176 0.935910 0.386825 -0.222066
C13   C     C_R   0.561300 0.065369 0.387352 -0.227677
C14   C     C_3   0.478561 0.865697 0.867710 -0.330356
C15   C     C_3   0.655335 0.881505 0.916176 -0.848535
C16   C     C_R   0.529260 0.871367 0.504040 -0.144808
C17   C     C_R   0.529696 0.935067 0.626757 0.151312
C18   C     C_3   0.416248 0.928574 0.728848 -0.046633
C19   C     C_3   0.420224 0.070812 0.730231 -0.516135
C20   C     C_R   0.363674 0.480877 0.054082 0.219565
C21   C     C_R   0.631694 0.530647 0.088491 -0.141417
C22   C     C_R   0.631812 0.530351 0.944728 -0.140907
H1    H     H_    0.974787 0.491512 0.340673 0.168914
H2    H     H_    0.299045 0.891495 0.683137 0.130231
H3    H     H_    0.305498 0.113718 0.687370 0.179583
H4    H     H_    0.477706 0.112195 0.827981 0.208983
H5    H     H_    0.738701 0.553940 0.155704 0.146869
H6    H     H_    0.724476 0.834935 0.844303 0.258332
H7    H     H_    0.688191 0.981937 0.924955 0.253704
H8    H     H_    0.686143 0.836997 0.018475 0.233825
H9    H     H_    0.412549 0.903444 0.947168 0.194368
H10   H     H_    0.451946 0.764115 0.859701 0.218019
H11   H     H_    0.738833 0.553328 0.904439 0.152541
H12   H     H_    0.142692 0.387503 0.836430 0.197804
H13   H     H_    0.321275 0.286015 0.858215 0.213227
H14   H     H_    0.144364 0.388853 0.078082 0.198150
H15   H     H_    0.322791 0.285660 0.101362 0.214646
H16   H     H_    0.024993 0.515062 0.658341 0.168031
H17   H     H_    0.574067 0.114860 0.293553 0.171991
H18   H     H_    0.572512 0.887562 0.292813 0.174072
N1    N     N_R   0.498950 0.499140 0.142680 -0.106817
N2    N     N_R   0.498950 0.499180 0.857030 -0.110400
O1    O     O_R   0.500020 0.316790 0.614690 -0.613063
O2    O     O_R   0.500000 0.316760 0.385350 -0.625723
O3    O     O_R   0.271760 0.500010 0.587850 -0.614607
O4    O     O_R   0.271740 0.499970 0.358500 -0.625355
O5    O     O_R   0.500000 0.683240 0.614650 -0.624508
O6    O     O_R   0.499980 0.683210 0.385310 -0.621557
O7    O     O_R   0.728260 0.500030 0.641500 -0.634717
O8    O     O_R   0.728240 0.499990 0.412150 -0.620784
Zn1   Zn    Zn3+2 0.500010 0.500020 0.653130 0.931072
Zn2   Zn    Zn3+2 0.499990 0.499980 0.346870 0.934818

loop_
_geom_bond_atom_site_label_1
_geom_bond_atom_site_label_2
_ccdc_geom_bond_type
C12   H18   S    
O8    Zn2   S    
C19   H4    S    
C5    H15   S    
C10   C19   S    
N1    Zn2   S    
C1    C11   S    
C3    H13   S    
N2    Zn1   S    
C4    C8    S    
O2    Zn2   S    
C2    C3    S    
C21   H5    S    
C5    C20   S    
C4    O4    A    
C21   C22   A    
C11   C13   A    
O1    Zn1   S    
C15   H6    S    
C22   N2    A    
C6    O6    A    
C2    N2    A    
C18   H2    S    
C9    H16   S    
C15   H7    S    
C4    O3    A    
C19   H3    S    
C21   N1    A    
C13   H17   S    
C10   C11   A    
O3    Zn1   S    
C10   C17   A    
C2    C20   A    
C5    H14   S    
O4    Zn2   S    
O6    Zn2   S    
C8    H1    S    
C12   C13   A    
C7    O7    A    
C15   H8    S    
C17   C18   S    
C18   C19   S    
C6    O5    A    
C14   H10   S    
C7    C9    S    
C14   H9    S    
C14   C18   S    
C14   C15   S    
C8    C9    D    
O5    Zn1   S    
C1    O2    A    
C3    H12   S    
O7    Zn1   S    
C6    C16   S    
C1    O1    A    
C12   C16   A    
C7    O8    A    
C20   N1    A    
C16   C17   A    
C3    C5    S    
C22   H11   S    
