data_mof_unit_54311.cif
_audit_creation_date              2012-12-10T19:45:46-0500
_audit_creation_method            fapswitch 2.2
_symmetry_space_group_name_H-M    P1
_symmetry_Int_Tables_number       1
_space_group_crystal_system       triclinic
_cell_length_a                    10.772196
_cell_length_b                    14.860553
_cell_length_c                    14.70465
_cell_angle_alpha                 64.456267
_cell_angle_beta                  105.750513
_cell_angle_gamma                 102.129946
_cell_volume                      2032.32882472

loop_
_atom_site_label
_atom_site_type_symbol
_atom_type_description
_atom_site_fract_x
_atom_site_fract_y
_atom_site_fract_z
_atom_type_partial_charge
C1    C     C_R   0.475782 0.119114 0.311359 0.795923
C2    C     C_R   0.671993 0.768371 0.974995 -0.224799
C3    C     C_R   0.368069 0.157733 0.123008 0.016699
C4    C     C_R   0.637867 0.841702 0.876114 0.011069
C5    C     C_R   0.512221 0.284852 0.174164 -0.225747
C6    C     C_R   0.492683 0.714435 0.825884 -0.186982
C7    C     C_R   0.479040 0.359728 0.074881 0.079892
C8    C     C_R   0.530909 0.638896 0.923729 0.089061
C9    C     C_R   0.390346 0.330499 0.999281 0.144420
C10   C     C_R   0.621477 0.667964 0.998653 0.134298
C11   C     C_R   0.527861 0.462918 0.049467 0.054169
C12   C     C_R   0.524686 0.880851 0.688648 0.784388
C13   C     C_R   0.484222 0.535438 0.948536 0.069451
C14   C     C_R   0.397242 0.501794 0.875394 -0.163282
C15   C     C_R   0.617595 0.496258 0.121752 -0.180915
C16   C     C_R   0.263338 0.999373 0.501870 0.818151
C17   C     C_R   0.736665 0.000618 0.498146 0.812140
C18   C     C_R   0.352344 0.401421 0.900381 -0.210315
C19   C     C_R   0.662707 0.596633 0.096638 -0.199357
C20   C     C_R   0.739455 0.291335 0.653360 -0.301214
C21   C     C_R   0.260980 0.708864 0.346277 -0.301826
C22   C     C_R   0.692688 0.205363 0.633838 0.121914
C23   C     C_R   0.870265 0.000319 0.497117 -0.015161
C24   C     C_R   0.307582 0.794769 0.365909 0.122545
C25   C     C_R   0.514317 0.286809 0.508054 0.109991
C26   C     C_R   0.485891 0.713338 0.491904 0.112157
C27   C     C_R   0.548150 0.370987 0.535841 -0.078009
C28   C     C_R   0.452232 0.629227 0.463971 -0.084456
C29   C     C_R   0.669752 0.375270 0.602111 0.144828
C30   C     C_R   0.330653 0.624931 0.397661 0.146365
C31   C     C_R   0.471883 0.454439 0.494299 0.090103
C32   C     C_R   0.528330 0.545678 0.505810 0.082571
C33   C     C_R   0.659922 0.551048 0.555833 -0.206999
C34   C     C_R   0.129745 0.999637 0.502947 -0.014963
C35   C     C_R   0.340093 0.449006 0.444633 -0.206259
C36   C     C_R   0.725464 0.465936 0.609683 -0.165025
C37   C     C_R   0.274727 0.534167 0.390462 -0.167765
C38   C     C_R   0.343604 0.024811 0.814862 -0.088745
C39   C     C_R   0.657596 0.975579 0.184532 -0.090209
C40   C     C_R   0.253638 0.988580 0.745505 -0.012324
C41   C     C_R   0.747104 0.011679 0.254184 -0.016133
C42   C     C_R   0.193889 0.059415 0.649323 0.038908
C43   C     C_R   0.806184 0.940734 0.350586 0.040614
C44   C     C_R   0.224408 0.162526 0.626664 -0.117927
C45   C     C_R   0.903588 0.970395 0.428582 0.061384
C46   C     C_R   0.775498 0.837648 0.373150 -0.114109
C47   C     C_R   0.314410 0.196336 0.696383 -0.169372
C48   C     C_R   0.685855 0.803971 0.303181 -0.168137
C49   C     C_R   0.374006 0.127624 0.790216 -0.087623
C50   C     C_R   0.626917 0.872792 0.209130 -0.085320
C51   C     C_R   0.966478 0.030238 0.567148 -0.195642
C52   C     C_R   0.033533 0.969721 0.432919 -0.192133
C53   C     C_2   0.570208 0.699154 0.594040 0.866407
C54   C     C_2   0.428224 0.300622 0.406666 0.858803
C55   C     C_2   0.223891 0.877676 0.777585 0.800430
C56   C     C_R   0.096432 0.029613 0.571445 0.060412
C57   C     C_2   0.777168 0.122561 0.222132 0.805062
C58   C     C_2   0.700701 0.944677 0.857234 0.824891
C59   C     C_2   0.302883 0.055352 0.142095 0.824061
C60   C     C_R   0.453737 0.185970 0.200656 -0.108356
C61   C     C_R   0.549620 0.813722 0.799247 -0.119780
C62   C     C_R   0.338106 0.230423 0.023198 -0.221127
Cu1   Cu    Cu3+1 0.466270 0.918260 0.475690 0.997924
Cu2   Cu    Cu3+1 0.533730 0.081740 0.524310 1.001669
H1    H     H_    0.271149 0.209052 0.964052 0.145862
H2    H     H_    0.284415 0.379075 0.447418 0.152505
H3    H     H_    0.390980 0.973576 0.888910 0.187820
H4    H     H_    0.610698 0.026903 0.110330 0.187387
H5    H     H_    0.178242 0.216910 0.554302 0.150603
H6    H     H_    0.821357 0.783174 0.445582 0.153527
H7    H     H_    0.940319 0.052211 0.620391 0.147770
H8    H     H_    0.059690 0.947752 0.379672 0.147309
H9    H     H_    0.285302 0.379362 0.841833 0.143393
H10   H     H_    0.731862 0.618465 0.154498 0.144001
H11   H     H_    0.443582 0.154019 0.844398 0.156283
H12   H     H_    0.740526 0.789593 0.033622 0.148945
H13   H     H_    0.557639 0.846504 0.154739 0.156651
H14   H     H_    0.739484 0.735282 0.677669 0.331759
H15   H     H_    0.392310 0.386689 0.254369 0.336633
H16   H     H_    0.831394 0.293136 0.706213 0.143694
H17   H     H_    0.169109 0.707064 0.293348 0.143035
H18   H     H_    0.257095 0.739789 0.887837 0.340146
H19   H     H_    0.746968 0.260485 0.110840 0.343490
H20   H     H_    0.337708 0.275990 0.677712 0.141871
H21   H     H_    0.662394 0.724333 0.321803 0.143624
H22   H     H_    0.419673 0.698322 0.767111 0.174835
H23   H     H_    0.361096 0.550606 0.797273 0.172233
H24   H     H_    0.581184 0.301501 0.234401 0.179035
H25   H     H_    0.868132 0.035674 0.860244 0.326362
H26   H     H_    0.133631 0.966435 0.139083 0.325925
H27   H     H_    0.656813 0.447090 0.198950 0.170492
H28   H     H_    0.823598 0.472627 0.652765 0.145938
H29   H     H_    0.176514 0.527437 0.347521 0.146299
H30   H     H_    0.252583 0.858850 0.327640 0.141146
H31   H     H_    0.747723 0.141307 0.672035 0.141070
H32   H     H_    0.715284 0.620948 0.553412 0.155590
N1    N     N_R   0.584450 0.204570 0.560790 -0.214978
N2    N     N_R   0.415550 0.795430 0.439210 -0.214524
O1    O     O_R   0.455540 0.022090 0.338120 -0.563368
O2    O     O_R   0.691693 0.754057 0.603395 -0.764509
O3    O     O_2   0.325116 0.248520 0.399722 -0.593666
O4    O     O_R   0.461223 0.380423 0.318769 -0.786848
O5    O     O_2   0.146436 0.841953 0.720781 -0.605769
O6    O     O_R   0.284744 0.813204 0.874526 -0.768642
O7    O     O_2   0.852101 0.158220 0.280032 -0.598966
O8    O     O_R   0.719407 0.187089 0.124014 -0.766262
O9    O     O_2   0.635214 0.012498 0.832915 -0.603787
O10   O     O_R   0.835927 0.962804 0.873462 -0.766313
O11   O     O_2   0.366549 0.986325 0.166978 -0.605631
O12   O     O_R   0.544460 0.977910 0.661880 -0.561057
O13   O     O_R   0.167551 0.039106 0.125607 -0.762518
O14   O     O_R   0.512510 0.160150 0.379180 -0.569997
O15   O     O_R   0.487490 0.839850 0.620820 -0.571826
O16   O     O_R   0.291160 0.930970 0.479480 -0.602880
O17   O     O_R   0.708840 0.069030 0.520520 -0.602643
O18   O     O_R   0.348130 0.069020 0.520540 -0.537883
O19   O     O_R   0.651870 0.930980 0.479460 -0.535879
O20   O     O_2   0.535722 0.633424 0.670956 -0.627975

loop_
_geom_bond_atom_site_label_1
_geom_bond_atom_site_label_2
_ccdc_geom_bond_type
C57   O7    D    
C26   C53   S    
C34   C56   A    
C8    C13   A    
C23   C45   A    
C27   C29   A    
C22   H31   S    
C14   C18   A    
C54   O3    D    
C1    O1    A    
C12   O12   A    
C39   C41   A    
C38   C49   A    
C7    C11   A    
C29   C36   A    
C17   C23   S    
C51   H7    S    
C24   N2    A    
C6    C61   A    
C35   C37   A    
C14   H23   S    
C51   C56   A    
Cu1   N2    S    
C1    O14   A    
Cu1   O19   S    
Cu2   O14   S    
C55   O5    D    
C33   C36   A    
C58   O9    D    
C39   H4    S    
Cu1   O1    S    
C16   C34   S    
C15   C19   A    
Cu1   O16   S    
C11   C15   A    
C59   O13   S    
C49   H11   S    
H15   O4    S    
C5    C60   A    
C44   C47   A    
C17   O19   A    
C42   C56   S    
C3    C60   A    
C36   H28   S    
C40   C42   A    
C57   O8    S    
Cu2   O18   S    
C22   N1    A    
C13   C14   A    
C41   C43   A    
C42   C44   A    
H26   O13   S    
Cu2   O12   S    
C16   O18   A    
C20   C29   A    
C53   O2    S    
C46   C48   A    
C20   H16   S    
C27   C31   A    
C9    C62   A    
C28   C32   A    
C25   C54   S    
C47   C49   A    
C1    C60   S    
C5    C7    A    
C53   O20   D    
C6    C8    A    
C45   C52   A    
C55   O6    S    
C30   C37   A    
Cu2   O17   S    
C2    C4    A    
C52   H8    S    
C24   H30   S    
C23   C51   A    
C31   C32   A    
C10   C19   A    
C40   C55   S    
C37   H29   S    
C44   H5    S    
C47   H20   S    
C43   C45   S    
C26   N2    A    
C25   N1    A    
Cu2   N1    S    
C20   C22   A    
C18   H9    S    
H14   O2    S    
C31   C35   A    
C2    C10   A    
C50   H13   S    
C6    H22   S    
C2    H12   S    
C17   O17   A    
C12   O15   A    
C3    C62   A    
C7    C9    A    
C62   H1    S    
C26   C28   A    
C54   O4    S    
C19   H10   S    
C21   H17   S    
C16   O16   A    
C25   C27   A    
C21   C30   A    
C34   C52   A    
C35   H2    S    
H19   O8    S    
C33   H32   S    
C32   C33   A    
C28   C30   A    
C41   C57   S    
C38   C40   A    
C12   C61   S    
C11   C13   A    
C4    C61   A    
H25   O10   S    
C48   C50   A    
C59   O11   D    
C58   O10   S    
C43   C46   A    
C46   H6    S    
C15   H27   S    
Cu1   Cu2   S    
Cu1   O15   S    
C9    C18   A    
C39   C50   A    
C38   H3    S    
C8    C10   A    
C21   C24   A    
C4    C58   S    
C5    H24   S    
H18   O6    S    
C48   H21   S    
C3    C59   S    
