data_mof_unit_50148.cif
_audit_creation_date              2013-03-05T16:04:19-0500
_audit_creation_method            fapswitch 2.2
_symmetry_space_group_name_H-M    P1
_symmetry_Int_Tables_number       1
_space_group_crystal_system       triclinic
_cell_length_a                    9.553721
_cell_length_b                    10.830508
_cell_length_c                    13.455929
_cell_angle_alpha                 91.347873
_cell_angle_beta                  72.880017
_cell_angle_gamma                 90.43365
_cell_volume                      1330.24615239

loop_
_atom_site_label
_atom_site_type_symbol
_atom_site_description
_atom_site_fract_x
_atom_site_fract_y
_atom_site_fract_z
_atom_type_partial_charge
O1    O     O_R   0.381250 0.680340 0.500010 -0.586888
O2    O     O_R   0.618820 0.680370 0.500010 -0.583988
C1    C     C_R   0.500299 0.737832 0.500093 0.793562
O3    O     O_R   0.323240 0.499950 0.650980 -0.578689
O4    O     O_R   0.560810 0.499980 0.650980 -0.581096
C2    C     C_R   0.421802 0.495780 0.699891 0.787806
Cu1   Cu    Cu3+1 0.359340 0.499980 0.500000 0.929430
Cu2   Cu    Cu3+1 0.640660 0.500020 0.500000 0.932082
O5    O     O_R   0.381180 0.319630 0.499990 -0.605942
O6    O     O_R   0.618750 0.319660 0.499990 -0.595216
O7    O     O_R   0.439190 0.500020 0.349020 -0.593813
O8    O     O_R   0.676760 0.500050 0.349020 -0.582041
C3    C     C_R   0.499782 0.262179 0.499736 0.772569
C4    C     C_R   0.578440 0.499109 0.300292 0.794790
C5    C     C_R   0.782068 0.391797 0.030076 -0.197689
H1    H     H_    0.833257 0.400838 0.174553 0.154571
H2    H     H_    0.795533 0.314780 0.839173 0.146129
H3    H     H_    0.882462 0.342953 0.990804 0.138057
C6    C     C_R   0.623916 0.485473 0.187170 -0.044221
C7    C     C_R   0.238941 0.551152 0.866409 -0.191236
C8    C     C_R   0.201673 0.577346 0.972259 -0.149772
C9    C     C_R   0.301534 0.556126 0.027027 -0.190083
C10   C     C_R   0.439288 0.500591 0.977788 0.084903
C11   C     C_R   0.470983 0.463179 0.871671 0.083871
C12   C     C_R   0.545798 0.479345 0.030533 0.071049
C13   C     C_R   0.676767 0.414505 0.978802 0.168738
C14   C     C_R   0.699040 0.368893 0.877849 -0.249257
C15   C     C_R   0.596487 0.390460 0.825872 -0.204381
C16   C     C_R   0.525344 0.518447 0.133948 -0.279300
C17   C     C_R   0.755134 0.426085 0.134267 -0.201409
C18   C     C_R   0.375205 0.498466 0.814334 -0.106476
H4    H     H_    0.430522 0.570509 0.177060 0.148979
H5    H     H_    0.162851 0.576657 0.824535 0.152548
H6    H     H_    0.265877 0.582845 0.108043 0.120922
H7    H     H_    0.096535 0.618800 0.011522 0.146919
H8    H     H_    0.615655 0.346343 0.750214 0.172781
C19   C     C_R   0.628132 0.937055 0.498194 -0.186746
H9    H     H_    0.728112 0.889743 0.497040 0.147876
C20   C     C_R   0.627868 0.064791 0.497951 -0.188452
H10   H     H_    0.727846 0.113515 0.496585 0.145708
C21   C     C_R   0.499834 0.128287 0.499510 -0.012864
C22   C     C_R   0.372211 0.062996 0.501060 -0.191640
H11   H     H_    0.272180 0.110287 0.502383 0.142807
C23   C     C_R   0.372502 0.935269 0.501229 -0.184061
H12   H     H_    0.272533 0.886565 0.502568 0.147870
C24   C     C_R   0.500445 0.871756 0.499872 -0.019659
C25   C     C_R   0.900476 0.579562 0.563379 -0.032205
H13   H     H_    0.824311 0.643519 0.614271 0.130552
C26   C     C_R   0.048844 0.579063 0.563836 -0.064846
H14   H     H_    0.084013 0.642382 0.615123 0.125206
N1    N     N_R   0.147940 0.499970 0.499970 -0.172336
C27   C     C_R   0.097192 0.420088 0.434910 0.225351
C28   C     C_R   0.947896 0.420048 0.437951 -0.033090
H15   H     H_    0.907789 0.356330 0.389656 0.140336
N2    N     N_R   0.852060 0.500060 0.499990 -0.178035
C29   C     C_3   0.190593 0.325661 0.358907 -0.394346
C30   C     C_3   0.192440 0.346617 0.245108 -0.377109
C31   C     C_3   0.120385 0.241151 0.200510 -0.852987
H16   H     H_    0.178322 0.152883 0.201813 0.257029
H17   H     H_    0.003394 0.231048 0.245506 0.240909
H18   H     H_    0.126718 0.260808 0.118634 0.249413
H19   H     H_    0.138335 0.435019 0.237680 0.214787
H20   H     H_    0.307643 0.352678 0.195472 0.231847
H21   H     H_    0.304327 0.322965 0.358878 0.240168
H22   H     H_    0.147020 0.232287 0.384153 0.170309

loop_
_geom_bond_atom_site_label_1
_geom_bond_atom_site_label_2
_geom_bond_distance
_ccdc_geom_bond_type
C13   C14   1.390841 A    
C5    H3    1.084056 S    
C10   C11   1.419467 A    
C29   H21   1.087087 S    
C30   H20   1.109019 S    
C19   H9    1.083272 S    
C8    H7    1.082991 S    
C29   H22   1.112617 S    
O4    Cu2   1.948549 S    
C21   C22   1.399916 A    
C1    C24   1.450523 S    
C25   H13   1.081752 S    
Cu2   O8    1.958000 S    
C31   H18   1.111021 S    
C3    C21   1.450048 S    
O2    C1    1.295896 A    
C12   C13   1.421550 A    
C11   C18   1.418937 A    
Cu1   N1    2.019775 S    
C30   H19   1.111887 S    
C19   C20   1.383558 A    
O1    Cu1   1.962999 S    
C28   H15   1.080222 S    
C7    C8    1.385585 A    
Cu1   O7    1.948551 S    
C30   C31   1.528988 S    
C22   C23   1.383432 A    
C27   C28   1.414823 A    
O3    Cu1   1.957999 S    
C7    H5    1.083393 S    
Cu2   N2    2.019614 S    
C25   C26   1.419337 A    
Cu2   O6    1.962999 S    
O8    C4    1.294018 A    
C2    C18   1.471367 S    
C16   H4    1.076140 S    
C10   C12   1.424262 A    
C12   C16   1.402619 A    
O4    C2    1.298011 A    
C9    H6    1.075281 S    
O7    C4    1.298536 A    
C31   H16   1.111360 S    
O3    C2    1.299525 A    
C22   H11   1.083012 S    
C28   N2    1.346883 A    
H1    C17   1.083496 S    
N1    C27   1.399245 A    
H2    C14   1.084220 S    
C27   C29   1.521635 S    
Cu1   Cu2   2.687651 S    
C29   C30   1.548222 S    
C15   H8    1.080244 S    
C5    C17   1.390776 A    
C20   C21   1.402333 A    
C26   H14   1.081764 S    
C14   C15   1.385017 A    
Cu1   O5    1.965956 S    
C25   N2    1.369156 A    
O5    C3    1.295902 A    
C20   H10   1.083341 S    
C5    C13   1.403188 A    
C26   N1    1.366477 A    
C19   C24   1.400089 A    
C8    C9    1.389725 A    
C6    C17   1.399027 A    
C31   H17   1.109353 S    
C4    C6    1.458977 S    
O6    C3    1.292626 A    
C9    C10   1.418678 A    
O2    Cu2   1.965958 S    
C23   H12   1.083248 S    
C11   C15   1.412145 A    
C23   C24   1.402356 A    
O1    C1    1.292791 A    
C7    C18   1.402410 A    
C6    C16   1.393361 A    
