data_mof_unit_57189.cif
_audit_creation_date              2012-12-11T16:26:19-0500
_audit_creation_method            fapswitch 2.2
_symmetry_space_group_name_H-M    P1
_symmetry_Int_Tables_number       1
_space_group_crystal_system       triclinic
_cell_length_a                    13.976654
_cell_length_b                    14.009365
_cell_length_c                    31.635436
_cell_angle_alpha                 89.944425
_cell_angle_beta                  90.353775
_cell_angle_gamma                 120.161442
_cell_volume                      5355.59479785

loop_
_atom_site_label
_atom_site_type_symbol
_atom_type_description
_atom_site_fract_x
_atom_site_fract_y
_atom_site_fract_z
_atom_type_partial_charge
C1    C     C_R   0.565296 0.445462 0.810025 0.554954
C2    C     C_R   0.874777 0.431117 0.689282 0.587311
C3    C     C_R   0.554301 0.119266 0.809822 0.559478
C4    C     C_R   0.564643 0.446389 0.690330 0.524937
C5    C     C_R   0.880524 0.434895 0.810011 0.567013
C6    C     C_R   0.552408 0.116672 0.691095 0.540854
C7    C     C_R   0.446603 0.564817 0.309579 0.555091
C8    C     C_R   0.434353 0.879343 0.189834 0.562057
C9    C     C_R   0.119388 0.554372 0.309459 0.559929
C10   C     C_R   0.445351 0.565545 0.189817 0.558122
C11   C     C_R   0.434939 0.879736 0.310205 0.558418
C12   C     C_R   0.119975 0.554547 0.189810 0.561324
C13   C     C_1   0.003110 0.525243 0.018292 0.064885
C14   C     C_1   0.509783 0.978063 0.484537 0.039078
C15   C     C_1   0.477281 0.478940 0.018448 0.064574
C16   C     C_1   0.040517 0.509934 0.482247 0.039666
C17   C     C_1   0.516521 0.978921 0.016733 0.066646
C18   C     C_1   0.485906 0.468346 0.479011 0.040807
C19   C     C_1   0.511371 0.980326 0.522533 0.039438
C20   C     C_1   0.006682 0.526874 0.980371 0.066066
C21   C     C_1   0.485610 0.468066 0.517021 0.044263
C22   C     C_1   0.517512 0.980206 0.978757 0.066739
C23   C     C_1   0.023830 0.503683 0.519414 0.069729
C24   C     C_1   0.475588 0.479841 0.980466 0.066143
C25   C     C_R   0.949872 0.482058 0.849216 -0.018427
C26   C     C_R   0.525252 0.042491 0.653426 -0.029068
C27   C     C_R   0.518891 0.467131 0.849244 -0.018434
C28   C     C_R   0.914677 0.458583 0.645752 0.004202
C29   C     C_R   0.531502 0.048546 0.848358 -0.017192
C30   C     C_R   0.521704 0.468994 0.650186 -0.032739
C31   C     C_R   0.479548 0.940786 0.351051 -0.019698
C32   C     C_R   0.052868 0.533128 0.150016 -0.017980
C33   C     C_R   0.471120 0.517627 0.348067 -0.023208
C34   C     C_R   0.478970 0.941534 0.149483 -0.013700
C35   C     C_R   0.057928 0.535134 0.349548 -0.010562
C36   C     C_R   0.467285 0.520977 0.150098 -0.017915
C37   C     C_R   0.971263 0.585333 0.867070 -0.025101
C38   C     C_R   0.603479 0.016118 0.636620 -0.019160
C39   C     C_R   0.415787 0.384621 0.867103 -0.021789
C40   C     C_R   0.838862 0.441500 0.612270 -0.017080
C41   C     C_R   0.612398 0.024378 0.865352 -0.020099
C42   C     C_R   0.420046 0.387068 0.631739 -0.010344
C43   C     C_R   0.565651 0.934127 0.372568 -0.029804
C44   C     C_R   0.031351 0.614884 0.132044 -0.022620
C45   C     C_R   0.389655 0.414866 0.365565 -0.027282
C46   C     C_R   0.575591 0.949405 0.130817 -0.020916
C47   C     C_R   0.071930 0.626253 0.373857 -0.028718
C48   C     C_R   0.386607 0.417036 0.131991 -0.020886
C49   C     C_R   0.997330 0.604975 0.911089 -0.009453
C50   C     C_R   0.601209 0.995828 0.592383 -0.014288
C51   C     C_R   0.396900 0.390872 0.911118 -0.009678
C52   C     C_R   0.879328 0.468260 0.570398 -0.003493
C53   C     C_R   0.607451 0.997773 0.909207 -0.010729
C54   C     C_R   0.409282 0.382093 0.586857 0.003904
C55   C     C_R   0.563534 0.929501 0.417237 -0.016517
C56   C     C_R   0.007314 0.609561 0.087830 -0.013714
C57   C     C_R   0.393471 0.396252 0.409643 0.000930
C58   C     C_R   0.584349 0.953964 0.086106 -0.023833
C59   C     C_R   0.083107 0.622201 0.418178 -0.019015
C60   C     C_R   0.393399 0.398216 0.087956 -0.011359
C61   C     C_R   0.007836 0.525382 0.934890 0.007916
C62   C     C_R   0.510821 0.984280 0.568032 -0.000760
C63   C     C_R   0.476891 0.481588 0.934914 0.008084
C64   C     C_R   0.988917 0.493466 0.562334 0.007792
C65   C     C_R   0.516816 0.985051 0.933271 0.008486
C66   C     C_R   0.488819 0.471340 0.562596 0.002303
C67   C     C_R   0.505314 0.972024 0.439028 -0.004376
C68   C     C_R   0.000715 0.521594 0.063771 0.006721
C69   C     C_R   0.486285 0.472984 0.433474 -0.002302
C70   C     C_R   0.512886 0.977299 0.062231 0.007788
C71   C     C_R   0.048086 0.518714 0.437245 -0.010550
C72   C     C_R   0.480585 0.481203 0.063997 0.005476
C73   C     C_R   0.013301 0.439531 0.914771 0.267455
C74   C     C_R   0.418621 0.977783 0.587902 0.261131
C75   C     C_R   0.562566 0.573213 0.914736 0.265765
C76   C     C_R   0.062209 0.507075 0.595329 0.269332
C77   C     C_R   0.425748 0.982305 0.913510 0.267121
C78   C     C_R   0.573274 0.565550 0.582451 0.253405
C79   C     C_R   0.441548 0.007288 0.416575 0.257861
C80   C     C_R   0.996416 0.430527 0.083636 0.267186
C81   C     C_R   0.579254 0.557108 0.413135 0.249901
C82   C     C_R   0.436666 0.998815 0.082464 0.266047
C83   C     C_R   0.003372 0.422081 0.412734 0.237513
C84   C     C_R   0.570469 0.570079 0.084033 0.264543
C85   C     C_R   0.986601 0.418676 0.871867 0.232297
C86   C     C_R   0.425455 0.007894 0.630417 0.235494
C87   C     C_R   0.582880 0.567408 0.871884 0.228445
C88   C     C_R   0.025848 0.492913 0.637181 0.240102
C89   C     C_R   0.431778 0.012393 0.871079 0.229538
C90   C     C_R   0.591324 0.564693 0.625942 0.221711
C91   C     C_R   0.424334 0.987152 0.372880 0.239173
C92   C     C_R   0.019606 0.434455 0.126802 0.232015
C93   C     C_R   0.572203 0.579861 0.370490 0.232628
C94   C     C_R   0.417481 0.978669 0.125859 0.228905
C95   C     C_R   0.010014 0.430460 0.368696 0.240234
C96   C     C_R   0.566057 0.588224 0.127186 0.230694
Cr1   Cr    Cr6+3 0.504240 0.249200 0.750000 1.054109
Cr2   Cr    Cr6+3 0.744960 0.495760 0.750000 1.089150
Cr3   Cr    Cr6+3 0.750800 0.255040 0.750000 1.033405
Cr4   Cr    Cr6+3 0.249200 0.504240 0.250000 1.038627
Cr5   Cr    Cr6+3 0.495760 0.744960 0.250000 1.055724
Cr6   Cr    Cr6+3 0.255040 0.750800 0.250000 1.053924
O1    O     O_R   0.480350 0.140770 0.796330 -0.441730
O2    O     O_R   0.660420 0.519650 0.703670 -0.433415
O3    O     O_R   0.859230 0.339580 0.796330 -0.439877
O4    O     O_R   0.480350 0.140770 0.703670 -0.439442
O5    O     O_R   0.660420 0.519650 0.796330 -0.445805
O6    O     O_R   0.859230 0.339580 0.703670 -0.485027
O7    O     O_R   0.140770 0.480350 0.296330 -0.466918
O8    O     O_R   0.519650 0.660420 0.203670 -0.444218
O9    O     O_R   0.339580 0.859230 0.296330 -0.445750
O10   O     O_R   0.140770 0.480350 0.203670 -0.439542
O11   O     O_R   0.519650 0.660420 0.296330 -0.442575
O12   O     O_R   0.339580 0.859230 0.203670 -0.445185
O13   O     O_R   0.514930 0.348530 0.793250 -0.519282
O14   O     O_R   0.833600 0.485070 0.706750 -0.483234
O15   O     O_R   0.651470 0.166400 0.793250 -0.518918
O16   O     O_R   0.514930 0.348530 0.706750 -0.519361
O17   O     O_R   0.833600 0.485070 0.793250 -0.516281
O18   O     O_R   0.651470 0.166400 0.706750 -0.525316
O19   O     O_R   0.348530 0.514930 0.293250 -0.517744
O20   O     O_R   0.485070 0.833600 0.206750 -0.518864
O21   O     O_R   0.166400 0.651470 0.293250 -0.517876
O22   O     O_R   0.348530 0.514930 0.206750 -0.518541
O23   O     O_R   0.485070 0.833600 0.293250 -0.518140
O24   O     O_R   0.166400 0.651470 0.206750 -0.519330
O25   O     O_3   0.666667 0.333333 0.750000 -0.262708
O26   O     O_3   0.333333 0.666667 0.250000 -0.249796
C97   C     C_3   0.971518 0.675192 0.839247 -0.253687
C98   C     C_3   0.057810 0.711610 0.804219 -0.359404
H1    H     H_    0.141441 0.743078 0.818270 0.205218
H2    H     H_    0.039784 0.642651 0.782360 0.178767
H3    H     H_    0.058058 0.778953 0.785582 0.183384
H4    H     H_    0.888434 0.649171 0.826185 0.216075
H5    H     H_    0.990966 0.750939 0.856640 0.168201
C99   C     C_3   0.678196 0.995486 0.665925 -0.275199
C100  C     C_3   0.634032 0.871764 0.670417 -0.390135
H6    H     H_    0.552086 0.831890 0.686143 0.175459
H7    H     H_    0.624157 0.831538 0.639275 0.223282
H8    H     H_    0.691961 0.858403 0.690310 0.195843
H9    H     H_    0.764928 0.039301 0.654620 0.158357
H10   H     H_    0.681513 0.024150 0.698596 0.168525
C101  C     C_3   0.325359 0.294366 0.839277 -0.244380
C102  C     C_3   0.288105 0.343420 0.803975 -0.380667
H11   H     H_    0.256449 0.395056 0.817772 0.210277
H12   H     H_    0.356795 0.394792 0.782150 0.150419
H13   H     H_    0.220537 0.275766 0.785311 0.164371
H14   H     H_    0.351504 0.237759 0.826437 0.217693
H15   H     H_    0.249757 0.237659 0.856645 0.168189
C103  C     C_3   0.715818 0.394222 0.621201 -0.241461
C104  C     C_3   0.640209 0.285210 0.598624 -0.452083
H16   H     H_    0.618820 0.298885 0.566384 0.150703
H17   H     H_    0.678809 0.232805 0.597571 0.163468
H18   H     H_    0.560701 0.240723 0.615792 0.145608
H19   H     H_    0.696030 0.376692 0.654960 0.173302
H20   H     H_    0.692279 0.455756 0.612609 0.160075
C105  C     C_3   0.699022 0.021471 0.836654 -0.243269
C106  C     C_3   0.645052 0.937797 0.800659 -0.390761
H21   H     H_    0.590403 0.854087 0.813797 0.203777
H22   H     H_    0.595514 0.959637 0.779471 0.148894
H23   H     H_    0.710170 0.935634 0.781437 0.157984
H24   H     H_    0.758309 0.104359 0.824352 0.210155
H25   H     H_    0.753219 0.997491 0.853251 0.169464
C107  C     C_3   0.321618 0.312252 0.659522 -0.270107
C108  C     C_3   0.230115 0.341357 0.655593 -0.390662
H26   H     H_    0.262496 0.427749 0.666266 0.236517
H27   H     H_    0.199219 0.333610 0.622722 0.192196
H28   H     H_    0.159465 0.285772 0.676021 0.164766
H29   H     H_    0.290103 0.224006 0.651960 0.195414
H30   H     H_    0.342693 0.322571 0.693548 0.168995
C109  C     C_3   0.664576 0.944269 0.348575 -0.269966
C110  C     C_3   0.773686 0.041083 0.364738 -0.367544
H31   H     H_    0.766946 0.116638 0.366115 0.243579
H32   H     H_    0.796027 0.025442 0.396605 0.183205
H33   H     H_    0.841621 0.055522 0.342921 0.191392
H34   H     H_    0.666297 0.866289 0.350273 0.216840
H35   H     H_    0.661282 0.963133 0.314754 0.173898
C111  C     C_3   0.029335 0.703455 0.159869 -0.247794
C112  C     C_3   0.941686 0.652199 0.194387 -0.381211
H36   H     H_    0.858636 0.600070 0.179850 0.202291
H37   H     H_    0.959056 0.600867 0.216309 0.156396
H38   H     H_    0.940522 0.718675 0.213075 0.170216
H39   H     H_    0.111806 0.760668 0.173436 0.213690
H40   H     H_    0.010286 0.759898 0.142339 0.167461
C113  C     C_3   0.309132 0.321976 0.336526 -0.262095
C114  C     C_3   0.191300 0.302120 0.338678 -0.351193
H41   H     H_    0.140693 0.235512 0.361396 0.167677
H42   H     H_    0.191843 0.378271 0.348537 0.205983
H43   H     H_    0.150846 0.276087 0.307159 0.186019
H44   H     H_    0.338088 0.339133 0.303302 0.154516
H45   H     H_    0.309357 0.244618 0.343976 0.197237
C115  C     C_3   0.671979 0.961125 0.158047 -0.245313
C116  C     C_3   0.711194 0.055613 0.190023 -0.384751
H46   H     H_    0.734335 0.134123 0.173392 0.203019
H47   H     H_    0.646326 0.039276 0.213580 0.155811
H48   H     H_    0.785077 0.065460 0.207283 0.176539
H49   H     H_    0.651355 0.882872 0.174016 0.224404
H50   H     H_    0.745724 0.981414 0.138974 0.171124
C117  C     C_3   0.063828 0.720327 0.353152 -0.272881
C118  C     C_3   0.964985 0.727398 0.369842 -0.370211
H51   H     H_    0.887383 0.647679 0.364390 0.223802
H52   H     H_    0.972683 0.746775 0.404061 0.190420
H53   H     H_    0.958821 0.793389 0.352739 0.194533
H54   H     H_    0.141971 0.799938 0.357428 0.205752
H55   H     H_    0.048207 0.707064 0.318710 0.175964
C119  C     C_3   0.297703 0.326007 0.159583 -0.246551
C120  C     C_3   0.348857 0.290234 0.194619 -0.385171
H56   H     H_    0.401146 0.259642 0.180579 0.207752
H57   H     H_    0.400249 0.359259 0.216546 0.149894
H58   H     H_    0.282106 0.222442 0.213208 0.166407
H59   H     H_    0.240454 0.351006 0.172702 0.216683
H60   H     H_    0.241204 0.250291 0.141978 0.167598
C121  C     C_3   0.990330 0.696705 0.065528 -0.283001
C122  C     C_3   0.100343 0.802575 0.058146 -0.387041
H61   H     H_    0.143770 0.838689 0.088454 0.216218
H62   H     H_    0.154587 0.785111 0.037982 0.194210
H63   H     H_    0.085237 0.864002 0.041797 0.192781
H64   H     H_    0.949008 0.666972 0.034392 0.161361
H65   H     H_    0.931570 0.713335 0.082873 0.211520
C123  C     C_3   0.616696 0.873709 0.441409 -0.254576
C124  C     C_3   0.528495 0.762625 0.459288 -0.403019
H66   H     H_    0.474449 0.772535 0.482205 0.160638
H67   H     H_    0.476556 0.707251 0.433257 0.144836
H68   H     H_    0.569082 0.722839 0.476023 0.237255
H69   H     H_    0.670125 0.855869 0.421166 0.200515
H70   H     H_    0.670227 0.928415 0.467244 0.162884
C125  C     C_3   0.308862 0.291953 0.065753 -0.282780
C126  C     C_3   0.201379 0.291692 0.056653 -0.388214
H71   H     H_    0.142045 0.213873 0.040242 0.187633
H72   H     H_    0.163059 0.298035 0.086300 0.221424
H73   H     H_    0.217779 0.362371 0.035960 0.198538
H74   H     H_    0.340789 0.280714 0.035270 0.166746
H75   H     H_    0.293514 0.217993 0.083958 0.214966
C127  C     C_3   0.134880 0.726633 0.445128 -0.251166
C128  C     C_3   0.248108 0.752472 0.461775 -0.392399
H76   H     H_    0.242076 0.687314 0.483361 0.184773
H77   H     H_    0.302889 0.761108 0.434989 0.138186
H78   H     H_    0.285515 0.831004 0.479646 0.230951
H79   H     H_    0.148180 0.800361 0.427414 0.188439
H80   H     H_    0.079726 0.717086 0.471921 0.182324
C129  C     C_3   0.663056 0.925805 0.063557 -0.278153
C130  C     C_3   0.768730 0.029614 0.049992 -0.385923
H81   H     H_    0.748897 0.081158 0.029173 0.183063
H82   H     H_    0.815266 0.079423 0.077930 0.223675
H83   H     H_    0.822265 0.006000 0.032418 0.175341
H84   H     H_    0.684158 0.873685 0.083498 0.216170
H85   H     H_    0.621751 0.873681 0.035358 0.181844
C131  C     C_3   0.299148 0.297930 0.431986 -0.256292
C132  C     C_3   0.217121 0.328480 0.450285 -0.419677
H86   H     H_    0.258072 0.395330 0.474141 0.161818
H87   H     H_    0.182510 0.357303 0.425000 0.191269
H88   H     H_    0.148218 0.255165 0.465750 0.190813
H89   H     H_    0.254821 0.225138 0.411112 0.192594
H90   H     H_    0.332004 0.268973 0.457955 0.184067
C133  C     C_3   0.695105 0.989858 0.570607 -0.258946
C134  C     C_3   0.780580 0.102358 0.553209 -0.425754
H91   H     H_    0.742530 0.129889 0.528768 0.167109
H92   H     H_    0.815094 0.164520 0.579066 0.156454
H93   H     H_    0.849273 0.096416 0.538442 0.185012
H94   H     H_    0.738031 0.960267 0.591704 0.190826
H95   H     H_    0.661928 0.928597 0.544454 0.180922
C135  C     C_3   0.011825 0.708000 0.933487 -0.280803
C136  C     C_3   0.900509 0.700529 0.941051 -0.390482
H96   H     H_    0.856561 0.692330 0.910794 0.218215
H97   H     H_    0.847634 0.628015 0.961190 0.188224
H98   H     H_    0.913829 0.776291 0.957492 0.196885
H99   H     H_    0.053718 0.720682 0.964554 0.167007
H100  H     H_    0.068918 0.784138 0.916085 0.216700
C137  C     C_3   0.317768 0.280917 0.564286 -0.278885
C138  C     C_3   0.361061 0.207778 0.547470 -0.384652
H101  H     H_    0.431684 0.253711 0.525737 0.159073
H102  H     H_    0.388257 0.175701 0.574234 0.197211
H103  H     H_    0.293916 0.137061 0.529888 0.230625
H104  H     H_    0.246464 0.228823 0.584718 0.170722
H105  H     H_    0.283455 0.306912 0.537876 0.153045
C139  C     C_3   0.698835 0.986135 0.931004 -0.280090
C140  C     C_3   0.804135 0.098095 0.936361 -0.393040
H106  H     H_    0.837499 0.137153 0.905351 0.216353
H107  H     H_    0.786730 0.154241 0.955351 0.191499
H108  H     H_    0.868151 0.087197 0.953016 0.192374
H109  H     H_    0.673805 0.948685 0.962760 0.167655
H110  H     H_    0.715656 0.927103 0.913988 0.218258
C141  C     C_3   0.809748 0.477144 0.534561 -0.238242
C142  C     C_3   0.763451 0.379532 0.503608 -0.401479
H111  H     H_    0.819493 0.397770 0.476446 0.199874
H112  H     H_    0.751175 0.303380 0.519255 0.161763
H113  H     H_    0.682685 0.363877 0.490710 0.170251
H114  H     H_    0.740417 0.485821 0.546647 0.182618
H115  H     H_    0.860782 0.555059 0.516831 0.190803
C143  C     C_3   0.294154 0.301600 0.933488 -0.281669
C144  C     C_3   0.302068 0.198176 0.941185 -0.390037
H116  H     H_    0.309919 0.162691 0.910991 0.218565
H117  H     H_    0.375119 0.218432 0.961425 0.191639
H118  H     H_    0.226475 0.135164 0.957575 0.194295
H119  H     H_    0.281992 0.330485 0.964519 0.165416
H120  H     H_    0.217410 0.281971 0.916044 0.213757
Cl1   Cl    Cl    0.003850 0.312690 0.150573 -0.588539
Cl2   Cl    Cl    0.337858 0.025931 0.345920 -0.565184
Cl3   Cl    Cl    0.687890 0.694979 0.151339 -0.583863
Cl4   Cl    Cl    0.952750 0.309676 0.337390 -0.604171
Cl5   Cl    Cl    0.318478 0.004453 0.149859 -0.588468
Cl6   Cl    Cl    0.693481 0.682639 0.345554 -0.594127
Cl7   Cl    Cl    0.306435 0.999752 0.653615 -0.487972
Cl8   Cl    Cl    0.002814 0.313689 0.847564 -0.585763
Cl9   Cl    Cl    0.708418 0.682354 0.647613 -0.531916
Cl10  Cl    Cl    0.310866 0.000494 0.847410 -0.584794
Cl11  Cl    Cl    0.119676 0.518100 0.679187 -0.546850
Cl12  Cl    Cl    0.687939 0.688979 0.847604 -0.590274
Cl13  Cl    Cl    0.965156 0.311647 0.053612 -0.586069
Cl14  Cl    Cl    0.375432 0.068289 0.443820 -0.596437
Cl15  Cl    Cl    0.688720 0.661838 0.054409 -0.559924
Cl16  Cl    Cl    0.942328 0.290791 0.437116 -0.646456
Cl17  Cl    Cl    0.360489 0.045753 0.052788 -0.576488
Cl18  Cl    Cl    0.704473 0.636611 0.441594 -0.556677
Cl19  Cl    Cl    0.294748 0.935046 0.558919 -0.530537
Cl20  Cl    Cl    0.050357 0.354966 0.944074 -0.573616
Cl21  Cl    Cl    0.663880 0.682496 0.551997 -0.538872
Cl22  Cl    Cl    0.304422 0.945364 0.942873 -0.579658
Cl23  Cl    Cl    0.200514 0.544021 0.584194 -0.562140
Cl24  Cl    Cl    0.647427 0.695407 0.943910 -0.570768

loop_
_geom_bond_atom_site_label_1
_geom_bond_atom_site_label_2
_ccdc_geom_bond_type
C105  C106  S    
C82   C94   A    
C18   C21   T    
Cr5   O11   S    
C144  H116  S    
C79   Cl14  S    
C35   C47   A    
C29   C89   A    
C121  H65   S    
C113  H44   S    
C5    O3    A    
C45   C57   A    
C5    O17   A    
C142  H111  S    
C10   O22   A    
C12   O24   A    
C28   C40   A    
C101  C102  S    
C134  H93   S    
C117  H55   S    
Cr5   O26   S    
C33   C45   A    
C50   C133  S    
C2    O14   A    
C120  H58   S    
C130  H82   S    
C38   C99   S    
Cr1   O13   S    
C110  H33   S    
C8    O12   A    
Cr4   O7    S    
C7    C33   S    
Cr6   O9    S    
C16   C71   S    
C126  H71   S    
C125  H75   S    
C100  H8    S    
C130  H83   S    
C65   C77   A    
C67   C79   A    
C119  C120  S    
C58   C70   A    
Cr5   O8    S    
Cr4   O22   S    
C80   C92   A    
C99   H9    S    
Cr6   O12   S    
C125  C126  S    
C77   C89   A    
C6    O4    A    
C40   C103  S    
C72   C84   A    
C5    C25   S    
C23   C64   S    
C83   Cl16  S    
C24   C63   S    
C117  H54   S    
C138  H102  S    
Cr6   O21   S    
C3    O1    A    
C136  H97   S    
C13   C20   T    
C141  H114  S    
C129  H85   S    
C14   C19   T    
C142  H113  S    
C34   C94   A    
C102  H11   S    
C49   C135  S    
Cr5   O20   S    
C92   Cl1   S    
C98   H1    S    
C89   Cl10  S    
C45   C113  S    
C32   C92   A    
C139  H110  S    
C77   Cl22  S    
C4    O2    A    
C2    O6    A    
C9    O21   A    
C37   C97   S    
C104  H17   S    
C70   C82   A    
C47   C59   A    
C119  H60   S    
C81   Cl18  S    
C101  H15   S    
C118  H52   S    
C116  H46   S    
C60   C72   A    
C1    O13   A    
C114  H41   S    
C105  H24   S    
C126  H73   S    
C39   C51   A    
C21   C66   S    
C107  H30   S    
C54   C137  S    
C111  C112  S    
C15   C72   S    
C132  H86   S    
C31   C43   A    
C137  H104  S    
C143  H120  S    
C144  H117  S    
Cr4   O19   S    
Cr6   O26   S    
C42   C107  S    
C129  C130  S    
C20   C61   S    
C3    C29   S    
C97   H5    S    
C133  H95   S    
C134  H92   S    
Cr5   O23   S    
C14   C67   S    
C34   C46   A    
C53   C65   A    
C79   C91   A    
C18   C69   S    
C108  H27   S    
C140  H106  S    
C46   C58   A    
C47   C117  S    
C7    O19   A    
C102  H13   S    
C123  C124  S    
C110  H32   S    
C71   C83   A    
C32   C44   A    
C101  H14   S    
C93   Cl6   S    
C44   C111  S    
C135  H99   S    
C43   C109  S    
C131  H89   S    
C8    C34   S    
C91   Cl2   S    
C87   Cl12  S    
C56   C68   A    
C97   H4    S    
C96   Cl3   S    
C22   C65   S    
C124  H66   S    
Cr3   O15   S    
C128  H76   S    
C116  H48   S    
C73   C85   A    
C25   C85   A    
C123  H70   S    
C127  H80   S    
C27   C87   A    
C41   C53   A    
C1    O5    A    
C75   C87   A    
C15   C24   T    
C16   C23   T    
C115  H50   S    
C103  H19   S    
C128  H78   S    
C12   O10   A    
C97   C98   S    
C43   C55   A    
C133  H94   S    
C132  H88   S    
C29   C41   A    
Cr4   O26   S    
C30   C42   A    
C99   C100  S    
Cr6   O24   S    
C121  H64   S    
C135  C136  S    
C54   C66   A    
C109  H34   S    
C31   C91   A    
C142  H112  S    
C8    O20   A    
C6    C26   S    
C63   C75   A    
C36   C48   A    
C117  C118  S    
C139  C140  S    
C140  H108  S    
C141  C142  S    
C120  H57   S    
C103  C104  S    
C109  H35   S    
C84   Cl15  S    
C13   C68   S    
C95   Cl4   S    
C30   C90   A    
C126  H72   S    
C75   Cl24  S    
C90   Cl9   S    
C136  H96   S    
C76   Cl23  S    
C121  C122  S    
C78   C90   A    
C100  H7    S    
C78   Cl21  S    
C107  C108  S    
C11   O23   A    
C124  H68   S    
C82   Cl17  S    
C143  C144  S    
C99   H10   S    
C3    O15   A    
C106  H23   S    
C53   C139  S    
C104  H16   S    
C111  H39   S    
C112  H38   S    
C137  C138  S    
C106  H22   S    
C138  H103  S    
C57   C131  S    
C113  H45   S    
C9    O7    A    
C66   C78   A    
C49   C61   A    
C11   O9    A    
C120  H56   S    
C73   Cl20  S    
C51   C63   A    
C102  H12   S    
C74   Cl19  S    
C52   C64   A    
Cr3   O25   S    
C61   C73   A    
Cr2   O5    S    
C129  H84   S    
C98   H2    S    
Cr3   O6    S    
C37   C49   A    
C44   C56   A    
C130  H81   S    
C115  H49   S    
C41   C105  S    
Cr1   O4    S    
Cr4   O10   S    
C98   H3    S    
C127  C128  S    
C94   Cl5   S    
C114  H42   S    
C131  C132  S    
C26   C38   A    
C46   C115  S    
C33   C93   A    
C35   C95   A    
C17   C22   T    
C114  H43   S    
C80   Cl13  S    
C42   C54   A    
C52   C141  S    
C113  C114  S    
C10   O8    A    
C122  H62   S    
C69   C81   A    
C112  H36   S    
C85   Cl8   S    
C86   Cl7   S    
C9    C35   S    
C138  H101  S    
C62   C74   A    
C10   C36   S    
C68   C80   A    
C136  H98   S    
C109  C110  S    
C108  H26   S    
Cr1   O25   S    
Cr2   O17   S    
C141  H115  S    
C135  H100  S    
C131  H90   S    
C139  H109  S    
C19   C62   S    
C84   C96   A    
C104  H18   S    
Cr1   O16   S    
C25   C37   A    
Cr3   O18   S    
C119  H59   S    
C27   C39   A    
C118  H51   S    
C116  H47   S    
C28   C88   A    
C76   C88   A    
C125  H74   S    
C11   C31   S    
C17   C70   S    
C103  H20   S    
C12   C32   S    
C128  H77   S    
C4    O16   A    
C107  H29   S    
C6    O18   A    
C48   C60   A    
Cr3   O3    S    
C132  H87   S    
C137  H105  S    
C143  H119  S    
C144  H118  S    
C51   C143  S    
C122  H61   S    
C40   C52   A    
C58   C129  S    
C81   C93   A    
C36   C96   A    
Cr2   O14   S    
C26   C86   A    
C83   C95   A    
C134  H91   S    
C64   C76   A    
Cr1   O1    S    
C74   C86   A    
C56   C121  S    
C39   C101  S    
C108  H28   S    
C140  H107  S    
C50   C62   A    
C59   C127  S    
C133  C134  S    
C110  H31   S    
C105  H25   S    
Cr2   O25   S    
C122  H63   S    
C55   C67   A    
C55   C123  S    
C38   C50   A    
C100  H6    S    
C60   C125  S    
C115  C116  S    
C7    O11   A    
C124  H67   S    
C106  H21   S    
C118  H53   S    
Cr2   O2    S    
C123  H69   S    
C127  H79   S    
C4    C30   S    
C88   Cl11  S    
C48   C119  S    
C1    C27   S    
C2    C28   S    
C57   C69   A    
C111  H40   S    
C59   C71   A    
C112  H37   S    
