data_mof_unit_34490.cif
_audit_creation_date              2012-10-26T21:00:45-0400
_audit_creation_method            fapswitch 2.2
_symmetry_space_group_name_H-M    P1
_symmetry_Int_Tables_number       1
_space_group_crystal_system       triclinic
_cell_length_a                    10.902113
_cell_length_b                    9.637754
_cell_length_c                    10.81974
_cell_angle_alpha                 92.492189
_cell_angle_beta                  94.643211
_cell_angle_gamma                 89.382527
_cell_volume                      1132.01762847

loop_
_atom_site_label
_atom_site_type_symbol
_atom_type_description
_atom_site_fract_x
_atom_site_fract_y
_atom_site_fract_z
_atom_type_partial_charge
C1    C     C_R   0.261784 0.500093 0.503348 0.614006
C2    C     C_R   0.503776 0.504566 0.738340 0.571471
C3    C     C_R   0.270954 0.535979 0.079393 0.035832
C4    C     C_R   0.351112 0.706360 0.898421 0.052927
C5    C     C_R   0.186820 0.629445 0.019016 0.009231
C6    C     C_R   0.234713 0.732229 0.946898 0.034532
C7    C     C_R   0.419639 0.588048 0.937880 -0.069105
C8    C     C_R   0.395027 0.537782 0.051687 -0.038808
C9    C     C_R   0.494141 0.483677 0.126746 0.030338
C10   C     C_R   0.512742 0.518044 0.874359 0.053128
C11   C     C_R   0.600373 0.435368 0.071441 0.093133
C12   C     C_R   0.735760 0.498441 0.487483 0.574397
C13   C     C_R   0.604850 0.443315 0.942685 0.134341
C14   C     C_R   0.062159 0.369041 0.479924 0.108118
C15   C     C_R   0.933266 0.367892 0.468498 0.072733
C16   C     C_R   0.867745 0.494688 0.467495 -0.013133
C17   C     C_R   0.125300 0.497441 0.498878 0.028155
C18   C     C_2   0.227019 0.414249 0.140458 0.580531
C19   C     C_2   0.418986 0.823121 0.852652 0.670639
C20   C     C_2   0.051071 0.619096 0.025593 0.624761
C21   C     C_2   0.168602 0.868920 0.936972 0.641537
C22   C     C_2   0.881602 0.727350 0.368665 0.662254
C23   C     C_R   0.932013 0.618684 0.454686 0.027628
C24   C     C_2   0.099113 0.745855 0.579376 0.663930
C25   C     C_2   0.298613 0.863720 0.369447 0.654012
C26   C     C_2   0.689374 0.857023 0.642765 0.624652
C27   C     C_R   0.055963 0.622786 0.500360 -0.002094
C28   C     C_R   0.423876 0.070818 0.417754 0.190263
C29   C     C_R   0.582903 0.075327 0.577966 0.205197
C30   C     C_R   0.413512 0.925608 0.428137 0.197991
C31   C     C_R   0.586728 0.927308 0.572281 0.201702
C32   C     C_R   0.494763 0.495984 0.261892 0.564238
Cu1   Cu    Cu3+1 0.500000 0.640660 0.500000 1.129252
Cu2   Cu    Cu3+1 0.500000 0.359340 0.500000 0.997678
H1    H     H_    0.734647 0.447261 0.212416 0.253020
H2    H     H_    0.102594 0.183581 0.394812 0.279066
H3    H     H_    0.890546 0.192148 0.364150 0.250682
H4    H     H_    0.898557 0.172358 0.519621 0.250482
H5    H     H_    0.913281 0.899506 0.276292 0.351160
H6    H     H_    0.076289 0.948161 0.630035 0.367226
H7    H     H_    0.315274 0.220712 0.336609 0.308706
H8    H     H_    0.427422 0.154080 0.250189 0.262594
H9    H     H_    0.665980 0.249985 0.663574 0.310613
H10   H     H_    0.757226 0.116513 0.649888 0.235456
H11   H     H_    0.212030 0.716964 0.261521 0.363107
H12   H     H_    0.671212 0.287724 0.185197 0.260348
H13   H     H_    0.750583 0.752450 0.793099 0.363338
H14   H     H_    0.787155 0.431856 0.920903 0.277270
H15   H     H_    0.712546 0.278600 0.901709 0.269083
H16   H     H_    0.196822 0.207860 0.127944 0.355262
H17   H     H_    0.547875 0.970303 0.893422 0.360923
H18   H     H_    0.908466 0.577952 0.125164 0.351724
H19   H     H_    0.052251 0.006801 0.012743 0.346244
H20   H     H_    0.106509 0.182180 0.552778 0.254264
N1    N     N_R   0.500000 0.852070 0.500000 -0.293095
N2    N     N_R   0.500000 0.147940 0.500000 -0.237069
N3    N     N_3   0.702229 0.374899 0.143088 -0.625594
N4    N     N_3   0.706526 0.383905 0.882334 -0.612661
N5    N     N_3   0.128112 0.239312 0.477729 -0.558821
N6    N     N_3   0.869154 0.238302 0.449015 -0.590507
N7    N     N_3   0.361885 0.131184 0.311334 -0.591696
N8    N     N_3   0.667787 0.144151 0.668800 -0.604296
O1    O     O_R   0.319640 0.618740 0.499990 -0.465347
O2    O     O_R   0.238351 0.282411 0.083318 -0.679848
O3    O     O_2   0.390192 0.868309 0.750547 -0.429667
O4    O     O_R   0.512741 0.886046 0.930635 -0.656937
O5    O     O_2   0.981991 0.644530 0.934419 -0.506538
O6    O     O_R   0.001618 0.582039 0.134438 -0.654123
O7    O     O_2   0.182698 0.944478 0.851635 -0.464979
O8    O     O_R   0.091566 0.912765 0.028675 -0.661723
O9    O     O_2   0.778782 0.716024 0.315260 -0.515239
O10   O     O_R   0.956383 0.835595 0.338248 -0.593773
O11   O     O_2   0.181500 0.732055 0.661082 -0.486070
O12   O     O_R   0.680360 0.618740 0.500010 -0.466551
O13   O     O_R   0.039023 0.874142 0.569554 -0.588627
O14   O     O_2   0.201063 0.921902 0.387033 -0.467710
O15   O     O_R   0.298839 0.748432 0.288212 -0.665082
O16   O     O_2   0.792071 0.859939 0.605770 -0.499961
O17   O     O_R   0.672212 0.795308 0.754069 -0.657032
O18   O     O_R   0.319620 0.381170 0.499990 -0.475474
O19   O     O_R   0.680380 0.381170 0.500010 -0.502824
O20   O     O_R   0.500000 0.618810 0.319650 -0.430415
O21   O     O_R   0.500000 0.618810 0.680350 -0.458023
O22   O     O_R   0.499970 0.381240 0.319640 -0.545674
O23   O     O_R   0.500030 0.381240 0.680360 -0.497385
O24   O     O_2   0.179310 0.428618 0.238233 -0.513288

loop_
_geom_bond_atom_site_label_1
_geom_bond_atom_site_label_2
_ccdc_geom_bond_type
Cu1   N1    S    
C7    C10   A    
Cu2   N2    S    
C12   O12   A    
H16   O2    S    
C15   N6    S    
C20   O5    D    
C24   C27   S    
H13   O17   S    
H2    N5    S    
C28   N2    A    
C7    C8    A    
C5    C20   S    
C14   N5    S    
C18   O24   D    
C19   O4    S    
C25   O15   S    
C5    C6    A    
C24   O11   D    
C15   C16   A    
C2    O23   A    
C3    C18   S    
C9    C32   S    
Cu2   O18   S    
C4    C19   S    
C12   C16   S    
C8    C9    A    
H5    O10   S    
Cu2   O19   S    
C23   C27   A    
Cu1   O20   S    
H18   O6    S    
C28   N7    S    
C26   C31   S    
C14   C17   A    
C2    O21   A    
Cu2   O22   S    
C4    C7    A    
H19   O8    S    
C1    O1    A    
C22   O10   S    
H20   N5    S    
C32   O22   A    
C17   C27   A    
C4    C6    A    
C3    C8    A    
C13   N4    S    
H10   N8    S    
C6    C21   S    
H15   N4    S    
C21   O7    D    
H17   O4    S    
C9    C11   A    
Cu1   O1    S    
Cu1   Cu2   S    
C26   O16   D    
Cu1   O21   S    
H8    N7    S    
H4    N6    S    
C16   C23   A    
H12   N3    S    
C2    C10   S    
C22   O9    D    
C25   C30   S    
C29   N8    S    
C14   C15   A    
C20   O6    S    
C3    C5    A    
C10   C13   A    
C24   O13   S    
H14   N4    S    
C29   N2    A    
C32   O20   A    
C30   N1    A    
C1    C17   S    
C26   O17   S    
H6    O13   S    
C21   O8    S    
H1    N3    S    
C25   O14   D    
C28   C30   A    
C29   C31   A    
H7    N7    S    
C11   C13   A    
C18   O2    S    
C12   O19   A    
C19   O3    D    
H3    N6    S    
Cu1   O12   S    
C1    O18   A    
C22   C23   S    
H11   O15   S    
C31   N1    A    
C11   N3    S    
Cu2   O23   S    
H9    N8    S    
