data_mof_unit_32085.cif
_audit_creation_date              2012-12-10T19:43:23-0500
_audit_creation_method            fapswitch 2.2
_symmetry_space_group_name_H-M    P1
_symmetry_Int_Tables_number       1
_space_group_crystal_system       triclinic
_cell_length_a                    10.873518
_cell_length_b                    10.873125
_cell_length_c                    9.596192
_cell_angle_alpha                 89.797709
_cell_angle_beta                  90.440985
_cell_angle_gamma                 92.716595
_cell_volume                      1133.23506207

loop_
_atom_site_label
_atom_site_type_symbol
_atom_type_description
_atom_site_fract_x
_atom_site_fract_y
_atom_site_fract_z
_atom_type_partial_charge
C1    C     C_R   0.508509 0.262861 0.501139 0.818824
C2    C     C_R   0.215661 0.732649 0.023638 -0.120980
C3    C     C_R   0.934272 0.544030 0.385656 -0.246532
C4    C     C_R   0.871465 0.496331 0.502351 -0.075434
C5    C     C_R   0.938710 0.453443 0.617880 -0.009006
C6    C     C_R   0.066061 0.461913 0.614529 -0.228913
C7    C     C_R   0.128886 0.507803 0.497866 -0.091750
C8    C     C_R   0.062306 0.550845 0.382155 0.001962
C9    C     C_R   0.867265 0.459109 0.863771 -0.127134
C10   C     C_R   0.830475 0.398736 0.986513 -0.141388
C11   C     C_R   0.815123 0.270494 0.989282 -0.119165
C12   C     C_R   0.262708 0.504236 0.499156 0.813381
C13   C     C_R   0.836276 0.202586 0.869141 -0.151452
C14   C     C_R   0.868491 0.263079 0.744829 -0.148855
C15   C     C_R   0.883266 0.391970 0.741279 0.137415
C16   C     C_R   0.560168 0.117344 0.761723 -0.138533
C17   C     C_R   0.540776 0.056096 0.887898 -0.134436
C18   C     C_R   0.481479 0.940569 0.889003 -0.128345
C19   C     C_R   0.452726 0.881709 0.763501 -0.158058
C20   C     C_R   0.485800 0.936783 0.633951 0.098294
C21   C     C_R   0.521903 0.062805 0.633534 0.103931
C22   C     C_R   0.517130 0.128676 0.505336 -0.119226
C23   C     C_R   0.492333 0.737262 0.500803 0.767804
C24   C     C_R   0.505259 0.063996 0.379595 -0.215483
C25   C     C_R   0.495234 0.936812 0.379589 -0.226096
C26   C     C_R   0.485601 0.871565 0.505319 -0.116344
C27   C     C_R   0.659191 0.668445 0.144462 -0.167176
C28   C     C_R   0.734929 0.752694 0.072574 -0.229612
C29   C     C_R   0.734543 0.753046 0.928992 -0.210998
C30   C     C_R   0.659001 0.668566 0.856467 -0.132882
C31   C     C_R   0.577727 0.583304 0.925343 0.168281
C32   C     C_R   0.577736 0.583242 0.074938 0.198271
C33   C     C_R   0.425962 0.421525 0.075195 -0.074537
C34   C     C_R   0.737460 0.496838 0.500891 0.767024
C35   C     C_R   0.425382 0.420784 0.928130 0.223532
C36   C     C_R   0.231274 0.786483 0.154992 -0.127420
C37   C     C_R   0.184541 0.725545 0.273061 -0.110616
C38   C     C_R   0.121650 0.610347 0.259746 0.125339
C39   C     C_R   0.108575 0.555725 0.127809 -0.142035
C40   C     C_R   0.155766 0.616790 0.010131 -0.133473
Cu1   Cu    Cu3+1 0.499990 0.499990 0.640660 0.948815
Cu2   Cu    Cu3+1 0.500010 0.500010 0.359340 0.939182
H1    H     H_    0.248440 0.781347 0.932147 0.123470
H2    H     H_    0.788464 0.223679 0.084881 0.127468
H3    H     H_    0.826452 0.103068 0.871919 0.136472
H4    H     H_    0.885606 0.209488 0.652645 0.127595
H5    H     H_    0.504568 0.111629 0.280246 0.162759
H6    H     H_    0.607435 0.206379 0.767198 0.183175
H7    H     H_    0.568213 0.100144 0.985016 0.133309
H8    H     H_    0.460172 0.895286 0.987087 0.133126
H9    H     H_    0.401850 0.794574 0.770474 0.158891
H10   H     H_    0.493908 0.889622 0.280307 0.165340
H11   H     H_    0.365439 0.357640 0.131842 0.161665
H12   H     H_    0.277627 0.876333 0.164981 0.127868
H13   H     H_    0.669742 0.673403 0.254276 0.202159
H14   H     H_    0.795739 0.817013 0.129006 0.155149
H15   H     H_    0.795171 0.817516 0.873075 0.149602
H16   H     H_    0.670513 0.672502 0.746853 0.201492
H17   H     H_    0.194946 0.769035 0.374131 0.106761
H18   H     H_    0.061277 0.466466 0.116334 0.143448
H19   H     H_    0.144557 0.575111 0.908348 0.144373
H20   H     H_    0.883656 0.579731 0.297797 0.150650
H21   H     H_    0.116146 0.428887 0.703446 0.188756
H22   H     H_    0.886391 0.557619 0.864715 0.134750
H23   H     H_    0.817108 0.451056 0.080411 0.142219
N1    N     N_R   0.501190 0.501210 0.147910 -0.212419
N2    N     N_R   0.501230 0.501290 0.852040 -0.218055
O1    O     O_R   0.499990 0.319640 0.618810 -0.559924
O2    O     O_R   0.500000 0.319660 0.381240 -0.586238
O3    O     O_R   0.319640 0.500000 0.618780 -0.565070
O4    O     O_R   0.319650 0.500020 0.381210 -0.566956
O5    O     O_R   0.500000 0.680340 0.618760 -0.616097
O6    O     O_R   0.500010 0.680360 0.381190 -0.594530
O7    O     O_R   0.680350 0.499980 0.618790 -0.597624
O8    O     O_R   0.680360 0.500000 0.381220 -0.607040
I1    I     I_    0.299571 0.287457 0.840468 -0.422723

loop_
_geom_bond_atom_site_label_1
_geom_bond_atom_site_label_2
_ccdc_geom_bond_type
C16   C21   A    
C9    H22   S    
Cu1   Cu2   S    
C19   C20   A    
C16   H6    S    
C28   H14   S    
C7    C8    A    
C14   H4    S    
C31   N2    A    
Cu2   O8    S    
C37   C38   A    
C36   C37   A    
C5    C6    A    
C27   H13   S    
C10   H23   S    
C1    O1    A    
C18   C19   A    
C23   C26   S    
Cu1   O7    S    
C16   C17   A    
C9    C10   A    
C34   O8    A    
C1    C22   S    
C21   C22   A    
C8    C38   S    
C23   O6    A    
C33   N1    A    
Cu1   O1    S    
C33   H11   S    
C7    C12   S    
C4    C34   S    
C35   I1    S    
C38   C39   A    
C24   C25   A    
Cu1   N2    S    
C3    C8    A    
C17   H7    S    
C39   C40   A    
C25   C26   A    
Cu2   O2    S    
C1    O2    A    
C40   H19   S    
C6    H21   S    
C29   C30   A    
C19   H9    S    
C31   C32   A    
C35   N2    A    
C2    H1    S    
C17   C18   A    
C11   H2    S    
C37   H17   S    
C34   O7    A    
Cu1   O5    S    
C12   O4    A    
C29   H15   S    
C22   C24   A    
C3    C4    A    
C18   H8    S    
C32   N1    A    
C3    H20   S    
C2    C36   A    
C12   O3    A    
C28   C29   A    
Cu2   O6    S    
C27   C32   A    
C24   H5    S    
C23   O5    A    
C4    C5    A    
C6    C7    A    
C9    C15   A    
C25   H10   S    
C13   H3    S    
C11   C13   A    
C30   C31   A    
C20   C26   A    
C39   H18   S    
C30   H16   S    
Cu2   O4    S    
C33   C35   A    
C5    C15   S    
C36   H12   S    
C10   C11   A    
C2    C40   A    
C20   C21   A    
C27   C28   A    
Cu2   N1    S    
C14   C15   A    
C13   C14   A    
Cu1   O3    S    
