data_mof_unit_51438.cif
_audit_creation_date              2012-10-26T20:51:08-0400
_audit_creation_method            fapswitch 2.2
_symmetry_space_group_name_H-M    P1
_symmetry_Int_Tables_number       1
_space_group_crystal_system       triclinic
_cell_length_a                    12.942823
_cell_length_b                    10.859387
_cell_length_c                    9.603529
_cell_angle_alpha                 90.661161
_cell_angle_beta                  95.447662
_cell_angle_gamma                 91.498201
_cell_volume                      1343.09757699

loop_
_atom_site_label
_atom_site_type_symbol
_atom_type_description
_atom_site_fract_x
_atom_site_fract_y
_atom_site_fract_z
_atom_type_partial_charge
C1    C     C_R   0.497899 0.262660 0.498767 0.551541
C2    C     C_R   0.489739 0.934447 0.370689 -0.112460
C3    C     C_R   0.491602 0.871454 0.498402 0.044969
C4    C     C_R   0.301008 0.502135 0.474266 0.616527
C5    C     C_R   0.475278 0.938963 0.618961 0.072604
C6    C     C_3   0.531703 0.941584 0.762170 -0.283283
C7    C     C_3   0.529209 0.080681 0.759020 -0.248079
C8    C     C_R   0.583279 0.547797 0.084476 0.178482
C9    C     C_R   0.424676 0.440477 0.067060 0.023158
C10   C     C_R   0.423624 0.437024 0.919328 0.352913
C11   C     C_R   0.583503 0.546110 0.937250 0.078072
C12   C     C_R   0.025284 0.553950 0.544520 0.046543
C13   C     C_3   0.626019 0.673368 0.934380 -0.245904
C14   C     C_3   0.623539 0.678760 0.091868 0.122660
C15   C     C_R   0.500305 0.737881 0.500503 0.596155
C16   C     C_R   0.698998 0.500623 0.525720 0.552241
C17   C     C_R   0.811222 0.510416 0.540315 0.042078
C18   C     C_R   0.188302 0.499726 0.459126 0.017234
C19   C     C_R   0.030294 0.394361 0.363787 -0.109110
C20   C     C_R   0.137229 0.409618 0.370568 -0.149017
C21   C     C_R   0.131764 0.580250 0.537641 0.263810
C22   C     C_R   0.974202 0.463747 0.452272 0.021278
C23   C     C_R   0.867235 0.444683 0.448897 -0.060498
C24   C     C_R   0.862113 0.591200 0.640123 -0.111271
C25   C     C_R   0.968436 0.613030 0.642329 -0.059452
C26   C     C_R   0.473508 0.065680 0.616809 0.073013
C27   C     C_R   0.487297 0.129646 0.494988 0.013151
C28   C     C_R   0.487745 0.062859 0.368921 -0.143649
Cu1   Cu    Cu3+1 0.499990 0.499980 0.640670 1.080645
Cu2   Cu    Cu3+1 0.500010 0.500020 0.359330 1.020716
H1    H     H_    0.611777 0.906565 0.763474 0.136406
H2    H     H_    0.492082 0.109273 0.270333 0.151633
H3    H     H_    0.494333 0.885652 0.272854 0.143865
H4    H     H_    0.482721 0.903332 0.841191 0.163579
H5    H     H_    0.827198 0.379556 0.374525 0.133976
H6    H     H_    0.152969 0.397651 0.778444 0.356379
H7    H     H_    0.852397 0.779479 0.038657 0.349961
H8    H     H_    0.819062 0.640855 0.712987 0.118742
H9    H     H_    0.005353 0.674465 0.722472 0.197418
H10   H     H_    0.141304 0.906332 0.646770 0.382002
H11   H     H_    0.479422 0.120418 0.835361 0.193271
H12   H     H_    0.607387 0.125516 0.757999 0.143134
H13   H     H_    0.363111 0.396510 0.118565 0.176586
H14   H     H_    0.704408 0.676573 0.896450 0.140178
H15   H     H_    0.568949 0.732672 0.879093 0.121682
H16   H     H_    0.566520 0.744587 0.125952 0.107217
H17   H     H_    0.991970 0.324954 0.293500 0.149537
H18   H     H_    0.180609 0.349621 0.307988 0.153286
N1    N     N_R   0.500660 0.500930 0.148010 -0.304226
N2    N     N_R   0.500660 0.500890 0.852110 -0.260425
O1    O     O_R   0.500000 0.319640 0.618810 -0.470456
O2    O     O_2   0.278531 0.258022 0.939865 -0.330207
O3    O     O_3   0.214921 0.450457 0.808028 -0.488940
O4    O     O_2   0.741317 0.730367 0.333161 -0.241478
O5    O     O_2   0.811326 0.584199 0.172083 -0.301235
O6    O     O_3   0.813367 0.817384 0.111208 -0.493223
O7    O     O_2   0.237341 0.703465 0.753932 -0.240693
O8    O     O_2   0.273529 0.763079 0.517763 -0.299881
O9    O     O_3   0.102306 0.832878 0.605561 -0.517164
O10   O     O_R   0.500010 0.319680 0.381230 -0.529600
O11   O     O_R   0.348990 0.499960 0.599490 -0.386654
O12   O     O_R   0.349000 0.500000 0.361910 -0.523056
O13   O     O_R   0.499990 0.680320 0.618770 -0.495862
O14   O     O_R   0.500000 0.680360 0.381190 -0.497671
O15   O     O_R   0.651000 0.500000 0.638090 -0.532867
O16   O     O_R   0.651010 0.500040 0.400510 -0.453163
O17   O     O_2   0.328365 0.284917 0.706257 -0.276144
S1    S     S_3+6 0.312382 0.352402 0.838841 0.023658
S2    S     S_3+6 0.750535 0.699571 0.182084 0.023221
S3    S     S_3+6 0.190346 0.721497 0.606690 0.032148

loop_
_geom_bond_atom_site_label_1
_geom_bond_atom_site_label_2
_ccdc_geom_bond_type
C24   H8    S    
C15   O14   A    
Cu1   O13   S    
C6    C7    S    
C16   O15   A    
C10   S1    S    
O7    S3    D    
C18   C21   A    
C11   C13   S    
C9    C10   A    
C21   S3    S    
C7    H12   S    
C23   H5    S    
C19   C20   A    
O2    S1    D    
C12   C25   A    
C4    C18   S    
C7    H11   S    
C2    C3    A    
C3    C15   S    
C14   H16   S    
C11   N2    A    
C17   C23   A    
C13   C14   S    
C25   H9    S    
C2    C28   A    
C13   H15   S    
C1    O1    A    
O6    S2    S    
C26   C27   A    
O5    S2    D    
O4    S2    D    
C7    C26   S    
C8    C11   A    
Cu1   O15   S    
C12   C21   A    
C2    H3    S    
Cu2   O16   S    
Cu2   N1    S    
C6    H1    S    
C18   C20   A    
Cu1   N2    S    
Cu2   O12   S    
C12   C22   A    
C5    C6    S    
C14   S2    S    
C19   H17   S    
C9    H13   S    
C17   C24   A    
C16   O16   A    
Cu1   O11   S    
O9    S3    S    
Cu1   Cu2   S    
O17   S1    D    
C10   N2    A    
C4    O12   A    
C28   H2    S    
C19   C22   A    
C9    N1    A    
C24   C25   A    
C6    H4    S    
C1    C27   S    
Cu2   O14   S    
Cu1   O1    S    
C1    O10   A    
C27   C28   A    
H10   O9    S    
O3    S1    S    
C15   O13   A    
C22   C23   A    
O8    S3    D    
C8    C14   S    
H6    O3    S    
C20   H18   S    
C8    N1    A    
H7    O6    S    
C4    O11   A    
C13   H14   S    
C5    C26   A    
C16   C17   S    
C3    C5    A    
Cu2   O10   S    
