data_mof_unit_8887.cif
_audit_creation_date              2012-12-10T17:12:00-0500
_audit_creation_method            fapswitch 2.2
_symmetry_space_group_name_H-M    P1
_symmetry_Int_Tables_number       1
_space_group_crystal_system       triclinic
_cell_length_a                    11.824388
_cell_length_b                    12.972749
_cell_length_c                    15.513047
_cell_angle_alpha                 96.923552
_cell_angle_beta                  74.296827
_cell_angle_gamma                 102.17388
_cell_volume                      2234.19130288

loop_
_atom_site_label
_atom_site_type_symbol
_atom_type_description
_atom_site_fract_x
_atom_site_fract_y
_atom_site_fract_z
_atom_type_partial_charge
C1    C     C_R   0.525263 0.701688 0.498567 0.793219
C2    C     C_R   0.474841 0.298037 0.500982 0.867822
C3    C     C_R   0.420082 0.330208 0.052151 -0.110305
C4    C     C_R   0.669057 0.485384 0.896315 -0.099605
C5    C     C_R   0.333674 0.301766 0.000717 -0.059277
C6    C     C_R   0.740704 0.542969 0.951546 -0.037597
C7    C     C_R   0.453500 0.181373 0.503745 -0.151901
C8    C     C_R   0.547419 0.817752 0.493877 -0.166089
C9    C     C_R   0.634364 0.996748 0.539857 0.138097
C10   C     C_R   0.369051 0.002521 0.454148 0.116425
C11   C     C_R   0.634921 0.887824 0.530265 -0.101026
C12   C     C_R   0.365605 0.111192 0.467561 -0.123362
C13   C     C_R   0.479146 0.859711 0.450931 0.135233
C14   C     C_R   0.524036 0.138816 0.544035 0.134201
C15   C     C_R   0.463523 0.965207 0.472894 0.006395
C16   C     C_R   0.540474 0.033966 0.520413 -0.006228
C17   C     C_R   0.945666 0.605843 0.582830 0.165130
C18   C     C_R   0.054803 0.395649 0.415931 0.026720
C19   C     C_R   0.823839 0.587324 0.581296 0.161525
C20   C     C_R   0.176232 0.415722 0.417055 0.166805
C21   C     C_R   0.860759 0.461852 0.456975 0.134892
C22   C     C_R   0.138003 0.536453 0.544186 0.136804
C23   C     C_R   0.426969 0.488289 0.668450 0.807881
C24   C     C_R   0.573381 0.509474 0.331390 0.808042
C25   C     C_R   0.977683 0.462722 0.468358 -0.029768
C26   C     C_R   0.020973 0.535868 0.532608 -0.061285
C27   C     C_R   0.385488 0.456596 0.762858 -0.090115
C28   C     C_R   0.621065 0.520166 0.233251 -0.159469
C29   C     C_R   0.248315 0.355405 0.885267 0.121146
C30   C     C_R   0.785001 0.569542 0.101752 0.222171
C31   C     C_R   0.272051 0.395158 0.799843 -0.079929
C32   C     C_R   0.738555 0.574287 0.196204 -0.084993
C33   C     C_R   0.469990 0.478754 0.813739 -0.246018
C34   C     C_R   0.550471 0.468925 0.176257 -0.214841
C35   C     C_R   0.455691 0.425462 0.890663 0.055423
C36   C     C_R   0.592799 0.467238 0.082388 0.034599
C37   C     C_R   0.343849 0.360965 0.926667 0.084273
C38   C     C_R   0.707113 0.527864 0.044924 0.029611
C39   C     C_R   0.548299 0.441619 0.936036 0.005825
C40   C     C_R   0.518346 0.414541 0.025636 0.005135
Cu1   Cu    Cu3+1 0.386820 0.492450 0.493500 1.034432
Cu2   Cu    Cu3+1 0.613180 0.507550 0.506500 0.965158
H1    H     H_    0.459520 0.433457 0.206200 0.172879
H2    H     H_    0.550061 0.536324 0.790743 0.178196
N1    N     N_R   0.216750 0.481110 0.483710 -0.226524
N2    N     N_R   0.783250 0.518890 0.516290 -0.268595
O1    O     O_R   0.419950 0.645670 0.495380 -0.591887
O2    O     O_R   0.580050 0.354330 0.504620 -0.603039
O3    O     O_R   0.611110 0.658410 0.506370 -0.586068
O4    O     O_R   0.388890 0.341590 0.493630 -0.478752
O5    O     O_R   0.350820 0.490050 0.621260 -0.571964
O6    O     O_R   0.649180 0.509950 0.378740 -0.605964
O7    O     O_R   0.541970 0.502800 0.632250 -0.612905
O8    O     O_R   0.458030 0.497200 0.367750 -0.544411
C41   C     C_2   0.247771 0.200165 0.013836 0.505885
H3    H     H_    0.188807 0.182625 0.079299 0.144188
O9    O     O_2   0.242475 0.134946 0.950645 -0.475659
C42   C     C_2   0.827680 0.637618 0.914356 0.507166
H4    H     H_    0.882220 0.635569 0.846013 0.180447
O10   O     O_2   0.834144 0.721920 0.958969 -0.489167
C43   C     C_2   0.257161 0.371166 0.338238 0.460181
H5    H     H_    0.248123 0.380153 0.271860 0.072993
O11   O     O_2   0.327644 0.318522 0.344966 -0.544685
C44   C     C_2   0.741755 0.644666 0.650791 0.398737
H6    H     H_    0.667747 0.669627 0.637608 0.108353
O12   O     O_2   0.755037 0.664029 0.726718 -0.574403
I1    I     I_    0.016076 0.759002 0.639333 -0.168855
I2    I     I_    0.994281 0.247421 0.347080 -0.227897
C45   C     C_2   0.804894 0.645336 0.256572 0.535303
H7    H     H_    0.755431 0.686109 0.315323 0.086567
O13   O     O_2   0.913117 0.658073 0.243715 -0.442754
C46   C     C_2   0.178550 0.367214 0.749815 0.503478
H8    H     H_    0.091622 0.388790 0.778338 0.139350
O14   O     O_2   0.195970 0.314926 0.678277 -0.451194
I3    I     I_    0.063830 0.302706 0.953909 -0.232879
I4    I     I_    0.976244 0.597705 0.046729 -0.116394
C47   C     C_2   0.425395 0.259079 0.119417 0.364479
H9    H     H_    0.511308 0.255035 0.130139 0.115565
O15   O     O_2   0.335730 0.206811 0.164822 -0.533567
C48   C     C_2   0.725379 0.452094 0.801468 0.416910
H10   H     H_    0.671185 0.410523 0.757550 0.116997
O16   O     O_2   0.833786 0.463710 0.772724 -0.513534
I5    I     I_    0.541986 0.213938 0.671757 -0.263412
I6    I     I_    0.459690 0.778823 0.324923 -0.259580
C49   C     C_2   0.262335 0.145887 0.451272 0.572951
H11   H     H_    0.239334 0.123936 0.387524 0.118873
O17   O     O_2   0.196854 0.192106 0.510912 -0.439150
C50   C     C_2   0.733862 0.851775 0.551893 0.431562
H12   H     H_    0.749361 0.870410 0.618310 0.099443
O18   O     O_2   0.803856 0.807929 0.493852 -0.492535
I7    I     I_    0.792899 0.102507 0.561213 -0.180729
I8    I     I_    0.213195 0.896602 0.427854 -0.174707
C51   C     C_2   0.170434 0.587286 0.626499 0.470697
H13   H     H_    0.252616 0.643854 0.623351 0.092699
O19   O     O_2   0.104069 0.566086 0.699976 -0.539546
C52   C     C_2   0.827773 0.411619 0.374820 0.494738
H14   H     H_    0.748898 0.350820 0.378020 0.090894
O20   O     O_2   0.889532 0.438773 0.301448 -0.503929

loop_
_geom_bond_atom_site_label_1
_geom_bond_atom_site_label_2
_ccdc_geom_bond_type
C24   O6    A    
C41   H3    S    
C46   O14   D    
C51   H13   S    
C5    C37   A    
C1    C8    S    
Cu1   Cu2   S    
C6    C42   S    
C2    C7    S    
C9    I7    S    
C19   N2    A    
C47   H9    S    
C27   C33   A    
C13   I6    S    
C8    C13   A    
C12   C49   S    
C17   C26   A    
C35   C37   A    
C9    C16   A    
C4    C48   S    
C10   C15   A    
Cu2   O7    S    
C18   I2    S    
C15   C16   A    
C30   C38   A    
C43   O11   D    
Cu2   N2    S    
C20   C43   S    
C45   O13   D    
C2    O4    A    
C17   C19   A    
C7    C14   A    
C52   O20   D    
C6    C38   A    
C23   C27   S    
C19   C44   S    
C34   C36   A    
C20   N1    A    
C46   H8    S    
C47   O15   D    
C10   I8    S    
C51   O19   D    
C45   H7    S    
C18   C25   A    
C14   I5    S    
C23   O7    A    
C42   O10   D    
C49   O17   D    
C7    C12   A    
C17   I1    S    
C27   C31   A    
C36   C40   A    
C4    C6    A    
C39   C40   A    
C1    O1    A    
C2    O2    A    
C42   H4    S    
C49   H11   S    
C44   O12   D    
C35   C39   A    
C30   I4    S    
C23   O5    A    
C4    C39   A    
C28   C32   A    
C11   C50   S    
C52   H14   S    
Cu1   O1    S    
Cu2   O2    S    
C9    C11   A    
C10   C12   A    
C48   O16   D    
C31   C46   S    
C50   O18   D    
C3    C40   A    
C41   O9    D    
C22   C51   S    
C14   C16   A    
C3    C47   S    
Cu1   O4    S    
C21   N2    A    
C21   C25   A    
C33   H2    S    
C5    C41   S    
C34   H1    S    
C24   C28   S    
C48   H10   S    
C3    C5    A    
C32   C45   S    
C29   I3    S    
C21   C52   S    
C44   H6    S    
C13   C15   A    
C25   C26   A    
C29   C31   A    
C30   C32   A    
C1    O3    A    
C8    C11   A    
C36   C38   A    
C33   C35   A    
C18   C20   A    
C43   H5    S    
Cu1   O8    S    
Cu2   O3    S    
C28   C34   A    
C22   N1    A    
C50   H12   S    
C22   C26   A    
C29   C37   A    
Cu1   N1    S    
C24   O8    A    
Cu1   O5    S    
Cu2   O6    S    
