data_mof_unit_27402.cif
_audit_creation_date              2012-12-10T17:25:19-0500
_audit_creation_method            fapswitch 2.2
_symmetry_space_group_name_H-M    P1
_symmetry_Int_Tables_number       1
_space_group_crystal_system       triclinic
_cell_length_a                    27.821354
_cell_length_b                    10.905622
_cell_length_c                    9.567961
_cell_angle_alpha                 91.955159
_cell_angle_beta                  90.24092
_cell_angle_gamma                 93.025356
_cell_volume                      2897.22098717

loop_
_atom_site_label
_atom_site_type_symbol
_atom_type_description
_atom_site_fract_x
_atom_site_fract_y
_atom_site_fract_z
_atom_type_partial_charge
C1    C     C_R   0.502576 0.262680 0.497652 0.825927
C2    C     C_R   0.279208 0.489484 0.633325 0.488642
C3    C     C_R   0.253019 0.495968 0.508844 0.292789
C4    C     C_R   0.101461 0.494616 0.511844 -0.074792
C5    C     C_R   0.124506 0.381688 0.500757 -0.092556
C6    C     C_R   0.095654 0.270954 0.488001 0.217001
C7    C     C_R   0.129583 0.606090 0.522725 -0.030194
C8    C     C_R   0.354081 0.498725 0.499726 -0.117091
C9    C     C_R   0.645449 0.503407 0.501851 -0.033433
C10   C     C_R   0.971085 0.386806 0.515099 0.057505
C11   C     C_R   0.976966 0.612965 0.507789 0.043373
C12   C     C_R   0.407365 0.499614 0.499593 0.875023
C13   C     C_R   0.948788 0.500763 0.510928 0.072300
C14   C     C_R   0.941385 0.278404 0.528620 -0.198965
C15   C     C_R   0.891542 0.281396 0.530044 -0.136767
C16   C     C_R   0.869273 0.392424 0.518906 -0.023054
C17   C     C_R   0.897734 0.502503 0.509815 -0.045828
C18   C     C_R   0.875029 0.614297 0.499547 -0.023775
C19   C     C_R   0.824541 0.613786 0.497621 0.544870
C20   C     C_R   0.818924 0.396148 0.517640 0.538956
C21   C     C_R   0.721596 0.516662 0.378735 -0.096343
C22   C     C_R   0.671431 0.514642 0.376801 -0.210022
C23   C     C_R   0.498952 0.737911 0.503390 0.803347
C24   C     C_R   0.670563 0.494939 0.628741 -0.190149
C25   C     C_R   0.720684 0.496432 0.630221 -0.079718
C26   C     C_R   0.746284 0.507026 0.505302 0.353706
C27   C     C_R   0.022066 0.384848 0.506858 0.007173
C28   C     C_R   0.050330 0.496797 0.511839 0.076133
C29   C     C_R   0.027936 0.611179 0.516606 0.045946
C30   C     C_R   0.045717 0.274046 0.491191 -0.229063
C31   C     C_R   0.107193 0.717515 0.534239 -0.108122
C32   C     C_R   0.952986 0.723371 0.494607 -0.199262
C33   C     C_R   0.903061 0.723749 0.490678 -0.137486
C34   C     C_R   0.592501 0.500987 0.500415 0.775744
C35   C     C_R   0.057464 0.720327 0.531270 -0.188873
C36   C     C_R   0.550381 0.137642 0.722920 -0.122113
C37   C     C_R   0.556270 0.087488 0.853231 -0.082959
C38   C     C_R   0.535756 0.971733 0.878388 -0.096144
C39   C     C_R   0.513893 0.901033 0.769331 -0.155961
C40   C     C_R   0.511728 0.945963 0.632161 0.103630
C41   C     C_R   0.523498 0.072065 0.615660 0.064026
C42   C     C_R   0.507183 0.129159 0.494221 -0.165313
C43   C     C_R   0.489970 0.055348 0.378402 0.155214
C44   C     C_R   0.487951 0.929110 0.386383 -0.213255
C45   C     C_R   0.175458 0.385263 0.501543 0.615148
C46   C     C_R   0.498177 0.872464 0.510856 -0.142818
C47   C     C_R   0.567566 0.655902 0.150257 -0.198362
C48   C     C_R   0.602293 0.726174 0.080499 -0.251903
C49   C     C_R   0.602597 0.724487 0.936293 0.153935
C50   C     C_R   0.567534 0.654215 0.861686 -0.216601
C51   C     C_R   0.533420 0.575510 0.928229 0.157680
C52   C     C_R   0.533465 0.575674 0.077942 0.214111
C53   C     C_R   0.467230 0.431112 0.070771 0.006188
C54   C     C_R   0.467554 0.430041 0.922716 -0.040944
C55   C     C_R   0.179822 0.604098 0.522387 0.590866
C56   C     C_R   0.276744 0.503746 0.380848 -0.290803
C57   C     C_R   0.327222 0.505238 0.374445 0.411606
C58   C     C_R   0.329658 0.490918 0.628014 -0.393357
Cu1   Cu    Cu3+1 0.500000 0.499990 0.640660 0.936729
Cu2   Cu    Cu3+1 0.500000 0.500010 0.359340 0.984971
H1    H     H_    0.349767 0.485640 0.724622 0.178674
H2    H     H_    0.255577 0.508779 0.286108 0.160057
H3    H     H_    0.128150 0.803847 0.545625 0.213098
H4    H     H_    0.971760 0.811387 0.483566 0.142768
H5    H     H_    0.651546 0.486514 0.726773 0.167319
H6    H     H_    0.886503 0.810759 0.480559 0.188156
H7    H     H_    0.739692 0.489047 0.728316 0.143399
H8    H     H_    0.043285 0.809996 0.544062 0.153075
H9    H     H_    0.567126 0.227849 0.707192 0.154298
H10   H     H_    0.575382 0.140090 0.935977 0.153163
H11   H     H_    0.537598 0.935448 0.982090 0.163274
H12   H     H_    0.496874 0.814939 0.798108 0.175920
H13   H     H_    0.476548 0.874516 0.294220 0.193878
H14   H     H_    0.439929 0.376249 0.123612 0.183659
H15   H     H_    0.568947 0.669774 0.260551 0.211491
H16   H     H_    0.628475 0.784285 0.139341 0.188406
H17   H     H_    0.567588 0.668338 0.752552 0.218710
H18   H     H_    0.441015 0.372554 0.864721 0.152945
H19   H     H_    0.653080 0.521798 0.277612 0.166948
H20   H     H_    0.741321 0.524724 0.281874 0.143566
H21   H     H_    0.870479 0.195734 0.540041 0.193494
H22   H     H_    0.955498 0.189439 0.541945 0.143076
H23   H     H_    0.026090 0.186833 0.476475 0.154691
N1    N     N_R   0.201493 0.495048 0.511649 -0.444127
N2    N     N_R   0.797722 0.505706 0.506763 -0.472728
N3    N     N_R   0.500460 0.501210 0.147910 -0.199436
N4    N     N_R   0.500480 0.501290 0.852040 -0.201953
O1    O     O_R   0.500000 0.319640 0.618810 -0.587536
O2    O     O_2   0.791323 0.291159 0.526392 -0.520030
O3    O     O_2   0.206986 0.710377 0.532399 -0.502702
O4    O     O_2   0.802396 0.720319 0.487493 -0.514393
O5    O     O_R   0.500000 0.319660 0.381240 -0.547830
O6    O     O_R   0.430260 0.500010 0.618770 -0.595968
O7    O     O_R   0.430270 0.500030 0.381200 -0.516900
O8    O     O_R   0.500000 0.680340 0.618760 -0.614433
O9    O     O_R   0.500000 0.680360 0.381190 -0.598492
O10   O     O_R   0.569730 0.499970 0.618800 -0.607830
O11   O     O_R   0.569740 0.499990 0.381230 -0.600750
O12   O     O_2   0.199294 0.281094 0.492810 -0.470574
I1    I     I_    0.464501 0.117155 0.184327 -0.396643
O13   O     O_3   0.254645 0.481888 0.758073 -0.695704
H24   H     H_    0.278208 0.478089 0.835664 0.325139
I2    I     I_    0.654846 0.832751 0.829645 -0.353526
I3    I     I_    0.120875 0.090060 0.460047 -0.271948
O14   O     O_3   0.350566 0.513427 0.247634 -0.708122
H25   H     H_    0.326410 0.516922 0.171534 0.325913

loop_
_geom_bond_atom_site_label_1
_geom_bond_atom_site_label_2
_ccdc_geom_bond_type
C10   C27   A    
C57   O14   S    
C21   C26   A    
O13   H24   S    
C41   C42   A    
C48   H16   S    
C53   H14   S    
C25   H7    S    
C7    C55   A    
C15   H21   S    
C53   C54   A    
C56   C57   A    
C40   C46   A    
C5    C6    A    
C28   C29   A    
C22   H19   S    
C55   O3    S    
Cu2   O11   S    
C54   N4    A    
C9    C22   A    
C15   C16   A    
C34   O10   A    
C23   O9    A    
C18   C19   A    
C30   H23   S    
Cu1   O1    S    
C8    C58   A    
C16   C17   A    
C39   H12   S    
C53   N3    A    
C6    I3    S    
C8    C12   S    
C58   H1    S    
Cu1   Cu2   S    
C23   C46   S    
C21   C22   A    
C27   C30   A    
C12   O7    A    
C36   C41   A    
Cu1   O8    S    
C4    C7    A    
C4    C28   A    
C44   C46   A    
C33   H6    S    
C17   C18   A    
Cu2   O5    S    
C7    C31   A    
C51   C52   A    
C31   H3    S    
C24   C25   A    
C32   H4    S    
C45   O12   S    
C51   N4    A    
C39   C40   A    
Cu2   N3    S    
C2    O13   S    
C25   C26   A    
C5    C45   A    
C43   C44   A    
C37   C38   A    
C8    C57   A    
C3    C56   A    
C47   C48   A    
C16   C20   A    
C20   N2    A    
C50   C51   A    
C43   I1    S    
C24   H5    S    
Cu2   O9    S    
C48   C49   A    
C6    C30   A    
C11   C32   A    
C1    O5    A    
C10   C14   A    
C9    C34   S    
Cu1   O10   S    
C31   C35   A    
C12   O6    A    
C45   N1    A    
C42   C43   A    
C14   H22   S    
C50   H17   S    
C3    N1    S    
C36   H9    S    
C20   O2    S    
C38   H11   S    
C40   C41   A    
C4    C5    A    
C19   N2    A    
C10   C13   A    
C49   I2    S    
C2    C58   A    
C9    C24   A    
C47   C52   A    
O14   H25   S    
C29   C35   A    
C13   C17   A    
C32   C33   A    
C52   N3    A    
C2    C3    A    
C47   H15   S    
C11   C13   A    
C38   C39   A    
C35   H8    S    
C1    O1    A    
C26   N2    S    
C21   H20   S    
C34   O11   A    
C23   O8    A    
C56   H2    S    
C44   H13   S    
C18   C33   A    
Cu1   N4    S    
C19   O4    S    
C1    C42   S    
C11   C29   A    
C36   C37   A    
C49   C50   A    
C27   C28   A    
C14   C15   A    
Cu1   O6    S    
C55   N1    A    
C37   H10   S    
C54   H18   S    
Cu2   O7    S    
