data_mof_unit_19922.cif
_audit_creation_date              2012-12-10T17:02:55-0500
_audit_creation_method            fapswitch 2.2
_symmetry_space_group_name_H-M    P1
_symmetry_Int_Tables_number       1
_space_group_crystal_system       triclinic
_cell_length_a                    9.83256
_cell_length_b                    11.046499
_cell_length_c                    13.521289
_cell_angle_alpha                 94.070437
_cell_angle_beta                  81.988305
_cell_angle_gamma                 111.411559
_cell_volume                      1353.59196892

loop_
_atom_site_label
_atom_site_type_symbol
_atom_type_description
_atom_site_fract_x
_atom_site_fract_y
_atom_site_fract_z
_atom_type_partial_charge
C1    C     C_R   0.556583 0.745493 0.507374 0.861170
C2    C     C_R   0.373771 0.451586 0.794575 -0.092908
C3    C     C_2   0.588367 0.884787 0.511642 -0.337810
C4    C     C_R   0.422630 0.487314 0.689891 0.768834
C5    C     C_2   0.483964 0.930431 0.498945 -0.149460
C6    C     C_2   0.411256 0.115154 0.489149 -0.320067
C7    C     C_2   0.515291 0.069453 0.502639 -0.152175
C8    C     C_2   0.926266 0.493995 0.490966 -0.105515
C9    C     C_2   0.082795 0.515212 0.505461 -0.021077
C10   C     C_R   0.443303 0.254485 0.492873 0.877095
C11   C     C_R   0.575836 0.506847 0.309725 0.819515
C12   C     C_R   0.449026 0.435729 0.957376 0.096068
C13   C     C_R   0.786752 0.646462 0.069196 -0.177542
C14   C     C_R   0.619306 0.514992 0.201047 -0.114513
C15   C     C_R   0.249684 0.338674 0.813895 -0.163806
C16   C     C_R   0.233617 0.267158 0.897726 -0.141738
C17   C     C_R   0.337003 0.310792 0.965087 -0.128090
C18   C     C_2   0.891726 0.623622 0.632606 0.999866
C19   C     C_2   0.366046 0.363632 0.174128 0.833547
C20   C     C_R   0.470585 0.504199 0.868031 0.076882
C21   C     C_R   0.546449 0.491602 0.031704 0.004072
C22   C     C_R   0.679041 0.598188 0.004399 0.144320
C23   C     C_R   0.699983 0.661375 0.914894 -0.202309
C24   C     C_R   0.592560 0.620483 0.851204 -0.168368
C25   C     C_R   0.514355 0.453117 0.133432 -0.062672
C26   C     C_R   0.758123 0.603293 0.166239 -0.196526
Cu1   Cu    Cu3+1 0.362000 0.479240 0.482530 0.981692
Cu2   Cu    Cu3+1 0.638000 0.520760 0.517470 0.986682
H1    H     H_    0.839351 0.649545 0.216952 0.166484
H2    H     H_    0.302001 0.049506 0.475351 0.159836
H3    H     H_    0.880102 0.429976 0.429791 0.153277
H4    H     H_    0.974389 0.631805 0.762522 0.317713
H5    H     H_    0.890272 0.723901 0.046655 0.140948
H6    H     H_    0.147482 0.326027 0.196666 0.323514
H7    H     H_    0.145997 0.173115 0.907149 0.146064
H8    H     H_    0.624748 0.134839 0.516405 0.184031
H9    H     H_    0.374362 0.865022 0.485504 0.183229
H10   H     H_    0.697760 0.950455 0.525124 0.161838
H11   H     H_    0.139252 0.589730 0.557453 0.182235
H12   H     H_    0.100776 0.378048 0.406251 0.202388
H13   H     H_    0.796969 0.746983 0.896220 0.151879
H14   H     H_    0.175134 0.296924 0.758220 0.162281
H15   H     H_    0.330519 0.242007 0.019731 0.144754
H16   H     H_    0.608302 0.679202 0.786862 0.175011
N1    N     N_2   0.845330 0.551960 0.543750 -0.232535
N2    N     N_2   0.154690 0.448120 0.456210 -0.288320
O1    O     O_R   0.426290 0.668220 0.490680 -0.589403
O2    O     O_R   0.949187 0.572721 0.701621 -0.792062
O3    O     O_2   0.353389 0.265634 0.217175 -0.609905
O4    O     O_R   0.241871 0.393637 0.165349 -0.747556
O5    O     O_R   0.659360 0.703290 0.520190 -0.551023
O6    O     O_R   0.326580 0.473880 0.629020 -0.573187
O7    O     O_R   0.559660 0.508940 0.658530 -0.573340
O8    O     O_R   0.340640 0.296710 0.479810 -0.560396
O9    O     O_R   0.573710 0.331780 0.509320 -0.591749
O10   O     O_R   0.440340 0.491060 0.341470 -0.548193
O11   O     O_R   0.673420 0.526120 0.370980 -0.596606
O12   O     O_2   0.872715 0.726525 0.651212 -0.616371

loop_
_geom_bond_atom_site_label_1
_geom_bond_atom_site_label_2
_ccdc_geom_bond_type
C12   C17   A    
C6    C10   S    
C2    C4    S    
Cu2   O7    S    
C17   H15   S    
C13   H5    S    
C6    C7    D    
C10   O9    A    
C5    H9    S    
C4    O7    A    
H4    O2    S    
C7    H8    S    
C19   O3    D    
C23   H13   S    
C23   C24   A    
C12   C20   A    
Cu1   O8    S    
C9    N2    D    
C16   H7    S    
Cu2   O11   S    
C21   C22   A    
C14   C26   A    
H12   N2    S    
C2    C15   A    
C1    O5    A    
C19   O4    S    
C16   C17   A    
C4    O6    A    
C24   H16   S    
Cu1   N2    S    
C6    H2    S    
Cu2   O9    S    
C13   C22   A    
C22   C23   A    
C14   C25   A    
C19   C25   S    
Cu2   O5    S    
Cu2   N1    S    
H6    O4    S    
C13   C26   A    
C10   O8    A    
C2    C20   A    
C15   C16   A    
C18   N1    S    
C20   C24   A    
C9    H11   S    
Cu1   O6    S    
C3    H10   S    
C26   H1    S    
Cu1   O1    S    
C11   C14   S    
C5    C7    S    
C21   C25   A    
Cu1   O10   S    
C1    O1    A    
C3    C5    D    
C1    C3    S    
C11   O11   A    
C8    H3    S    
C12   C21   A    
C18   O12   D    
C11   O10   A    
C8    N1    D    
C15   H14   S    
C8    C9    S    
Cu1   Cu2   S    
C18   O2    S    
