data_mof_unit_11308.cif
_audit_creation_date              2012-12-11T15:48:13-0500
_audit_creation_method            fapswitch 2.2
_symmetry_space_group_name_H-M    P1
_symmetry_Int_Tables_number       1
_space_group_crystal_system       triclinic
_cell_length_a                    6.911584
_cell_length_b                    17.65989
_cell_length_c                    19.455496
_cell_angle_alpha                 108.730786
_cell_angle_beta                  89.521217
_cell_angle_gamma                 90.558299
_cell_volume                      2248.78535073

loop_
_atom_site_label
_atom_site_type_symbol
_atom_type_description
_atom_site_fract_x
_atom_site_fract_y
_atom_site_fract_z
_atom_type_partial_charge
O1    O     O_R   0.494330 0.415710 0.413720 -0.530851
O2    O     O_R   0.819360 0.430070 0.560210 -0.540479
O3    O     O_R   0.994320 0.584290 0.586280 -0.541297
C1    C     C_R   0.649744 0.417134 0.583831 0.749887
O4    O     O_R   0.823740 0.406290 0.412670 -0.543536
O5    O     O_R   0.998730 0.560340 0.437690 -0.546950
C2    C     C_R   0.654012 0.381370 0.385887 0.715186
O6    O     O_R   0.489920 0.439660 0.562310 -0.522951
O7    O     O_3   0.662330 0.550570 0.508380 -0.368072
V1    V     V_3+5 0.935370 0.490620 0.498440 1.508365
O8    O     O_R   0.328720 0.569930 0.439790 -0.527727
C3    C     C_R   0.160473 0.584403 0.417972 0.716624
O9    O     O_R   0.324340 0.593710 0.587330 -0.536772
C4    C     C_R   0.154883 0.617164 0.614977 0.754976
V2    V     V_3+5 0.435940 0.509380 0.501560 1.535208
O10   O     O_3   0.159110 0.449430 0.491620 -0.353594
C5    C     C_R   0.295829 0.741412 0.702773 -0.128299
H1    H     H_    0.421274 0.734701 0.667624 0.158120
C6    C     C_R   0.286407 0.807408 0.766183 0.165561
C7    C     C_R   0.123576 0.817590 0.813429 -0.091548
C8    C     C_R   0.970763 0.761742 0.792994 -0.127795
H2    H     H_    0.844013 0.767482 0.827361 0.161511
C9    C     C_R   0.979844 0.697200 0.728459 -0.104088
H3    H     H_    0.859680 0.655307 0.714688 0.137566
C10   C     C_R   0.143545 0.685918 0.683066 -0.073833
C11   C     C_R   0.044213 0.607218 0.304174 -0.069867
C12   C     C_R   0.150492 0.634091 0.369460 -0.188130
C13   C     C_R   0.243119 0.709403 0.389280 0.170192
C14   C     C_R   0.251725 0.752743 0.339278 -0.009109
C15   C     C_R   0.124052 0.731005 0.279242 -0.011452
C16   C     C_R   0.008117 0.661039 0.265128 0.084002
C17   C     C_R   0.373834 0.819968 0.349473 0.164723
C18   C     C_R   0.344492 0.871819 0.309320 0.175120
C19   C     C_R   0.234361 0.846696 0.244835 -0.024812
C20   C     C_R   0.114250 0.778516 0.232446 -0.002581
C21   C     C_R   0.983568 0.757702 0.173673 0.052496
C22   C     C_R   0.850750 0.695229 0.167712 -0.147115
C23   C     C_R   0.858341 0.648633 0.213392 0.200422
C24   C     C_R   0.248173 0.885131 0.191090 0.117145
C25   C     C_R   0.112789 0.866400 0.132894 -0.157019
C26   C     C_R   0.982375 0.801365 0.123971 0.116115
H4    H     H_    0.733627 0.683374 0.129309 0.185811
C27   C     C_R   0.475870 0.189849 0.873102 -0.179797
C28   C     C_R   0.624410 0.135964 0.870694 -0.066865
C29   C     C_R   0.776797 0.128660 0.821268 -0.144922
C30   C     C_R   0.781245 0.173537 0.772846 0.059677
C31   C     C_R   0.631631 0.229418 0.776825 0.086001
C32   C     C_R   0.478302 0.238362 0.828078 0.055312
C33   C     C_R   0.931437 0.163583 0.720745 0.148260
C34   C     C_R   0.934717 0.210551 0.673869 -0.075161
C35   C     C_R   0.786285 0.267015 0.678318 0.008639
C36   C     C_R   0.634560 0.276052 0.729503 0.060539
C37   C     C_R   0.485421 0.331943 0.733578 0.036568
C38   C     C_R   0.333681 0.338428 0.783599 -0.152921
C39   C     C_R   0.328406 0.293664 0.831280 -0.041374
C40   C     C_R   0.783407 0.313182 0.631018 -0.186813
C41   C     C_R   0.638738 0.369653 0.634970 -0.096653
C42   C     C_R   0.490769 0.380744 0.688084 0.085750
H5    H     H_    0.358078 0.192510 0.910439 0.106221
H6    H     H_    0.888243 0.085967 0.820262 0.153030
H7    H     H_    0.893666 0.305166 0.589579 0.138240
H8    H     H_    0.215947 0.378949 0.786613 0.202050
C43   C     C_R   0.795709 0.296626 0.267716 -0.122766
H9    H     H_    0.923717 0.334346 0.278794 0.141316
C44   C     C_R   0.786046 0.233583 0.202070 -0.118002
H10   H     H_    0.907230 0.223927 0.164657 0.129629
C45   C     C_R   0.620496 0.184585 0.184278 -0.082503
C46   C     C_R   0.467526 0.198383 0.234461 -0.132885
H11   H     H_    0.341612 0.159412 0.222783 0.150268
C47   C     C_R   0.477956 0.259835 0.301259 0.156392
C48   C     C_R   0.641760 0.311552 0.318013 -0.088564
O11   O     O_R   0.774940 0.060470 0.937800 -0.547192
O12   O     O_R   0.440880 0.093730 0.087350 -0.546591
O13   O     O_R   0.266130 0.939630 0.062280 -0.524524
C49   C     C_R   0.609904 0.117219 0.115101 0.719553
O14   O     O_R   0.445480 0.069960 0.939820 -0.541186
O15   O     O_R   0.270770 0.915690 0.913690 -0.526454
C50   C     C_R   0.615054 0.085568 0.918709 0.727370
O16   O     O_R   0.770300 0.084410 0.086380 -0.541981
O17   O     O_3   0.602600 0.949510 0.991670 -0.340176
V3    V     V_3+5 0.329470 0.009370 0.001550 1.508123
O18   O     O_R   0.940760 0.906160 0.912560 -0.534343
C51   C     C_R   0.110423 0.884687 0.883325 0.739343
O19   O     O_R   0.936150 0.929930 0.060100 -0.518939
C52   C     C_R   0.104827 0.914875 0.082164 0.778480
V4    V     V_3+5 0.828930 0.990450 0.998310 1.533230
O20   O     O_3   0.105670 0.050490 0.008320 -0.386920
I1    I     I_    0.810576 0.758068 0.026773 -0.335368
I2    I     I_    0.607288 0.576382 0.211294 -0.334043
I3    I     I_    0.159311 0.078829 0.713354 -0.270708
C53   C     C_2   0.095955 0.201916 0.621027 0.498117
H12   H     H_    0.175185 0.254393 0.618722 0.032053
O21   O     O_2   0.136281 0.136773 0.577789 -0.454019
I4    I     I_    0.288755 0.477407 0.706302 -0.408338
I5    I     I_    0.520333 0.890106 0.779894 -0.332012
C54   C     C_2   0.165338 0.307908 0.884580 0.410186
H13   H     H_    0.177220 0.293941 0.934580 0.053702
O22   O     O_2   0.014275 0.337486 0.873762 -0.517867
I6    I     I_    0.247540 0.262474 0.375076 -0.327392
C55   C     C_2   0.998205 0.520477 0.272448 0.449750
H14   H     H_    0.960611 0.484782 0.306685 0.023081
O23   O     O_2   0.011573 0.486962 0.207076 -0.494102
I7    I     I_    0.305167 0.765610 0.502465 -0.251899
I8    I     I_    0.651854 0.829719 0.399484 -0.232639
I9    I     I_    0.388324 0.995897 0.368773 -0.141302
I10   I     I_    0.512549 0.949166 0.185787 -0.314809

loop_
_geom_bond_atom_site_label_1
_geom_bond_atom_site_label_2
_ccdc_geom_bond_type
C32   C39   A    
C43   C44   A    
C29   H6    S    
C24   I10   S    
C6    C7    A    
C33   I3    S    
C1    O6    A    
C37   C38   A    
C36   C37   A    
C30   C33   A    
C11   C12   A    
C14   C15   A    
C15   C20   A    
C21   C22   A    
O19   V4    S    
C35   C40   A    
C14   C17   A    
O5    C3    A    
C15   C16   A    
O15   C51   A    
V2    O10   S    
C40   C41   A    
C19   C20   A    
C22   H4    S    
O11   C50   A    
C38   C39   A    
O8    V2    S    
C19   C24   A    
C20   C21   A    
C46   H11   S    
C44   C45   A    
C54   O22   D    
C1    C41   S    
O17   V4    S    
C9    H3    S    
C17   I8    S    
C47   C48   A    
O1    V2    S    
C27   C32   A    
C27   H5    S    
C11   C16   A    
O13   C52   A    
O9    C4    A    
O12   C49   A    
C21   C26   A    
O12   V3    S    
C34   C35   A    
C3    C12   S    
C45   C46   A    
C18   I9    S    
O19   C52   A    
C24   C25   A    
O4    C2    A    
V4    O20   S    
C39   C54   S    
C38   H8    S    
O18   V4    S    
O18   C51   A    
C35   C36   A    
C25   C52   S    
O2    C1    A    
C27   C28   A    
C22   C23   A    
C53   O21   D    
C31   C32   A    
C23   I2    S    
O15   V3    S    
C37   C42   A    
C54   H13   S    
C55   O23   D    
C5    H1    S    
V3    O20   S    
O3    C4    A    
C25   C26   A    
C43   C48   A    
C33   C34   A    
O6    V2    S    
O9    V2    S    
C45   C49   S    
O13   V3    S    
O2    V1    S    
C53   H12   S    
C6    I5    S    
C47   I6    S    
O7    V1    S    
C26   I1    S    
C30   C31   A    
C13   C14   A    
O1    C2    A    
C28   C29   A    
O14   C50   A    
O17   V3    S    
O14   V3    S    
O5    V1    S    
O11   V4    S    
O8    C3    A    
C31   C36   A    
C16   C23   A    
C5    C10   A    
C17   C18   A    
C8    C9    A    
C42   I4    S    
O4    V1    S    
O3    V1    S    
V1    O10   S    
C2    C48   S    
C13   I7    S    
C41   C42   A    
C28   C50   S    
C55   H14   S    
C5    C6    A    
C18   C19   A    
C9    C10   A    
C4    C10   S    
O7    V2    S    
C43   H9    S    
C29   C30   A    
C34   C53   S    
C7    C8    A    
C46   C47   A    
C44   H10   S    
C7    C51   S    
C12   C13   A    
C40   H7    S    
C8    H2    S    
C49   O16   A    
O16   V4    S    
C11   C55   S    
