data_mof_unit_40283.cif
_audit_creation_date              2012-12-11T17:43:30-0500
_audit_creation_method            fapswitch 2.2
_symmetry_space_group_name_H-M    P1
_symmetry_Int_Tables_number       1
_space_group_crystal_system       triclinic
_cell_length_a                    14.924798
_cell_length_b                    15.11517
_cell_length_c                    16.887177
_cell_angle_alpha                 108.995365
_cell_angle_beta                  106.060415
_cell_angle_gamma                 109.053096
_cell_volume                      3076.49722455

loop_
_atom_site_label
_atom_site_type_symbol
_atom_type_description
_atom_site_fract_x
_atom_site_fract_y
_atom_site_fract_z
_atom_type_partial_charge
C1    C     C_R   0.089851 0.275167 0.028171 -0.127508
C2    C     C_R   0.914124 0.707369 0.916550 -0.148451
C3    C     C_R   0.029509 0.465892 0.725664 0.060182
C4    C     C_R   0.973974 0.420526 0.255396 0.066027
C5    C     C_R   0.658317 0.224539 0.746664 0.076363
C6    C     C_R   0.235577 0.801026 0.275564 0.066242
C7    C     C_R   0.364845 0.574893 0.065368 0.064837
C8    C     C_R   0.706702 0.536795 0.030199 0.048926
C9    C     C_R   0.905445 0.886542 0.892009 -0.237413
C10   C     C_R   0.088809 0.062393 0.943690 -0.239321
C11   C     C_R   0.000612 0.882893 0.917581 0.053646
C12   C     C_R   0.996030 0.071190 0.934126 0.069206
C13   C     C_R   0.091993 0.967894 0.933924 0.027385
C14   C     C_R   0.901323 0.978722 0.901098 0.030543
C15   C     C_R   0.723557 0.935842 0.793136 -0.183712
C16   C     C_R   0.287476 0.037765 0.011392 -0.175023
C17   C     C_R   0.592735 0.947860 0.848843 -0.118477
C18   C     C_R   0.372510 0.939235 0.949668 -0.104423
C19   C     C_R   0.467876 0.636346 0.355703 -0.165092
C20   C     C_R   0.501865 0.492429 0.750876 -0.155356
C21   C     C_R   0.495811 0.649563 0.286401 -0.158116
C22   C     C_R   0.517216 0.503888 0.839685 -0.142212
C23   C     C_R   0.936258 0.451280 0.734502 -0.129684
C24   C     C_R   0.065155 0.480937 0.253416 -0.133558
C25   C     C_R   0.518595 0.575786 0.230959 0.120747
C26   C     C_R   0.574085 0.604274 0.916129 0.103998
C27   C     C_R   0.516174 0.490323 0.248237 -0.202276
C28   C     C_R   0.613835 0.693290 0.902562 -0.212056
C29   C     C_R   0.488504 0.477378 0.317840 -0.137843
C30   C     C_R   0.600220 0.681329 0.813809 -0.148208
C31   C     C_R   0.462993 0.549410 0.371218 0.114843
C32   C     C_R   0.544626 0.581085 0.737486 0.099530
C33   C     C_R   0.620081 0.568594 0.135053 -0.238562
C34   C     C_R   0.514745 0.646045 0.035175 -0.227865
C35   C     C_R   0.636835 0.574959 0.058710 0.064819
C36   C     C_R   0.477832 0.611840 0.092450 0.043732
C37   C     C_R   0.583503 0.615811 0.008872 0.026879
C38   C     C_R   0.538917 0.585600 0.152176 0.036162
C39   C     C_R   0.622143 0.924068 0.775853 -0.131114
C40   C     C_R   0.378446 0.027393 0.016802 -0.108635
C41   C     C_R   0.967085 0.378813 0.321977 0.131791
C42   C     C_R   0.039625 0.421248 0.639267 0.129537
C43   C     C_R   0.145518 0.440667 0.554421 -0.230605
C44   C     C_R   0.863056 0.303826 0.392517 -0.226920
C45   C     C_R   0.715641 0.219578 0.824445 -0.154807
C46   C     C_R   0.219750 0.795994 0.188370 -0.139855
C47   C     C_R   0.138514 0.455749 0.637752 -0.173236
C48   C     C_R   0.868996 0.321346 0.317882 -0.178869
C49   C     C_R   0.948934 0.356413 0.555530 -0.278666
C50   C     C_R   0.059133 0.406187 0.396235 -0.285069
C51   C     C_R   0.954882 0.347044 0.472788 0.190530
C52   C     C_R   0.053787 0.394232 0.473184 0.189537
C53   C     C_R   0.545964 0.154345 0.681046 0.104665
C54   C     C_R   0.271451 0.896072 0.362204 0.110460
C55   C     C_R   0.368473 0.085816 0.443503 -0.232676
C56   C     C_R   0.399027 0.981524 0.614655 -0.233930
C57   C     C_R   0.303623 0.993897 0.361695 -0.197026
C58   C     C_R   0.491421 0.064309 0.688231 -0.204190
C59   C     C_R   0.287418 0.893193 0.447719 -0.056643
C60   C     C_R   0.495432 0.168206 0.604848 -0.049879
C61   C     C_R   0.362176 0.985063 0.530347 0.127324
C62   C     C_R   0.407292 0.081129 0.526995 0.130569
C63   C     C_R   0.664669 0.983420 0.939273 -0.125027
C64   C     C_R   0.275771 0.861726 0.876396 -0.121440
C65   C     C_R   0.766107 0.994996 0.956894 -0.157731
C66   C     C_R   0.184626 0.871859 0.870477 -0.140424
C67   C     C_R   0.303109 0.601672 0.009951 -0.137619
C68   C     C_R   0.736080 0.463609 0.047619 -0.128726
C69   C     C_R   0.796397 0.972389 0.883967 0.096337
C70   C     C_R   0.189475 0.959463 0.938595 0.114571
C71   C     C_R   0.725458 0.313720 0.747998 -0.134329
C72   C     C_R   0.217528 0.700916 0.265567 -0.121991
C73   C     C_R   0.297959 0.504080 0.083565 -0.136281
C74   C     C_R   0.750952 0.563678 0.974591 -0.117368
C75   C     C_R   0.111017 0.536733 0.812867 -0.137801
C76   C     C_R   0.891643 0.396938 0.176439 -0.141522
C77   C     C_R   0.916018 0.195549 0.945929 -0.131439
C78   C     C_R   0.086579 0.794954 0.997718 -0.142238
C79   C     C_R   0.001705 0.176771 0.965363 0.052482
C80   C     C_R   0.001732 0.798553 0.942300 0.065484
H1    H     H_    0.170737 0.290990 0.059004 0.095051
H2    H     H_    0.836568 0.675486 0.862623 0.097324
H3    H     H_    0.745307 0.916184 0.736042 0.125840
H4    H     H_    0.293254 0.105650 0.064934 0.107175
H5    H     H_    0.497550 0.716302 0.274658 0.122159
H6    H     H_    0.483502 0.434783 0.848863 0.122880
H7    H     H_    0.666534 0.545722 0.178236 0.127141
H8    H     H_    0.474166 0.674641 0.994154 0.125283
H9    H     H_    0.135576 0.447006 0.399553 0.113170
H10   H     H_    0.872374 0.323950 0.554823 0.117990
H11   H     H_    0.796448 0.295899 0.260317 0.111579
H12   H     H_    0.210398 0.501493 0.700847 0.121266
H13   H     H_    0.222117 0.474865 0.555215 0.128457
H14   H     H_    0.786633 0.265779 0.390796 0.124919
H15   H     H_    0.857264 0.401809 0.681055 0.092693
H16   H     H_    0.144420 0.500643 0.296017 0.083838
H17   H     H_    0.566141 0.895780 0.705793 0.119850
H18   H     H_    0.453505 0.087363 0.073485 0.101352
H19   H     H_    0.395913 0.158507 0.438422 0.125478
H20   H     H_    0.363334 0.911678 0.622068 0.126772
H21   H     H_    0.641673 0.001392 0.995640 0.104297
H22   H     H_    0.271318 0.793533 0.824379 0.109136
H23   H     H_    0.820963 0.021392 0.026961 0.119701
H24   H     H_    0.110138 0.810898 0.813462 0.115741
H25   H     H_    0.329131 0.666081 0.993422 0.090098
H26   H     H_    0.715995 0.426032 0.089107 0.094278
H27   H     H_    0.708260 0.352970 0.707633 0.109416
H28   H     H_    0.225442 0.673941 0.317360 0.109395
H29   H     H_    0.318885 0.472162 0.130276 0.114090
H30   H     H_    0.753085 0.623658 0.953329 0.120769
H31   H     H_    0.194166 0.565840 0.832599 0.096956
H32   H     H_    0.810921 0.339019 0.148181 0.084926
H33   H     H_    0.836784 0.143797 0.895656 0.133384
H34   H     H_    0.168536 0.847521 0.023855 0.114736
H35   H     H_    0.833429 0.820441 0.874218 0.126925
H36   H     H_    0.159379 0.129770 0.960492 0.126958
N1    N     N_R   0.055660 0.348550 0.045620 -0.040341
N2    N     N_R   0.944340 0.651450 0.954380 -0.039970
N3    N     N_R   0.960830 0.507850 0.823700 -0.041157
N4    N     N_R   0.039170 0.492150 0.176300 -0.038737
N5    N     N_R   0.811290 0.303410 0.871650 -0.041282
N6    N     N_R   0.188710 0.696590 0.128350 -0.040582
N7    N     N_R   0.205200 0.552990 0.997670 -0.039180
N8    N     N_R   0.794800 0.447010 0.002330 -0.039706
N9    N     N_R   0.814800 0.361830 0.823700 -0.041581
N10   N     N_R   0.185200 0.638170 0.176300 -0.043166
N11   N     N_R   0.201680 0.494570 0.045620 -0.040733
N12   N     N_R   0.798320 0.505430 0.954380 -0.042177
N13   N     N_R   0.068420 0.560530 0.871650 -0.038505
N14   N     N_R   0.931580 0.439470 0.128350 -0.037190
N15   N     N_R   0.948070 0.295860 0.997670 -0.043043
N16   N     N_R   0.051930 0.704140 0.002330 -0.039234
Ni1   Ni    Ni4+2 0.119340 0.493420 0.109960 0.212713
Ni2   Ni    Ni4+2 0.880660 0.506580 0.890040 0.212542
Ni3   Ni    Ni4+2 0.872590 0.372590 0.000000 0.213454
Ni4   Ni    Ni4+2 0.127410 0.627410 0.000000 0.214467
N17   N     N_3   0.432255 0.533054 0.440604 -0.224791
H37   H     H_    0.417877 0.594264 0.475492 0.093017
H38   H     H_    0.360948 0.464317 0.406525 0.087080
N18   N     N_3   0.530810 0.570941 0.646960 -0.220748
H39   H     H_    0.486872 0.491701 0.597656 0.094568
H40   H     H_    0.604964 0.596251 0.647068 0.101969
H41   H     H_    0.448858 0.693174 0.396365 0.109434
H42   H     H_    0.455689 0.414703 0.692745 0.110736
H43   H     H_    0.532278 0.431770 0.206001 0.114668
H44   H     H_    0.656071 0.771445 0.960700 0.134716
H45   H     H_    0.485325 0.410225 0.329373 0.108366
H46   H     H_    0.632384 0.749986 0.804105 0.146551
N19   N     N_3   0.535315 0.268167 0.604724 -0.229096
H47   H     H_    0.474751 0.288976 0.590010 0.095878
H48   H     H_    0.562228 0.261739 0.553135 0.093107
N20   N     N_3   0.230287 0.797775 0.449933 -0.220636
H49   H     H_    0.283086 0.773420 0.479218 0.085514
H50   H     H_    0.190891 0.812824 0.491168 0.118411
H51   H     H_    0.522620 0.054253 0.748544 0.129146
H52   H     H_    0.285513 0.000490 0.298020 0.122939
H53   H     H_    0.514090 0.938425 0.835180 0.105233
H54   H     H_    0.442827 0.930855 0.954582 0.095799
H55   H     H_    0.684454 0.169166 0.853160 0.107608
H56   H     H_    0.226724 0.858714 0.169675 0.096778

loop_
_geom_bond_atom_site_label_1
_geom_bond_atom_site_label_2
_ccdc_geom_bond_type
N9    Ni2   S    
C63   C65   A    
C3    C42   S    
C71   H27   S    
C27   C29   A    
C34   C37   A    
C47   H12   S    
C20   H42   S    
C3    C23   A    
N14   Ni3   S    
C45   H55   S    
C49   H10   S    
C63   H21   S    
N1    Ni1   S    
C68   N8    A    
C2    N2    A    
C7    C73   A    
C59   N20   S    
C64   H22   S    
N17   H38   S    
C21   C25   A    
N4    N14   A    
C5    C53   S    
C35   C37   A    
N18   H40   S    
C32   N18   S    
N15   Ni3   S    
N19   H48   S    
C7    C36   S    
C23   N3    A    
C4    C24   A    
C78   C80   A    
C43   C52   A    
C39   H17   S    
C4    C41   S    
C1    H1    S    
C12   C79   S    
C16   H4    S    
C60   C62   A    
N4    Ni1   S    
C77   N15   A    
C18   C40   A    
C78   N16   A    
C33   C35   A    
C76   N14   A    
C74   N12   A    
C72   H28   S    
N10   Ni1   S    
C56   C58   A    
C49   C51   A    
C48   H11   S    
C50   C52   A    
N20   H50   S    
C31   N17   S    
C3    C75   A    
C15   C39   A    
N2    Ni2   S    
C76   H32   S    
N8    N12   A    
C19   C31   A    
C78   H34   S    
C68   H26   S    
C6    C54   S    
C77   H33   S    
C26   C28   A    
C53   C60   A    
C54   C59   A    
C77   C79   A    
C15   C69   A    
C57   H52   S    
C21   H5    S    
C24   N4    A    
N3    Ni2   S    
C59   C61   A    
C51   C52   A    
C9    H35   S    
C66   H24   S    
C16   C70   A    
N18   H39   S    
C58   H51   S    
C67   H25   S    
C15   H3    S    
C45   N5    A    
C73   N11   A    
C5    C45   A    
C72   N10   A    
C8    C35   S    
C64   C66   A    
N6    N10   A    
C6    C72   A    
C9    C14   A    
N5    N9    A    
C18   H54   S    
N12   Ni2   S    
C25   C38   S    
N13   Ni4   S    
C50   H9    S    
N7    N11   A    
C27   H43   S    
C40   H18   S    
C46   H56   S    
C17   H53   S    
C8    C74   A    
N2    N16   A    
C34   H8    S    
N5    Ni3   S    
C73   H29   S    
C9    C11   A    
N6    Ni4   S    
C10   C12   A    
C16   C40   A    
C44   C51   A    
C17   C39   A    
C20   C22   A    
C8    C68   A    
C55   C57   A    
C22   C26   A    
C1    C79   A    
C14   C69   S    
C2    H2    S    
C65   H23   S    
C36   C38   A    
C41   C50   A    
C10   H36   S    
C44   H14   S    
C20   C32   A    
N16   Ni4   S    
C19   H41   S    
C6    C46   A    
N8    Ni3   S    
C19   C21   A    
C28   H44   S    
C71   N9    A    
N11   Ni1   S    
C12   C14   A    
C10   C13   A    
C67   N7    A    
C29   H45   S    
C53   C58   A    
C26   C37   S    
C30   H46   S    
C25   C27   A    
N17   H37   S    
C75   H31   S    
C33   C38   A    
N7    Ni4   S    
C43   H13   S    
C24   H16   S    
C33   H7    S    
C29   C31   A    
N19   H47   S    
C17   C63   A    
C30   C32   A    
C11   C13   A    
C18   C64   A    
C66   C70   A    
C65   C69   A    
C28   C30   A    
C60   N19   S    
N3    N13   A    
C41   C48   A    
C23   H15   S    
C34   C36   A    
C42   C47   A    
C22   H6    S    
C61   C62   A    
N1    N15   A    
C4    C76   A    
C2    C80   A    
C11   C80   S    
C42   C49   A    
C7    C67   A    
C44   C48   A    
C55   C62   A    
C5    C71   A    
C13   C70   S    
C55   H19   S    
C56   H20   S    
C56   C61   A    
C46   N6    A    
N20   H49   S    
C74   H30   S    
C1    N1    A    
C43   C47   A    
C75   N13   A    
C54   C57   A    
