data_mof_unit_57819.cif
_audit_creation_date              2012-12-10T21:00:40-0500
_audit_creation_method            fapswitch 2.2
_symmetry_space_group_name_H-M    P1
_symmetry_Int_Tables_number       1
_space_group_crystal_system       triclinic
_cell_length_a                    18.093801
_cell_length_b                    18.16893
_cell_length_c                    18.326447
_cell_angle_alpha                 119.946738
_cell_angle_beta                  90.050294
_cell_angle_gamma                 119.759834
_cell_volume                      4277.09060667

loop_
_atom_site_label
_atom_site_type_symbol
_atom_type_description
_atom_site_fract_x
_atom_site_fract_y
_atom_site_fract_z
_atom_type_partial_charge
C1    C     C_R   0.111484 0.220027 0.609808 0.774984
C2    C     C_3   0.450505 0.897206 0.947490 -0.072420
C3    C     C_3   0.445979 0.031630 0.014404 0.485976
C4    C     C_3   0.553999 0.968368 0.985649 0.485592
C5    C     C_3   0.442919 0.518554 0.479035 -0.192784
C6    C     C_3   0.557037 0.481315 0.520919 -0.192428
C7    C     C_3   0.446785 0.425268 0.414380 -0.123503
C8    C     C_3   0.553176 0.574604 0.585577 -0.123706
C9    C     C_3   0.550104 0.499403 0.448721 0.068843
C10   C     C_3   0.449859 0.500481 0.551244 0.068928
C11   C     C_3   0.547041 0.592571 0.512408 -0.189537
C12   C     C_R   0.888766 0.779988 0.390212 0.786976
C13   C     C_3   0.452912 0.407300 0.487551 -0.190230
C14   C     C_R   0.178271 0.184298 0.824239 -0.107081
C15   C     C_R   0.827005 0.823389 0.176641 -0.117434
C16   C     C_R   0.392892 0.781133 0.888360 0.819728
C17   C     C_R   0.607104 0.218866 0.111656 0.819358
C18   C     C_R   0.147286 0.136655 0.732544 -0.162753
C19   C     C_R   0.858017 0.872237 0.268518 -0.147984
C20   C     C_R   0.059512 0.098934 0.690548 0.115854
C21   C     C_R   0.942128 0.900922 0.309587 0.078927
C22   C     C_R   0.001937 0.107596 0.741487 0.255703
C23   C     C_3   0.983832 0.430563 0.414091 -0.132784
C24   C     C_R   0.996508 0.881886 0.257423 0.270492
C25   C     C_R   0.033659 0.154574 0.833483 -0.206947
C26   C     C_R   0.964039 0.832418 0.164964 -0.140514
C27   C     C_R   0.121587 0.193340 0.874626 -0.143335
C28   C     C_R   0.879831 0.803327 0.124949 -0.167422
C29   C     C_R   0.973685 0.943833 0.537338 -0.231795
C30   C     C_R   0.026286 0.056185 0.462802 -0.247382
C31   C     C_R   0.944695 0.892372 0.444780 -0.066355
C32   C     C_R   0.055595 0.107653 0.555340 -0.065735
C33   C     C_R   0.971033 0.949284 0.406864 -0.020063
C34   C     C_3   0.016149 0.569413 0.585908 -0.133025
C35   C     C_R   0.029191 0.050767 0.593349 0.025446
C36   C     C_R   0.566960 0.476712 0.719492 -0.128779
C37   C     C_R   0.432584 0.523075 0.280242 -0.128709
C38   C     C_R   0.528177 0.461846 0.781034 -0.127053
C39   C     C_R   0.471398 0.538121 0.218778 -0.127306
C40   C     C_R   0.111048 0.501042 0.889884 0.790772
C41   C     C_R   0.888953 0.498945 0.110111 0.792875
C42   C     C_R   0.572811 0.539337 0.873000 0.146841
C43   C     C_R   0.427145 0.460375 0.126809 0.146707
C44   C     C_R   0.656529 0.631692 0.902286 -0.123268
C45   C     C_3   0.450080 0.965872 0.921660 -0.267224
C46   C     C_R   0.343835 0.367546 0.097427 -0.122618
C47   C     C_R   0.695076 0.646170 0.840558 -0.120837
C48   C     C_R   0.305255 0.352878 0.159072 -0.119734
C49   C     C_R   0.650606 0.568528 0.749296 -0.122345
C50   C     C_R   0.349300 0.430802 0.250341 -0.122321
C51   C     C_R   0.585850 0.524766 0.997796 -0.261408
C52   C     C_R   0.414112 0.475062 0.002092 -0.264194
C53   C     C_R   0.551334 0.502499 0.057711 -0.033728
C54   C     C_R   0.448645 0.497386 0.942204 -0.034552
C55   C     C_R   0.464963 0.478078 0.060954 -0.011544
C56   C     C_3   0.549894 0.034125 0.078392 -0.267213
C57   C     C_R   0.535003 0.521744 0.938917 -0.011364
C58   C     C_R   0.187945 0.843089 0.029756 -0.124541
C59   C     C_R   0.811909 0.157819 0.971817 -0.118294
C60   C     C_R   0.153848 0.761468 0.039106 -0.177325
C61   C     C_R   0.846069 0.239066 0.961947 -0.186510
C62   C     C_R   0.073698 0.664848 0.975654 0.152616
C63   C     C_R   0.926668 0.335476 0.024778 0.156078
C64   C     C_R   0.392500 0.500090 0.607865 0.765562
C65   C     C_R   0.607494 0.499875 0.392129 0.766218
C66   C     C_R   0.027464 0.651002 0.903456 -0.108423
C67   C     C_3   0.554880 0.037999 0.960307 -0.277882
C68   C     C_R   0.973294 0.349487 0.096860 -0.105095
C69   C     C_R   0.062074 0.732644 0.894069 -0.157258
C70   C     C_R   0.938637 0.268213 0.106753 -0.158692
C71   C     C_R   0.142250 0.828601 0.957158 -0.064958
C72   C     C_R   0.857994 0.172471 0.044303 -0.066076
C73   C     C_R   0.982420 0.575430 0.039193 -0.252938
C74   C     C_R   0.017781 0.424656 0.960981 -0.269051
C75   C     C_R   0.945376 0.497515 0.053574 -0.054181
C76   C     C_R   0.054707 0.502497 0.946484 -0.052983
C77   C     C_R   0.963412 0.421065 0.013957 -0.009651
C78   C     C_3   0.445092 0.961994 0.039740 -0.277114
C79   C     C_R   0.036766 0.579027 0.986202 -0.010963
C80   C     C_R   0.393687 0.498345 0.887124 0.788204
C81   C     C_R   0.606310 0.501635 0.112861 0.788488
C82   C     C_R   0.108944 0.500311 0.607858 0.771169
C83   C     C_R   0.891049 0.499680 0.392142 0.770929
C84   C     C_3   0.078255 0.526107 0.483284 -0.182611
C85   C     C_3   0.921726 0.473870 0.516715 -0.182920
C86   C     C_3   0.042360 0.594777 0.517043 -0.175243
C87   C     C_3   0.957622 0.405199 0.482957 -0.175330
C88   C     C_3   0.948775 0.499267 0.448714 0.057718
C89   C     C_3   0.549475 0.102791 0.052558 -0.072376
C90   C     C_3   0.051207 0.500711 0.551285 0.057573
C91   C     C_3   0.904589 0.141389 0.695133 -0.776633
C92   C     C_3   0.158788 0.987174 0.294078 -0.821259
Cl1   Cl    Cl    0.372100 0.072136 0.032286 -0.661967
Cl2   Cl    Cl    0.627866 0.927847 0.967814 -0.662574
H1    H     H_    0.076264 0.672553 0.530081 0.131795
H2    H     H_    0.003586 0.815058 0.123592 0.139802
H3    H     H_    0.954168 0.900804 0.566841 0.171486
H4    H     H_    0.045914 0.099133 0.433219 0.177043
H5    H     H_    0.681261 0.579576 0.701822 0.120157
H6    H     H_    0.318611 0.419610 0.297749 0.120195
H7    H     H_    0.532556 0.416609 0.648768 0.118728
H8    H     H_    0.466675 0.583372 0.350973 0.119361
H9    H     H_    0.464131 0.389621 0.757196 0.094437
H10   H     H_    0.535161 0.610663 0.242665 0.096497
H11   H     H_    0.691962 0.692162 0.972869 0.121343
H12   H     H_    0.923720 0.327425 0.469923 0.132094
H13   H     H_    0.308776 0.306837 0.026839 0.120542
H14   H     H_    0.143423 0.547620 0.470500 0.128457
H15   H     H_    0.856557 0.452355 0.529499 0.128320
H16   H     H_    0.759748 0.717284 0.863511 0.131935
H17   H     H_    0.240889 0.281386 0.136045 0.132079
H18   H     H_    0.651731 0.541103 0.994637 0.165726
H19   H     H_    0.348214 0.458668 0.005241 0.166446
H20   H     H_    0.168722 0.891776 0.949925 0.171809
H21   H     H_    0.831448 0.109589 0.051947 0.171277
H22   H     H_    0.249631 0.917601 0.078911 0.164667
H23   H     H_    0.145704 0.230297 0.945658 0.130949
H24   H     H_    0.749848 0.083479 0.923172 0.163893
H25   H     H_    0.189622 0.773439 0.095619 0.129101
H26   H     H_    0.809956 0.227010 0.905572 0.123071
H27   H     H_    0.965159 0.577012 0.854433 0.115081
H28   H     H_    0.035906 0.423350 0.145441 0.115524
H29   H     H_    0.026651 0.721611 0.838028 0.122187
H30   H     H_    0.974356 0.279382 0.162714 0.122372
H31   H     H_    0.969527 0.634737 0.069764 0.173742
H32   H     H_    0.030815 0.365436 0.930583 0.173913
H33   H     H_    0.969849 0.373552 0.342774 0.140379
H34   H     H_    0.855409 0.764819 0.053651 0.131823
H35   H     H_    0.030131 0.626423 0.657225 0.140301
H36   H     H_    0.600484 0.069669 0.928010 0.157875
H37   H     H_    0.399450 0.930328 0.072019 0.158561
H38   H     H_    0.408383 0.937447 0.857251 0.166084
H39   H     H_    0.591591 0.062553 0.142802 0.166132
H40   H     H_    0.404159 0.363327 0.343290 0.158731
H41   H     H_    0.595807 0.636519 0.656670 0.158532
H42   H     H_    0.395256 0.534338 0.463619 0.125005
H43   H     H_    0.604692 0.465507 0.536303 0.124762
H44   H     H_    0.586566 0.668411 0.521383 0.129902
H45   H     H_    0.246372 0.214359 0.856242 0.133468
H46   H     H_    0.413364 0.331447 0.478555 0.128355
H47   H     H_    0.866901 0.037100 0.727668 0.218738
H48   H     H_    0.833199 0.104087 0.660328 0.229951
H49   H     H_    0.945996 0.165277 0.656671 0.247227
H50   H     H_    0.926650 0.211023 0.763106 0.232412
H51   H     H_    0.091249 0.917543 0.356443 0.227348
H52   H     H_    0.221043 0.999429 0.323098 0.239619
H53   H     H_    0.164581 0.061283 0.334040 0.243619
H54   H     H_    0.153282 0.963797 0.224504 0.251590
H55   H     H_    0.761670 0.800532 0.145434 0.136038
H56   H     H_    0.192030 0.130331 0.694276 0.119168
H57   H     H_    0.815944 0.886514 0.307701 0.126456
H58   H     H_    0.990373 0.162095 0.873352 0.139978
N1    N     N_2   0.912266 0.068655 0.700647 -0.319166
N2    N     N_2   0.081400 0.907496 0.295882 -0.319787
O1    O     O_3   0.251620 0.500000 0.748430 -0.488282
O2    O     O_R   0.570330 0.268390 0.136490 -0.591658
O3    O     O_R   0.134680 0.268390 0.572240 -0.648570
O4    O     O_R   0.865320 0.731610 0.427760 -0.648674
O5    O     O_R   0.306670 0.731630 0.863510 -0.637583
O6    O     O_R   0.693330 0.268370 0.136490 -0.637787
O7    O     O_R   0.135450 0.439270 0.865360 -0.644043
O8    O     O_R   0.864550 0.560730 0.134640 -0.645319
O9    O     O_R   0.429670 0.560710 0.692610 -0.630320
O10   O     O_R   0.570330 0.439290 0.307390 -0.630448
O11   O     O_R   0.308540 0.439240 0.865360 -0.650582
O12   O     O_3   0.748380 0.500000 0.251570 -0.489037
O13   O     O_R   0.691460 0.560760 0.134640 -0.650291
O14   O     O_R   0.133580 0.439310 0.571150 -0.641946
O15   O     O_R   0.866420 0.560690 0.428850 -0.642473
O16   O     O_R   0.430770 0.560690 0.864590 -0.621714
O17   O     O_R   0.569230 0.439310 0.135410 -0.622210
O18   O     O_R   0.133580 0.560760 0.692610 -0.645805
O19   O     O_R   0.866420 0.439240 0.307390 -0.645671
O20   O     O_R   0.134680 0.560740 0.864590 -0.634807
O21   O     O_R   0.865320 0.439260 0.135410 -0.635016
O22   O     O_R   0.306670 0.439270 0.571150 -0.647084
O23   O     O_R   0.693330 0.560730 0.428850 -0.646091
O24   O     O_R   0.135450 0.268370 0.694460 -0.636246
O25   O     O_R   0.864550 0.731630 0.305540 -0.638702
O26   O     O_R   0.429670 0.731610 0.863510 -0.591504
Zn1   Zn    Zn3+2 0.207400 0.586780 0.791530 0.974040
Zn2   Zn    Zn3+2 0.792600 0.413220 0.208470 0.974128
Zn3   Zn    Zn3+2 0.208510 0.413230 0.792630 0.960624
Zn4   Zn    Zn3+2 0.791490 0.586770 0.207370 0.962616
Zn5   Zn    Zn3+2 0.383150 0.586740 0.791530 1.011541
Zn6   Zn    Zn3+2 0.616850 0.413260 0.208470 1.011456
Zn7   Zn    Zn3+2 0.207400 0.413250 0.618010 0.950635
Zn8   Zn    Zn3+2 0.792600 0.586750 0.381990 0.953395

loop_
_geom_bond_atom_site_label_1
_geom_bond_atom_site_label_2
_ccdc_geom_bond_type
C5    H42   S    
C30   C32   A    
C51   H18   S    
C92   H54   S    
C14   C18   A    
O12   Zn2   S    
C76   C79   A    
C80   O16   A    
C6    C9    S    
C56   H39   S    
C39   H10   S    
C47   C49   A    
C82   O14   A    
C44   H11   S    
C70   C72   A    
C15   C19   A    
C72   H21   S    
O23   Zn8   S    
C74   C76   A    
C25   H58   S    
O12   Zn8   S    
C60   C62   A    
C19   C21   A    
C11   H44   S    
C84   C86   S    
C91   N1    S    
O10   Zn6   S    
C63   C77   S    
C37   H8    S    
C86   C88   S    
C58   C71   A    
C85   C88   S    
C66   C69   A    
C41   C75   S    
C69   H29   S    
C58   C60   A    
C67   C89   S    
C56   C78   S    
O20   Zn1   S    
C60   H25   S    
C53   C81   S    
C34   C86   S    
C61   C63   A    
C17   O6    A    
C20   C35   S    
O18   Zn1   S    
C34   H35   S    
C52   C54   A    
C22   C25   A    
C45   C67   S    
C19   H57   S    
C31   C33   A    
C51   C57   A    
C14   C27   A    
C64   O22   A    
C2    C16   S    
C54   C80   S    
O24   Zn3   S    
C30   C33   A    
C44   C47   A    
C59   C72   A    
C91   H48   S    
C27   H23   S    
C83   C88   S    
C41   O21   A    
C28   H34   S    
O14   Zn7   S    
C23   C87   S    
C41   O8    A    
C4    C56   S    
C16   O5    A    
C58   H22   S    
C73   C75   A    
C42   C44   A    
C64   O9    A    
C42   C57   S    
O6    Zn2   S    
C24   N2    S    
C85   H15   S    
C91   H49   S    
C53   C55   A    
C2    C45   S    
C73   C79   A    
C37   C39   A    
C46   C48   A    
C59   C61   A    
C69   C71   A    
C23   C84   S    
C62   C66   A    
C85   C87   S    
C92   H52   S    
O11   Zn3   S    
C32   C35   A    
C62   C79   S    
C17   C89   S    
C7    H40   S    
O16   Zn5   S    
O1    Zn5   S    
C68   H28   S    
C5    C7    S    
C39   C43   A    
C52   H19   S    
C3    C45   S    
C1    C32   S    
C40   C76   S    
C71   H20   S    
C36   H7    S    
C51   C53   A    
C34   C85   S    
O7    Zn3   S    
C2    C4    S    
C78   H37   S    
C34   C90   S    
O8    Zn4   S    
C38   H9    S    
C2    C78   S    
C49   H5    S    
C9    C11   S    
C1    O24   A    
O13   Zn4   S    
C7    C13   S    
C46   H13   S    
C74   C77   A    
O1    Zn1   S    
C3    C89   S    
C81   O13   A    
C66   H27   S    
O12   Zn4   S    
C1    O3    A    
C3    Cl1   S    
O5    Zn1   S    
C48   C50   A    
C75   C77   A    
C82   O18   A    
C4    Cl2   S    
H51   N2    S    
C43   C55   S    
C56   C89   S    
C20   C22   A    
O19   Zn2   S    
C59   H24   S    
C23   C88   S    
O21   Zn2   S    
C12   C31   S    
C61   H26   S    
C21   C24   A    
C67   H36   S    
C13   H46   S    
C80   O11   A    
C15   H55   S    
O22   Zn7   S    
C23   H33   S    
C91   H50   S    
O25   Zn4   S    
C84   C90   S    
C7    C9    S    
C30   H4    S    
C63   C68   A    
O17   Zn6   S    
O12   Zn6   S    
C50   H6    S    
C8    C10   S    
C10   C64   S    
O3    Zn7   S    
O15   Zn8   S    
C24   C26   A    
C10   C13   S    
O4    Zn8   S    
C4    C67   S    
C6    C8    S    
C52   C55   A    
C5    C11   S    
C18   C20   A    
O2    Zn6   S    
C25   C27   A    
C47   H16   S    
C48   H17   S    
C29   C35   A    
C26   C28   A    
C82   C90   S    
C29   H3    S    
O9    Zn5   S    
C26   H2    S    
C6    H43   S    
C83   O19   A    
C40   O7    A    
C29   C31   A    
O1    Zn7   S    
C6    C13   S    
C40   O20   A    
C37   C50   A    
C3    C78   S    
H47   N1    S    
C15   C28   A    
C74   H32   S    
C87   H12   S    
C65   O23   A    
C86   H1    S    
C8    C11   S    
C73   H31   S    
C83   O15   A    
C65   O10   A    
C36   C38   A    
C84   H14   S    
O1    Zn3   S    
C81   O17   A    
C43   C46   A    
C9    C65   S    
O26   Zn5   S    
C38   C42   A    
C70   H30   S    
C5    C10   S    
C12   O25   A    
C21   C33   S    
C14   H45   S    
C45   H38   S    
C68   C70   A    
C87   C90   S    
C92   H53   S    
C92   N2    S    
C12   O4    A    
C18   H56   S    
C17   O2    A    
C54   C57   A    
C36   C49   A    
C16   O26   A    
C8    H41   S    
C22   N1    S    
