data_mof_unit_35880.cif
_audit_creation_date              2012-12-10T17:37:16-0500
_audit_creation_method            fapswitch 2.2
_symmetry_space_group_name_H-M    P1
_symmetry_Int_Tables_number       1
_space_group_crystal_system       triclinic
_cell_length_a                    12.320433
_cell_length_b                    13.243014
_cell_length_c                    15.861625
_cell_angle_alpha                 77.94988
_cell_angle_beta                  101.117088
_cell_angle_gamma                 116.309555
_cell_volume                      2253.88386459

loop_
_atom_site_label
_atom_site_type_symbol
_atom_type_description
_atom_site_fract_x
_atom_site_fract_y
_atom_site_fract_z
_atom_type_partial_charge
C1    C     C_R   0.855007 0.287146 0.511977 0.755313
C2    C     C_3   0.995860 0.499005 0.916164 0.098837
C3    C     C_3   0.112955 0.531069 0.039233 -0.195159
C4    C     C_3   0.998791 0.501305 0.082988 0.081337
C5    C     C_3   0.067138 0.602287 0.964152 0.124360
C6    C     C_3   0.955216 0.574659 0.008472 -0.045014
C7    C     C_1   0.997479 0.499513 0.824689 0.043703
C8    C     C_1   0.000572 0.500582 0.174974 0.038601
C9    C     C_R   0.278093 0.020169 0.400160 0.159868
C10   C     C_R   0.229176 0.834632 0.486496 -0.145484
C11   C     C_R   0.807557 0.112504 0.615044 -0.186135
C12   C     C_R   0.999518 0.499888 0.659861 0.819153
C13   C     C_R   0.719626 0.024209 0.662006 -0.128488
C14   C     C_R   0.597155 0.987846 0.629695 -0.138213
C15   C     C_R   0.560449 0.029322 0.544521 0.103634
C16   C     C_R   0.649535 0.124832 0.499587 0.089045
C17   C     C_R   0.437157 0.984103 0.504622 -0.035456
C18   C     C_R   0.401756 0.052377 0.432831 0.130350
C19   C     C_R   0.491217 0.148266 0.391135 -0.181073
C20   C     C_R   0.613254 0.178280 0.420144 -0.201333
C21   C     C_R   0.350315 0.871259 0.528618 -0.071642
C22   C     C_R   0.192627 0.911969 0.428679 -0.226224
C23   C     C_R   0.145267 0.713017 0.492271 0.839822
C24   C     C_R   0.772544 0.168688 0.537165 -0.089276
C25   C     C_R   0.341615 0.321478 0.631825 -0.293489
C26   C     C_R   0.756956 0.642537 0.381494 0.356920
C27   C     C_R   0.652074 0.658938 0.346727 -0.327173
C28   C     C_R   0.542926 0.594065 0.382959 -0.010494
C29   C     C_R   0.543124 0.522002 0.463276 -0.076371
C30   C     C_R   0.650301 0.501586 0.493068 0.226681
C31   C     C_R   0.441841 0.467245 0.514350 -0.015939
C32   C     C_R   0.441596 0.380547 0.583959 0.155048
C33   C     C_R   0.542361 0.355349 0.607031 -0.258574
C34   C     C_R   0.000542 0.500222 0.340125 0.820937
C35   C     C_R   0.645693 0.417175 0.564667 -0.123923
C36   C     C_R   0.343055 0.498356 0.502743 0.100946
C37   C     C_R   0.243396 0.350627 0.612444 0.085987
C38   C     C_3   0.925624 0.395241 0.036393 -0.212035
C39   C     C_3   0.883245 0.469653 0.960841 -0.062607
C40   C     C_1   0.998514 0.499780 0.749312 -0.114566
C41   C     C_1   0.001150 0.500264 0.250612 -0.123552
C42   C     C_3   0.039574 0.425316 0.990952 -0.183240
Cu1   Cu    Cu3+1 0.098270 0.475420 0.519690 0.987030
Cu2   Cu    Cu3+1 0.901730 0.524580 0.480310 0.969843
H1    H     H_    0.901167 0.145625 0.644899 0.148056
H2    H     H_    0.532571 0.930540 0.674022 0.147955
H3    H     H_    0.745832 0.988499 0.726202 0.159629
H4    H     H_    0.678838 0.246686 0.380889 0.164286
H5    H     H_    0.165090 0.304266 0.648218 0.124031
H6    H     H_    0.543304 0.289844 0.660810 0.157545
H7    H     H_    0.339743 0.253587 0.684134 0.148053
H8    H     H_    0.342513 0.571820 0.458508 0.150782
H9    H     H_    0.866780 0.309372 0.067302 0.162204
H10   H     H_    0.654300 0.716990 0.287020 0.180827
H11   H     H_    0.719844 0.394919 0.590221 0.203819
H12   H     H_    0.207757 0.557909 0.071730 0.161784
H13   H     H_    0.073734 0.363574 0.982832 0.160209
H14   H     H_    0.099073 0.884649 0.399303 0.164919
H15   H     H_    0.467812 0.197220 0.332746 0.185203
N1    N     N_R   0.246280 0.438200 0.549540 -0.192238
N2    N     N_R   0.754330 0.561180 0.450980 -0.197954
O1    O     O_R   0.972510 0.318130 0.524770 -0.585036
O2    O     O_R   0.806530 0.359650 0.491510 -0.607941
O3    O     O_R   0.082970 0.479240 0.637550 -0.567202
O4    O     O_R   0.916990 0.520750 0.604290 -0.590723
O5    O     O_R   0.193470 0.640350 0.508490 -0.571684
O6    O     O_R   0.027490 0.681870 0.475230 -0.556218
O7    O     O_R   0.083010 0.479250 0.395710 -0.562245
O8    O     O_R   0.917030 0.520760 0.362450 -0.555350
C43   C     C_2   0.754299 0.434057 0.918851 0.871118
O9    O     O_2   0.673147 0.411588 0.962821 -0.581272
O10   O     O_R   0.727425 0.426826 0.830025 -0.763206
H16   H     H_    0.637358 0.402153 0.809476 0.333457
C44   C     C_2   0.388243 0.786397 0.587437 0.850793
O11   O     O_2   0.337823 0.735458 0.652696 -0.598177
O12   O     O_R   0.480265 0.763959 0.567153 -0.750558
H17   H     H_    0.497371 0.704072 0.611600 0.334376
N3    N     N_3   0.865167 0.706594 0.339638 -0.516610
H18   H     H_    0.888218 0.792920 0.338371 0.182463
H19   H     H_    0.845272 0.690471 0.275346 0.224937
C45   C     C_2   0.430723 0.590949 0.326622 0.820226
O13   O     O_2   0.342337 0.500026 0.319213 -0.600870
O14   O     O_R   0.427958 0.691498 0.278984 -0.754619
H20   H     H_    0.346950 0.678215 0.242327 0.330545
C46   C     C_2   0.909743 0.659932 0.016178 0.876722
O15   O     O_2   0.879530 0.713004 0.950546 -0.566647
O16   O     O_R   0.901973 0.678260 0.097971 -0.773042
H21   H     H_    0.869861 0.737648 0.094553 0.329177
N4    N     N_3   0.143580 0.715141 0.923478 -0.548386
H22   H     H_    0.183571 0.767316 0.972208 0.222614
H23   H     H_    0.214266 0.708632 0.901002 0.232549
N5    N     N_3   0.240826 0.095399 0.334676 -0.586081
H24   H     H_    0.254175 0.164801 0.363513 0.234248
H25   H     H_    0.147542 0.056136 0.314198 0.221576

loop_
_geom_bond_atom_site_label_1
_geom_bond_atom_site_label_2
_ccdc_geom_bond_type
O16   H21   S    
C3    C42   S    
C19   C20   A    
C4    C8    S    
C1    O1    A    
C45   O13   D    
C27   H10   S    
C14   H2    S    
C46   O15   D    
C10   C22   A    
C26   C27   A    
C26   N3    S    
C6    C46   S    
C44   O12   S    
C30   C35   A    
C23   O5    A    
C28   C29   A    
C26   N2    A    
C38   C42   S    
C31   C36   A    
C38   C39   S    
C12   O3    A    
N3    H19   S    
C9    C22   A    
C15   C16   A    
C11   C24   A    
C42   H13   S    
C18   C19   A    
C23   O6    A    
C2    C7    S    
C25   C37   A    
C2    C39   S    
C31   C32   A    
Cu1   O7    S    
C7    C40   T    
C43   O9    D    
N4    H23   S    
C36   H8    S    
C25   C32   A    
C16   C24   A    
C13   C14   A    
Cu2   O4    S    
C34   C41   S    
C1    O2    A    
C9    N5    S    
C45   O14   S    
Cu1   O3    S    
C46   O16   S    
C10   C21   A    
C44   O11   D    
C35   H11   S    
C8    C41   T    
C4    C6    S    
C34   O7    A    
C13   H3    S    
N3    H18   S    
C19   H15   S    
C33   H6    S    
C21   C44   S    
C17   C21   A    
C12   C40   S    
Cu1   Cu2   S    
C25   H7    S    
C29   C30   A    
C37   H5    S    
C3    H12   S    
O14   H20   S    
C16   C20   A    
N5    H25   S    
C17   C18   A    
Cu2   O8    S    
O12   H17   S    
C34   O8    A    
C20   H4    S    
Cu1   N1    S    
C4    C38   S    
Cu2   N2    S    
C11   H1    S    
C2    C5    S    
C3    C4    S    
C3    C5    S    
C15   C17   A    
C28   C45   S    
C14   C15   A    
O10   H16   S    
C36   N1    A    
C22   H14   S    
C10   C23   S    
C12   O4    A    
C32   C33   A    
C29   C31   A    
C11   C13   A    
C5    C6    S    
C38   H9    S    
C2    C42   S    
Cu1   O5    S    
N5    H24   S    
C33   C35   A    
C39   C43   S    
C37   N1    A    
C9    C18   A    
C1    C24   S    
Cu2   O2    S    
C30   N2    A    
C27   C28   A    
C6    C39   S    
Cu2   O6    S    
C43   O10   S    
N4    H22   S    
C5    N4    S    
Cu1   O1    S    
