data_mof_unit_60286.cif
_audit_creation_date              2012-12-10T17:00:47-0500
_audit_creation_method            fapswitch 2.2
_symmetry_space_group_name_H-M    P1
_symmetry_Int_Tables_number       1
_space_group_crystal_system       triclinic
_cell_length_a                    12.867588
_cell_length_b                    13.128788
_cell_length_c                    19.530716
_cell_angle_alpha                 100.325393
_cell_angle_beta                  81.335562
_cell_angle_gamma                 91.696365
_cell_volume                      3208.94946422

loop_
_atom_site_label
_atom_site_type_symbol
_atom_type_description
_atom_site_fract_x
_atom_site_fract_y
_atom_site_fract_z
_atom_type_partial_charge
C1    C     C_R   0.222056 0.537023 0.524393 0.904978
C2    C     C_R   0.504040 0.538545 0.909307 0.202312
C3    C     C_R   0.452888 0.615089 0.885463 -0.174421
C4    C     C_R   0.446414 0.606366 0.814043 -0.197133
C5    C     C_R   0.569060 0.545269 0.126247 -0.151066
C6    C     C_R   0.570740 0.549938 0.197777 -0.190102
C7    C     C_R   0.451855 0.402809 0.196990 -0.185858
C8    C     C_R   0.451286 0.397365 0.125332 -0.172171
C9    C     C_R   0.508179 0.469599 0.089942 0.197943
C10   C     C_2   0.508098 0.547273 0.984748 -0.235805
C11   C     C_2   0.504383 0.462910 0.014755 -0.235458
C12   C     C_R   0.778155 0.467358 0.476091 0.847903
C13   C     C_R   0.511218 0.479422 0.233683 -0.012498
C14   C     C_2   0.892657 0.470678 0.479240 -0.297316
C15   C     C_2   0.952712 0.551186 0.463061 -0.185559
C16   C     C_2   0.108564 0.554857 0.525016 -0.397609
C17   C     C_2   0.067913 0.555828 0.464500 -0.005445
C18   C     C_2   0.549710 0.887699 0.526348 -0.308055
C19   C     C_2   0.471747 0.947972 0.519512 -0.080664
C20   C     C_2   0.441235 0.110599 0.476379 -0.179410
C21   C     C_2   0.494112 0.056556 0.512710 -0.239476
C22   C     C_R   0.464277 0.222535 0.479988 0.795471
C23   C     C_R   0.534411 0.776394 0.520594 0.864598
C24   C     C_R   0.509689 0.486043 0.309281 0.834577
C25   C     C_R   0.490416 0.513460 0.690349 0.790288
C26   C     C_R   0.492570 0.521624 0.765837 -0.000748
C27   C     C_R   0.545318 0.446124 0.789868 -0.205238
C28   C     C_R   0.551384 0.454677 0.860951 -0.160129
H1    H     H_    0.582682 0.380647 0.753716 0.165489
H2    H     H_    0.404927 0.337914 0.097727 0.136880
H3    H     H_    0.918835 0.611118 0.441511 0.186493
H4    H     H_    0.056294 0.558774 0.574564 0.150975
H5    H     H_    0.926981 0.409715 0.499552 0.166674
H6    H     H_    0.557230 0.093767 0.539403 0.189392
H7    H     H_    0.393857 0.915511 0.515073 0.190745
H8    H     H_    0.629424 0.917956 0.525006 0.143748
H9    H     H_    0.617550 0.609235 0.225073 0.168370
H10   H     H_    0.406009 0.347029 0.223621 0.169625
H11   H     H_    0.491866 0.387008 0.984205 0.152880
H12   H     H_    0.416852 0.680706 0.922201 0.135244
H13   H     H_    0.616094 0.599980 0.099338 0.137274
H14   H     H_    0.406286 0.666161 0.796553 0.163792
H15   H     H_    0.508364 0.624105 0.016649 0.155291
H16   H     H_    0.594332 0.396286 0.877828 0.135596
O1    O     O_3   0.500000 0.500000 0.500000 -0.488938
O2    O     O_R   0.530110 0.266880 0.518530 -0.645687
O3    O     O_R   0.465470 0.738830 0.563940 -0.634917
O4    O     O_R   0.266890 0.467300 0.476120 -0.612032
O5    O     O_R   0.737530 0.526990 0.441410 -0.634727
O6    O     O_R   0.276880 0.592620 0.567490 -0.631032
O7    O     O_R   0.718700 0.413090 0.514970 -0.640956
O8    O     O_R   0.414920 0.276880 0.447500 -0.607816
O9    O     O_R   0.589510 0.717410 0.470040 -0.630370
O10   O     O_R   0.441420 0.437150 0.344000 -0.633189
O11   O     O_R   0.438960 0.578560 0.667440 -0.650519
O12   O     O_R   0.575450 0.541060 0.341470 -0.639854
O13   O     O_R   0.544160 0.443230 0.647100 -0.650325
Zn1   Zn    Zn3+2 0.571990 0.407410 0.544380 0.963881
Zn2   Zn    Zn3+2 0.407420 0.421690 0.442900 1.040321
Zn3   Zn    Zn3+2 0.598910 0.570150 0.439280 0.999686
Zn4   Zn    Zn3+2 0.421690 0.600750 0.573440 0.988385
C29   C     C_2   0.134460 0.569153 0.397226 0.958991
O14   O     O_2   0.220191 0.612024 0.397241 -0.642885
O15   O     O_R   0.096382 0.535640 0.333529 -0.794571
H17   H     H_    0.147669 0.549414 0.291390 0.343808
C30   C     C_2   0.360645 0.061296 0.433459 0.922280
O16   O     O_2   0.284020 0.110849 0.428399 -0.605425
O17   O     O_R   0.373631 0.959344 0.397315 -0.797085
H18   H     H_    0.313893 0.935168 0.369855 0.350600

loop_
_geom_bond_atom_site_label_1
_geom_bond_atom_site_label_2
_ccdc_geom_bond_type
O3    Zn4   S    
C30   O17   S    
C1    O4    A    
C15   H3    S    
C29   O14   D    
O8    Zn2   S    
C17   C29   S    
C16   H4    S    
C1    O6    A    
C10   H15   S    
C4    C26   A    
C29   O15   S    
C7    H10   S    
C8    H2    S    
O15   H17   S    
C20   C21   D    
C14   H5    S    
C2    C3    A    
O13   Zn1   S    
C6    H9    S    
C7    C8    A    
O1    Zn3   S    
C1    C16   S    
C19   H7    S    
C25   O11   A    
O2    Zn1   S    
C6    C13   A    
C11   H11   S    
C9    C11   S    
C26   C27   A    
C5    C9    A    
O5    Zn3   S    
C4    H14   S    
O11   Zn4   S    
C23   O9    A    
O1    Zn4   S    
C19   C21   S    
O9    Zn3   S    
C12   C14   S    
C3    H12   S    
C30   O16   D    
O10   Zn2   S    
C5    C6    A    
O17   H18   S    
O1    Zn1   S    
C12   O5    A    
C24   O12   A    
C10   C11   D    
C24   O10   A    
C18   C23   S    
C2    C10   S    
O12   Zn3   S    
C25   O13   A    
C7    C13   A    
C12   O7    A    
C23   O3    A    
C27   H1    S    
O4    Zn2   S    
C22   O8    A    
C18   C19   D    
C20   C30   S    
C27   C28   A    
O7    Zn1   S    
O6    Zn4   S    
C5    H13   S    
C14   C15   D    
C16   C17   D    
C2    C28   A    
C21   H6    S    
C22   O2    A    
C25   C26   S    
C15   C17   S    
C18   H8    S    
C28   H16   S    
O1    Zn2   S    
C3    C4    A    
C13   C24   S    
C20   C22   S    
C8    C9    A    
