data_mof_unit_26024.cif
_audit_creation_date              2012-12-10T17:46:33-0500
_audit_creation_method            fapswitch 2.2
_symmetry_space_group_name_H-M    P1
_symmetry_Int_Tables_number       1
_space_group_crystal_system       triclinic
_cell_length_a                    20.735373
_cell_length_b                    21.198366
_cell_length_c                    14.743841
_cell_angle_alpha                 89.996935
_cell_angle_beta                  127.784281
_cell_angle_gamma                 90.00039
_cell_volume                      5121.88201471

loop_
_atom_site_label
_atom_site_type_symbol
_atom_type_description
_atom_site_fract_x
_atom_site_fract_y
_atom_site_fract_z
_atom_type_partial_charge
C1    C     C_R   0.603442 0.914143 0.632130 0.809048
C2    C     C_R   0.396557 0.085856 0.367868 0.809055
C3    C     C_R   0.397163 0.913690 0.368631 0.807990
C4    C     C_R   0.602838 0.086308 0.631370 0.808002
C5    C     C_R   0.102831 0.413682 0.631363 0.807992
C6    C     C_R   0.897169 0.586317 0.368636 0.807995
C7    C     C_R   0.896569 0.414136 0.367885 0.809053
C8    C     C_R   0.103433 0.585863 0.632117 0.809051
C9    C     C_R   0.342377 0.766469 0.939050 0.360013
C10   C     C_R   0.657747 0.233428 0.061101 0.360029
C11   C     C_R   0.700804 0.797756 0.110815 0.378531
C12   C     C_R   0.299248 0.202268 0.889226 0.378476
C13   C     C_R   0.799219 0.297699 0.889242 0.378648
C14   C     C_R   0.200792 0.702281 0.110775 0.378634
C15   C     C_R   0.157331 0.266206 0.060563 0.359982
C16   C     C_R   0.842615 0.733740 0.939358 0.359992
C17   C     C_R   0.321402 0.994766 0.664999 0.284342
C18   C     C_R   0.678597 0.005237 0.335000 0.284377
C19   C     C_R   0.821399 0.505203 0.664995 0.284344
C20   C     C_R   0.178602 0.494804 0.335006 0.284337
C21   C     C_R   0.351884 0.997153 0.603020 0.031774
C22   C     C_R   0.648116 0.002846 0.396980 0.031774
C23   C     C_R   0.851882 0.502825 0.603017 0.031750
C24   C     C_R   0.148118 0.497178 0.396983 0.031749
C25   C     C_R   0.487709 0.001386 0.774962 0.007015
C26   C     C_R   0.512290 0.998620 0.225037 0.007002
C27   C     C_R   0.987710 0.498629 0.774964 0.006968
C28   C     C_R   0.012290 0.501372 0.225037 0.006971
C29   C     C_R   0.461207 0.999678 0.844375 -0.040524
C30   C     C_R   0.538792 0.000330 0.155624 -0.040516
C31   C     C_R   0.961208 0.500328 0.844375 -0.040570
C32   C     C_R   0.038793 0.499677 0.155625 -0.040579
C33   C     C_R   0.375901 0.995597 0.786310 0.096626
C34   C     C_R   0.624096 0.004411 0.213689 0.096676
C35   C     C_R   0.875900 0.504387 0.786307 0.096555
C36   C     C_R   0.124101 0.495622 0.213693 0.096543
C37   C     C_R   0.515827 0.001517 0.968219 0.149077
C38   C     C_R   0.484171 0.998493 0.031779 0.149078
C39   C     C_R   0.015830 0.498500 0.968221 0.148992
C40   C     C_R   0.984171 0.501508 0.031779 0.148987
C41   C     C_R   0.398986 0.993470 0.969335 -0.189919
C42   C     C_R   0.601011 0.006540 0.030663 -0.189849
C43   C     C_R   0.898982 0.506509 0.969330 -0.189970
C44   C     C_R   0.101019 0.493502 0.030670 -0.189999
C45   C     C_R   0.346487 0.992243 0.850068 -0.045553
C46   C     C_R   0.653510 0.007768 0.149930 -0.045395
C47   C     C_R   0.846482 0.507730 0.850063 -0.045665
C48   C     C_R   0.153519 0.492282 0.149938 -0.045723
C49   C     C_R   0.657886 0.138614 0.700558 -0.059996
C50   C     C_R   0.342122 0.861378 0.299448 -0.060003
C51   C     C_R   0.334646 0.132867 0.290313 -0.061506
C52   C     C_R   0.665346 0.867125 0.709674 -0.061504
C53   C     C_R   0.165295 0.632916 0.709606 -0.061525
C54   C     C_R   0.834726 0.367068 0.290421 -0.061520
C55   C     C_R   0.842150 0.638649 0.299476 -0.060015
C56   C     C_R   0.157851 0.361351 0.700525 -0.060019
C57   C     C_R   0.748553 0.222689 0.733113 -0.105721
C58   C     C_R   0.251432 0.777313 0.266873 -0.105730
C59   C     C_R   0.221525 0.200726 0.232080 -0.113184
C60   C     C_R   0.778430 0.799233 0.767858 -0.113175
C61   C     C_R   0.278251 0.700928 0.767628 -0.113128
C62   C     C_R   0.721859 0.298979 0.232504 -0.113109
C63   C     C_R   0.751409 0.722683 0.266862 -0.105804
C64   C     C_R   0.248636 0.277342 0.733179 -0.105837
C65   C     C_R   0.701027 0.170532 0.670030 -0.189215
C66   C     C_R   0.298955 0.829475 0.329950 -0.189205
C67   C     C_R   0.280150 0.156613 0.307846 -0.186301
C68   C     C_R   0.719820 0.843360 0.692112 -0.186298
C69   C     C_R   0.219705 0.656742 0.691964 -0.186287
C70   C     C_R   0.780372 0.343193 0.308130 -0.186297
C71   C     C_R   0.798923 0.670510 0.329920 -0.189191
C72   C     C_R   0.201107 0.329507 0.670110 -0.189180
C73   C     C_R   0.663430 0.158771 0.795063 -0.203100
C74   C     C_R   0.336610 0.841198 0.204978 -0.203110
C75   C     C_R   0.329279 0.152952 0.195849 -0.209770
C76   C     C_R   0.670725 0.847046 0.804152 -0.209761
C77   C     C_R   0.170676 0.652990 0.804083 -0.209726
C78   C     C_R   0.829321 0.347016 0.195916 -0.209697
C79   C     C_R   0.836718 0.658888 0.205096 -0.203174
C80   C     C_R   0.163264 0.341097 0.794882 -0.203195
C81   C     C_R   0.706747 0.213458 0.855952 0.064127
C82   C     C_R   0.293294 0.786507 0.144095 0.064128
C83   C     C_R   0.268200 0.194931 0.114810 0.065218
C84   C     C_R   0.731793 0.805054 0.885171 0.065221
C85   C     C_R   0.231685 0.695045 0.885027 0.065240
C86   C     C_R   0.768362 0.304916 0.115030 0.065243
C87   C     C_R   0.793396 0.713582 0.144226 0.064145
C88   C     C_R   0.206602 0.286410 0.855762 0.064157
C89   C     C_R   0.751996 0.244839 0.826084 0.062178
C90   C     C_R   0.248016 0.755144 0.173932 0.062174
C91   C     C_R   0.215187 0.220816 0.135834 0.062852
C92   C     C_R   0.784778 0.779147 0.864112 0.062856
C93   C     C_R   0.284601 0.721011 0.863883 0.062865
C94   C     C_R   0.715494 0.278910 0.136231 0.062873
C95   C     C_R   0.748049 0.744899 0.173990 0.062204
C96   C     C_R   0.251982 0.255114 0.826033 0.062198
C97   C     C_R   0.707222 0.236729 0.946874 0.001346
C98   C     C_R   0.292841 0.763218 0.053202 0.001336
C99   C     C_R   0.260569 0.213157 0.015750 0.002387
C100  C     C_R   0.739437 0.786835 0.984243 0.002387
C101  C     C_R   0.239339 0.713261 0.984108 0.002380
C102  C     C_R   0.760705 0.286700 0.015946 0.002387
C103  C     C_R   0.792985 0.736909 0.053391 0.001309
C104  C     C_R   0.207000 0.263070 0.946579 0.001301
C105  C     C_R   0.345778 0.787258 0.031234 -0.227013
C106  C     C_R   0.654326 0.212657 0.968893 -0.227008
C107  C     C_R   0.696576 0.817975 0.017665 -0.220420
C108  C     C_R   0.303464 0.182039 0.982363 -0.220427
C109  C     C_R   0.803487 0.317885 0.982435 -0.220374
C110  C     C_R   0.196542 0.682083 0.017601 -0.220385
C111  C     C_R   0.153959 0.287023 0.968412 -0.227020
C112  C     C_R   0.845996 0.712930 0.031519 -0.227018
Cu1   Cu    Cu3+1 0.526640 0.000000 0.436960 0.960797
Cu2   Cu    Cu3+1 0.473360 0.000000 0.563040 0.960801
Cu3   Cu    Cu3+1 0.026640 0.500000 0.436960 0.960779
Cu4   Cu    Cu3+1 0.973360 0.500000 0.563040 0.960775
H1    H     H_    0.370361 0.990328 0.010231 0.119643
H2    H     H_    0.629635 0.009681 0.989767 0.119619
H3    H     H_    0.870354 0.509638 0.010223 0.119685
H4    H     H_    0.129648 0.490376 0.989778 0.119695
H5    H     H_    0.365830 0.869846 0.179423 0.147629
H6    H     H_    0.634230 0.130108 0.820630 0.147603
H7    H     H_    0.624797 0.863598 0.810962 0.159092
H8    H     H_    0.375221 0.136413 0.189063 0.159097
H9    H     H_    0.875149 0.363685 0.188985 0.159024
H10   H     H_    0.124792 0.636382 0.810945 0.159071
H11   H     H_    0.133963 0.369690 0.820374 0.147714
H12   H     H_    0.865994 0.630281 0.179583 0.147695
H13   H     H_    0.302266 0.844525 0.402915 0.173167
H14   H     H_    0.697691 0.155499 0.597037 0.173171
H15   H     H_    0.716735 0.858391 0.619321 0.173648
H16   H     H_    0.283225 0.141576 0.380626 0.173648
H17   H     H_    0.783482 0.358197 0.380950 0.173651
H18   H     H_    0.216614 0.641720 0.619167 0.173648
H19   H     H_    0.197869 0.344610 0.597228 0.173160
H20   H     H_    0.802176 0.655418 0.402819 0.173161
H21   H     H_    0.318237 0.719051 0.749847 0.199461
H22   H     H_    0.681913 0.280821 0.250332 0.199462
H23   H     H_    0.718318 0.745702 0.292517 0.201130
H24   H     H_    0.281751 0.254339 0.707549 0.201125
H25   H     H_    0.781570 0.245756 0.707381 0.201142
H26   H     H_    0.218394 0.754260 0.292581 0.201139
H27   H     H_    0.181469 0.218788 0.249773 0.199462
H28   H     H_    0.818467 0.781156 0.750139 0.199460
H29   H     H_    0.393082 0.821000 0.086764 0.182662
H30   H     H_    0.607040 0.178897 0.913393 0.182642
H31   H     H_    0.661169 0.860038 0.975548 0.169430
H32   H     H_    0.338892 0.139985 0.024497 0.169447
H33   H     H_    0.838866 0.359956 0.024508 0.169420
H34   H     H_    0.161173 0.640003 0.975530 0.169422
H35   H     H_    0.106601 0.320716 0.912798 0.182716
H36   H     H_    0.893337 0.679221 0.087109 0.182704
H37   H     H_    0.281816 0.988632 0.808145 0.197199
H38   H     H_    0.718180 0.011379 0.191853 0.197192
H39   H     H_    0.781809 0.511322 0.808137 0.197229
H40   H     H_    0.218192 0.488693 0.191864 0.197235
H41   H     H_    0.448732 0.996801 0.188189 0.128534
H42   H     H_    0.551268 0.003208 0.811811 0.128523
H43   H     H_    0.948730 0.503175 0.188188 0.128554
H44   H     H_    0.051270 0.496822 0.811811 0.128566
H45   H     H_    0.689630 0.003826 0.489809 0.159781
H46   H     H_    0.310370 0.996170 0.510191 0.159776
H47   H     H_    0.189633 0.496207 0.489813 0.159781
H48   H     H_    0.810367 0.503797 0.510188 0.159794
N1    N     N_R   0.433280 0.000000 0.657760 -0.206313
N2    N     N_R   0.566720 0.000000 0.342240 -0.206317
N3    N     N_R   0.933280 0.500000 0.657760 -0.206321
N4    N     N_R   0.066720 0.500000 0.342240 -0.206315
O1    O     O_R   0.600040 0.935040 0.546740 -0.579961
O2    O     O_R   0.399960 0.064960 0.453260 -0.579956
O3    O     O_R   0.399960 0.935040 0.453260 -0.583672
O4    O     O_R   0.600040 0.064960 0.546740 -0.583673
O5    O     O_R   0.100040 0.435040 0.546740 -0.583653
O6    O     O_R   0.899960 0.564960 0.453260 -0.583654
O7    O     O_R   0.899960 0.435040 0.453260 -0.579975
O8    O     O_R   0.100040 0.564960 0.546740 -0.579970
O9    O     O_R   0.555010 0.935070 0.653220 -0.586318
O10   O     O_R   0.444990 0.064930 0.346780 -0.586321
O11   O     O_R   0.444990 0.935070 0.346780 -0.585384
O12   O     O_R   0.555010 0.064930 0.653220 -0.585379
O13   O     O_R   0.055010 0.435070 0.653220 -0.585400
O14   O     O_R   0.944990 0.564930 0.346780 -0.585394
O15   O     O_R   0.944990 0.435070 0.346780 -0.586330
O16   O     O_R   0.055010 0.564930 0.653220 -0.586326
Cl1   Cl    Cl    0.411264 0.800522 0.920290 -0.585115
Cl2   Cl    Cl    0.588917 0.199327 0.079928 -0.585185
Cl3   Cl    Cl    0.644147 0.840194 0.143604 -0.592850
Cl4   Cl    Cl    0.355947 0.159856 0.856481 -0.592823
Cl5   Cl    Cl    0.855783 0.340195 0.856356 -0.592699
Cl6   Cl    Cl    0.144206 0.659798 0.143638 -0.592714
Cl7   Cl    Cl    0.088309 0.300142 0.079154 -0.584882
Cl8   Cl    Cl    0.911598 0.699773 0.920720 -0.584939
Cl9   Cl    Cl    0.214594 0.990600 0.586358 -0.582971
Cl10  Cl    Cl    0.785404 0.009403 0.413640 -0.582936
Cl11  Cl    Cl    0.714587 0.509336 0.586351 -0.582965
Cl12  Cl    Cl    0.285414 0.490677 0.413650 -0.582984

loop_
_geom_bond_atom_site_label_1
_geom_bond_atom_site_label_2
_ccdc_geom_bond_type
C79   H12   S    
C88   C96   A    
C19   Cl11  S    
C69   H18   S    
C29   C33   A    
C18   Cl10  S    
C33   C45   A    
C5    C56   S    
C17   Cl9   S    
C67   H16   S    
C6    C55   S    
C61   H21   S    
C78   C86   A    
C76   C84   A    
C79   C87   A    
C65   H14   S    
C13   Cl5   S    
Cu4   O6    S    
C99   C108  A    
C30   C38   A    
C37   C38   A    
C98   C105  A    
C57   C89   A    
C6    O14   A    
C11   Cl3   S    
C106  H30   S    
C32   C36   A    
C24   N4    A    
C74   C82   A    
C23   H48   S    
C9    Cl1   S    
C50   C74   A    
C64   H24   S    
Cu3   N4    S    
C61   C93   A    
C108  H32   S    
C10   C94   A    
C9    C105  A    
Cu3   Cu4   S    
C12   Cl4   S    
C63   C95   A    
C21   N1    A    
C62   C70   A    
C26   H41   S    
Cu2   O2    S    
C42   C46   A    
C5    O13   A    
C37   C42   A    
C44   H4    S    
C3    O11   A    
C14   C90   A    
C13   C109  A    
C86   C94   A    
C59   C67   A    
C1    O9    A    
C58   C66   A    
C40   C43   A    
C20   C24   A    
C56   C72   A    
C87   C95   A    
C70   H17   S    
C112  H36   S    
Cu4   N3    S    
C36   C48   A    
C34   C46   A    
C16   Cl8   S    
C97   C102  A    
C52   C68   A    
C66   H13   S    
C81   C89   A    
C8    O16   A    
C32   C40   A    
Cu1   O10   S    
C48   H40   S    
C59   H27   S    
C83   C99   A    
C82   C98   A    
C85   C93   A    
C4    O12   A    
C73   C81   A    
C88   C104  A    
C3    C50   S    
Cu1   O4    S    
C60   C92   A    
C25   C29   A    
Cu2   O3    S    
C46   H38   S    
C30   C34   A    
C27   C31   A    
C75   H8    S    
C84   C100  A    
C75   C83   A    
C15   C111  A    
C107  H31   S    
C28   C32   A    
C64   C96   A    
C38   C41   A    
C57   C65   A    
C39   C40   A    
C12   C108  A    
C22   H45   S    
C28   N4    A    
C19   C23   A    
C42   H2    S    
C72   H19   S    
Cu1   O1    S    
C6    O6    A    
C25   N1    A    
C53   C69   A    
C100  C103  A    
C17   C21   A    
C7    O7    A    
C103  C112  A    
C22   N2    A    
C68   H15   S    
C109  H33   S    
Cu3   O8    S    
C10   Cl2   S    
C55   C79   A    
C58   H26   S    
C54   C70   A    
Cu2   O9    S    
C105  H29   S    
Cu4   O13   S    
C8    O8    A    
C52   C76   A    
C17   C33   A    
C51   C67   A    
C82   C90   A    
C62   H22   S    
C84   C92   A    
C18   C34   A    
C49   C65   A    
C2    O2    A    
C23   N3    A    
C97   C106  A    
Cu1   O11   S    
C63   C71   A    
C16   C92   A    
Cu2   O12   S    
C62   C94   A    
C11   C107  A    
C53   C77   A    
C87   C103  A    
C10   C106  A    
C24   H47   S    
C45   H37   S    
C86   C102  A    
C9    C93   A    
C71   H20   S    
Cu3   O14   S    
C85   C101  A    
C16   C112  A    
Cu2   N1    S    
Cu1   Cu2   S    
C59   C91   A    
C11   C95   A    
C14   C110  A    
C15   Cl7   S    
C26   N2    A    
C100  C107  A    
C21   H46   S    
C4    O4    A    
Cu4   O7    S    
C13   C89   A    
C18   C22   A    
C76   H7    S    
C5    O5    A    
C101  C110  A    
C51   C75   A    
C110  H34   S    
C111  H35   S    
C8    C53   S    
C104  C111  A    
Cu3   O15   S    
C50   C66   A    
C26   C30   A    
C39   C44   A    
C80   H11   S    
C63   H23   S    
C98   C101  A    
C83   C91   A    
C56   C80   A    
C57   H25   S    
C4    C49   S    
C58   C90   A    
C61   C69   A    
C27   H44   S    
Cu1   N2    S    
C80   C88   A    
C19   C35   A    
C60   H28   S    
C3    O3    A    
C47   H39   S    
C77   C85   A    
Cu4   O16   S    
C31   C35   A    
C1    O1    A    
C81   C97   A    
C31   C39   A    
C99   C104  A    
C49   C73   A    
C7    O15   A    
C64   C72   A    
C1    C52   S    
C2    C51   S    
C28   H43   S    
C15   C91   A    
C14   Cl6   S    
C74   H5    S    
C60   C68   A    
Cu3   O5    S    
C73   H6    S    
C29   C37   A    
C25   H42   S    
C20   C36   A    
C41   C45   A    
C12   C96   A    
C102  C109  A    
C2    O10   A    
C7    C54   S    
C41   H1    S    
C35   C47   A    
C78   H9    S    
C43   C47   A    
C20   Cl12  S    
C27   N3    A    
C55   C71   A    
C77   H10   S    
C44   C48   A    
C43   H3    S    
C54   C78   A    
