data_mof_unit_43987.cif
_audit_creation_date              2012-12-11T20:57:51-0500
_audit_creation_method            fapswitch 2.2
_symmetry_space_group_name_H-M    P1
_symmetry_Int_Tables_number       1
_space_group_crystal_system       triclinic
_cell_length_a                    8.254735
_cell_length_b                    18.796988
_cell_length_c                    22.892513
_cell_angle_alpha                 99.39298
_cell_angle_beta                  90.241852
_cell_angle_gamma                 91.881429
_cell_volume                      3502.41698386

loop_
_atom_site_label
_atom_site_type_symbol
_atom_type_description
_atom_site_fract_x
_atom_site_fract_y
_atom_site_fract_z
_atom_type_partial_charge
Ba1   Ba    Ba6+2 0.157800 0.534120 0.474430 1.652798
Ba2   Ba    Ba6+2 0.652390 0.465870 0.525520 1.645055
C1    C     C_3   0.481221 0.706733 0.269350 -0.338384
C2    C     C_R   0.070013 0.904959 0.564105 -0.096817
C3    C     C_R   0.204554 0.049248 0.555180 -0.104092
C4    C     C_3   0.991076 0.728133 0.327025 0.746561
C5    C     C_R   0.049025 0.024961 0.532724 0.019442
C6    C     C_R   0.262326 0.119346 0.554517 -0.094242
C7    C     C_R   0.168851 0.168832 0.531051 -0.031157
C8    C     C_R   0.017245 0.145024 0.504167 -0.000911
C9    C     C_R   0.956552 0.072956 0.505200 0.023276
C10   C     C_R   0.222194 0.241552 0.533755 -0.009206
C11   C     C_R   0.123367 0.289796 0.511346 -0.296095
C12   C     C_3   0.445938 0.684530 0.329203 0.272235
C13   C     C_R   0.980518 0.266628 0.480269 0.037522
C14   C     C_R   0.927305 0.193021 0.475732 -0.041635
C15   C     C_R   0.831975 0.931012 0.509704 0.023554
C16   C     C_3   0.078622 0.785763 0.296581 -0.293166
C17   C     C_R   0.772724 0.858468 0.509363 0.003564
C18   C     C_R   0.869948 0.808480 0.532479 -0.034520
C19   C     C_R   0.013061 0.834378 0.562847 -0.032530
C20   C     C_R   0.787927 0.165530 0.443524 -0.015726
C21   C     C_R   0.725991 0.096200 0.445808 -0.087041
C22   C     C_R   0.804035 0.049589 0.478683 0.009366
C23   C     C_3   0.481984 0.687213 0.623901 0.307303
C24   C     C_R   0.738025 0.979555 0.483457 0.016702
C25   C     C_R   0.579232 0.956603 0.463778 -0.108453
C26   C     C_R   0.618357 0.835391 0.484388 -0.041633
C27   C     C_R   0.520883 0.886310 0.464398 -0.108792
C28   C     C_3   0.820758 0.374157 0.342965 0.320194
C29   C     C_R   0.569536 0.761448 0.477909 0.000140
C30   C     C_R   0.673384 0.712210 0.496542 -0.289865
C31   C     C_R   0.821075 0.734318 0.524477 0.049356
C32   C     C_R   0.635357 0.526627 0.333311 -0.381499
C33   C     C_R   0.383380 0.550354 0.943944 -0.026079
C34   C     C_3   0.481135 0.768433 0.643797 -0.391181
C35   C     C_R   0.328597 0.546531 0.885151 0.587422
C36   C     C_R   0.278004 0.418650 0.877113 0.577288
C37   C     C_R   0.339896 0.420062 0.935027 -0.021440
C38   C     C_R   0.391016 0.486569 0.968731 -0.050590
C39   C     C_R   0.431056 0.616611 0.978449 -0.078720
C40   C     C_3   0.775719 0.350334 0.277388 0.298561
C41   C     C_R   0.482739 0.619761 0.036825 -0.074530
C42   C     C_R   0.490565 0.556611 0.062201 -0.017900
C43   C     C_R   0.447913 0.489591 0.027784 -0.057556
C44   C     C_R   0.352696 0.356730 0.960015 -0.073164
C45   C     C_3   0.896780 0.277770 0.645112 0.352184
C46   C     C_R   0.414671 0.359464 0.017435 -0.076112
C47   C     C_R   0.461215 0.425839 0.052294 -0.047991
C48   C     C_R   0.515458 0.430507 0.111700 0.614877
C49   C     C_R   0.536201 0.559591 0.121776 0.562463
C50   C     C_2   0.077807 0.462171 0.771601 -0.067571
C51   C     C_3   0.028705 0.474011 0.709948 -0.049573
C52   C     C_3   0.000050 0.627777 0.657190 0.291853
C53   C     C_1   0.308234 0.505243 0.692805 0.018057
C54   C     C_2   0.353630 0.501931 0.747860 -0.104150
C55   C     C_2   0.232567 0.478870 0.790573 0.210904
C56   C     C_3   0.907804 0.203900 0.663504 -0.366105
C57   C     C_R   0.715104 0.539803 0.234227 -0.150036
C58   C     C_R   0.744895 0.552070 0.295057 0.007696
C59   C     C_R   0.497497 0.485934 0.311709 -0.007505
C60   C     C_R   0.459112 0.476526 0.249927 0.355464
C61   C     C_R   0.571729 0.503747 0.210505 0.149143
C62   C     C_2   0.174309 0.471749 0.670135 -0.284842
C63   C     C_3   0.040396 0.655704 0.722084 -0.361402
C64   C     C_3   0.315492 0.313960 0.393097 0.306950
C65   C     C_3   0.311098 0.232409 0.374384 -0.380735
C66   C     C_3   0.013760 0.311940 0.230659 0.258690
C67   C     C_3   0.404623 0.305364 0.677048 0.294398
C68   C     C_3   0.779403 0.805831 0.353464 0.024589
C69   C     C_3   0.219316 0.474916 0.196091 0.266298
C70   C     C_3   0.456437 0.288863 0.737033 -0.315230
C71   C     C_R   0.985932 0.953878 0.535328 0.012734
H1    H     H_    0.364873 0.635382 0.322150 0.070354
H2    H     H_    0.395545 0.328073 0.432659 0.070294
H3    H     H_    0.381191 0.687590 0.237487 0.123990
H4    H     H_    0.228373 0.216810 0.335691 0.131564
H5    H     H_    0.267408 0.205194 0.411034 0.058187
H6    H     H_    0.434683 0.213883 0.362190 0.124836
H7    H     H_    0.562841 0.671400 0.348544 0.033349
H8    H     H_    0.595057 0.682507 0.251837 0.182140
H9    H     H_    0.608922 0.671502 0.614648 0.025448
H10   H     H_    0.407621 0.673948 0.582760 0.051318
H11   H     H_    0.555887 0.783839 0.684625 0.135620
H12   H     H_    0.645129 0.333917 0.274500 0.085869
H13   H     H_    0.531991 0.796555 0.608620 0.057070
H14   H     H_    0.355026 0.785708 0.652840 0.115705
H15   H     H_    0.497268 0.766210 0.273301 0.130705
H16   H     H_    0.012245 0.792416 0.255602 0.108514
H17   H     H_    0.800852 0.274607 0.610476 0.097244
H18   H     H_    0.015405 0.292342 0.626953 -0.053615
H19   H     H_    0.791471 0.188710 0.683133 0.134264
H20   H     H_    0.932878 0.162701 0.624497 0.077561
H21   H     H_    0.007014 0.204772 0.696569 0.126911
H22   H     H_    0.270210 0.301904 0.673913 -0.023619
H23   H     H_    0.789639 0.396466 0.252654 -0.069888
H24   H     H_    0.448141 0.361059 0.674119 0.085824
H25   H     H_    0.431741 0.335423 0.771672 0.122933
H26   H     H_    0.588374 0.279619 0.737763 0.153713
H27   H     H_    0.035808 0.732652 0.373447 0.035914
H28   H     H_    0.389382 0.240030 0.746778 0.118023
H29   H     H_    0.163523 0.345722 0.514957 0.068352
H30   H     H_    0.381684 0.133981 0.572993 0.117167
H31   H     H_    0.084865 0.800578 0.585843 0.096352
H32   H     H_    0.722717 0.197394 0.416673 0.103464
H33   H     H_    0.399715 0.871960 0.447419 0.107294
H34   H     H_    0.110945 0.607968 0.634113 0.025793
H35   H     H_    0.636560 0.655698 0.490658 0.072631
H36   H     H_    0.286874 0.015213 0.573387 0.073857
H37   H     H_    0.181333 0.919279 0.588456 0.061546
H38   H     H_    0.617708 0.079917 0.419928 0.061298
H39   H     H_    0.495697 0.992290 0.448050 0.075635
H40   H     H_    0.422496 0.309512 0.034947 0.123770
H41   H     H_    0.315764 0.304678 0.935051 0.120998
H42   H     H_    0.515787 0.672093 0.062183 0.124422
H43   H     H_    0.804653 0.557886 0.204950 0.116395
H44   H     H_    0.426801 0.666496 0.960637 0.125183
H45   H     H_    0.907356 0.583199 0.654007 0.046116
H46   H     H_    0.476070 0.518272 0.762923 0.110357
H47   H     H_    0.985966 0.448818 0.802225 0.096455
H48   H     H_    0.664144 0.534115 0.380129 0.099963
H49   H     H_    0.088410 0.838383 0.326768 0.044849
H50   H     H_    0.175172 0.437019 0.627285 0.061628
H51   H     H_    0.202040 0.770281 0.283583 0.121085
H52   H     H_    0.715184 0.399616 0.366467 -0.071010
H53   H     H_    0.923078 0.414223 0.346681 0.035312
H54   H     H_    0.084008 0.348471 0.265545 0.077993
H55   H     H_    0.995691 0.337900 0.190969 0.034261
H56   H     H_    0.124809 0.703507 0.725696 0.150494
H57   H     H_    0.086646 0.263585 0.217072 0.073452
H58   H     H_    0.791611 0.844892 0.322094 0.072652
H59   H     H_    0.852531 0.825284 0.394119 0.033050
H60   H     H_    0.650722 0.804608 0.365699 0.110943
H61   H     H_    0.234022 0.457370 0.148087 0.004967
H62   H     H_    0.235835 0.534737 0.207468 0.029169
H63   H     H_    0.091134 0.460391 0.203804 0.057058
H64   H     H_    0.099153 0.614209 0.743130 0.084223
H65   H     H_    0.927774 0.671537 0.746500 0.118618
H66   H     H_    0.191494 0.331770 0.403663 -0.001886
N1    N     N_R   0.278637 0.481096 0.852150 -0.428410
N2    N     N_R   0.541585 0.497353 0.146964 -0.427051
O1    O     O_2   0.110690 0.676100 0.539200 -0.472433
O2    O     O_2   0.694466 0.443589 0.699276 -0.497439
O3    O     O_3   0.858253 0.328090 0.694902 -0.597897
O4    O     O_3   0.863220 0.586720 0.534720 -0.481717
O5    O     O_3   0.450900 0.461390 0.429220 -0.490152
O6    O     O_2   0.599830 0.538970 0.641850 -0.461010
O7    O     O_3   0.417731 0.652676 0.669054 -0.633344
O8    O     O_2   0.556676 0.243767 0.522625 -0.490170
O9    O     O_3   0.473473 0.255473 0.632601 -0.607528
O10   O     O_2   0.323748 0.601666 0.863371 -0.593243
O11   O     O_2   0.224102 0.361955 0.848945 -0.603498
O12   O     O_3   0.373756 0.345617 0.345909 -0.626120
O13   O     O_2   0.534366 0.375463 0.132512 -0.564732
O14   O     O_2   0.569410 0.618161 0.151548 -0.623454
O15   O     O_3   0.368310 0.629070 0.432760 -0.484067
O16   O     O_2   0.225230 0.753925 0.468265 -0.495154
O17   O     O_3   0.938818 0.684894 0.633022 -0.643528
O18   O     O_3   0.371197 0.740801 0.366515 -0.625096
O19   O     O_2   0.210480 0.460990 0.358130 -0.440695
O20   O     O_3   0.959520 0.592090 0.401630 -0.473868
O21   O     O_2   0.054408 0.527852 0.300028 -0.495617
O22   O     O_3   0.863396 0.289708 0.251758 -0.613779
O23   O     O_3   0.031319 0.660497 0.295362 -0.613691
O24   O     O_3   0.821235 0.736138 0.325614 -0.696730
O25   O     O_3   0.320038 0.436279 0.229322 -0.632804
O26   O     O_2   0.699610 0.323860 0.460780 -0.464505
O27   O     O_3   0.947090 0.413280 0.465240 -0.489204
O28   O     O_3   0.442000 0.370930 0.567190 -0.480399
O29   O     O_3   0.865902 0.313913 0.367041 -0.618918
O30   O     O_3   0.359410 0.538600 0.570730 -0.476301
O31   O     O_3   0.850780 0.407910 0.598320 -0.483182
P1    P     P_3+3 0.935930 0.665430 0.555670 0.979695
P2    P     P_3+3 0.382700 0.439650 0.365620 1.026941
P3    P     P_3+3 0.941698 0.588104 0.324870 0.970777
P4    P     P_3+3 0.874370 0.334570 0.444280 0.984499
P5    P     P_3+3 0.858307 0.414373 0.675458 0.962733
P6    P     P_3+3 0.381588 0.722780 0.438900 0.933301
P7    P     P_3+3 0.417045 0.559259 0.645393 0.958702
P8    P     P_3+3 0.422311 0.277528 0.563706 0.926495

loop_
_geom_bond_atom_site_label_1
_geom_bond_atom_site_label_2
_ccdc_geom_bond_type
O31   P5    S    
C32   C58   A    
C53   C54   D    
C28   H53   S    
C25   C27   A    
Ba1   O4    S    
C17   C18   A    
C65   H4    S    
C48   O13   D    
C69   H61   S    
C5    C71   A    
C52   C63   S    
C70   H25   S    
C42   C43   A    
Ba2   O4    S    
C5    C9    A    
C49   O14   D    
C24   C25   A    
C13   P4    S    
C40   H23   S    
C67   O9    S    
C12   H1    S    
C26   C27   A    
C33   C35   A    
C56   H20   S    
C22   C24   A    
C69   H62   S    
C36   C37   A    
O20   P3    S    
C51   C62   S    
O26   P4    D    
C70   H28   S    
C13   C14   A    
C9    C22   A    
C54   C55   S    
O23   P3    S    
Ba1   Ba2   S    
C28   O29   S    
Ba1   O1    S    
Ba2   P4    S    
C19   H31   S    
O15   P6    S    
C64   H66   S    
C6    C7    A    
C69   O25   S    
C1    H8    S    
C68   H60   S    
C21   C22   A    
C12   H7    S    
C31   P1    S    
C7    C8    A    
C66   H55   S    
O28   P8    S    
C48   N2    Am   
Ba2   O30   S    
Ba1   O15   S    
C63   H64   S    
C52   H34   S    
C64   C65   S    
C4    O24   S    
Ba1   O20   S    
C57   C58   A    
C15   C71   A    
C39   C41   A    
O30   P7    S    
Ba1   O5    S    
C65   H5    S    
O19   P2    D    
C35   O10   D    
C36   O11   D    
C6    H30   S    
O1    P1    D    
C49   N2    Am   
C34   H14   S    
C38   C43   A    
C4    C16   S    
C44   C46   A    
Ba1   P2    S    
C44   H41   S    
C29   P6    S    
O12   P2    S    
O3    P5    S    
C65   H6    S    
C8    C9    A    
C68   O24   S    
C69   H63   S    
C3    C5    A    
C40   O22   S    
C57   H43   S    
O29   P4    S    
O21   P3    D    
C63   H65   S    
Ba1   O27   S    
C34   H13   S    
Ba2   O6    S    
C45   O3    S    
Ba1   O30   S    
O8    P8    D    
C55   N1    S    
C41   H42   S    
C32   H48   S    
C4    H27   S    
C67   C70   S    
C41   C42   A    
C60   C61   A    
C1    H3    S    
C52   O17   S    
O17   P1    S    
C29   C30   A    
C43   C47   A    
Ba1   P1    S    
C53   C62   D    
C68   H59   S    
C61   N2    S    
C40   H12   S    
C10   C11   A    
C66   H57   S    
C17   C26   A    
C66   H54   S    
C2    C71   A    
C1    C12   S    
C23   C34   S    
C16   H49   S    
C37   C44   A    
C18   C31   A    
C50   H47   S    
C42   C49   A    
C46   C47   A    
C10   P8    S    
C4    O23   S    
C25   H39   S    
O7    P7    S    
C52   H45   S    
C23   H9    S    
C54   H46   S    
C27   H33   S    
C15   C24   A    
O18   P6    S    
C15   C17   A    
C20   H32   S    
Ba2   O27   S    
C37   C38   A    
C50   C51   S    
O9    P8    S    
C66   O22   S    
O27   P4    S    
C2    H37   S    
C14   C20   A    
C60   O25   S    
C1    H15   S    
C64   O12   S    
C16   H16   S    
C45   H18   S    
C26   C29   A    
C59   P2    S    
O4    P1    S    
C67   H22   S    
C51   P5    S    
O2    P5    D    
C3    C6    A    
C63   H56   S    
Ba2   O5    S    
C62   H50   S    
C21   H38   S    
C57   C61   A    
C12   O18   S    
C30   C31   A    
C11   C13   A    
C33   C38   A    
C56   H21   S    
C8    C14   A    
C45   C56   S    
C2    C19   A    
Ba1   O19   S    
C3    H36   S    
C34   H11   S    
C64   H2    S    
O5    P2    S    
C68   H58   S    
C45   H17   S    
C23   O7    S    
O16   P6    D    
C32   C59   A    
C59   C60   A    
C33   C39   A    
C7    C10   A    
C28   H52   S    
C50   C55   D    
Ba2   O28   S    
O6    P7    D    
C53   P7    S    
C18   C19   A    
C47   C48   A    
C30   H35   S    
C16   H51   S    
C23   H10   S    
C58   P3    S    
C36   N1    Am   
C20   C21   A    
C28   C40   S    
C35   N1    Am   
C39   H44   S    
C11   H29   S    
C56   H19   S    
Ba2   O26   S    
Ba2   O31   S    
C46   H40   S    
C70   H26   S    
C67   H24   S    
