data_mof_unit_18228.cif
_audit_creation_date              2013-03-05T16:48:11-0500
_audit_creation_method            fapswitch 2.2
_symmetry_space_group_name_H-M    P1
_symmetry_Int_Tables_number       1
_space_group_crystal_system       triclinic
_cell_length_a                    10.823218
_cell_length_b                    12.352027
_cell_length_c                    13.229951
_cell_angle_alpha                 116.698892
_cell_angle_beta                  77.154723
_cell_angle_gamma                 100.979828
_cell_volume                      1532.22058315

loop_
_atom_site_label
_atom_site_type_symbol
_atom_site_description
_atom_site_fract_x
_atom_site_fract_y
_atom_site_fract_z
_atom_type_partial_charge
O1    O     O_R   0.536940 0.972510 0.318130 -0.594492
O2    O     O_R   0.487330 0.806530 0.359650 -0.598204
C1    C     C_R   0.517774 0.854863 0.286666 0.744203
O3    O     O_R   0.705160 0.082990 0.479250 -0.590705
O4    O     O_R   0.655550 0.917010 0.520760 -0.593300
C2    C     C_R   0.737048 0.000301 0.501084 0.769100
Cu1   Cu    Cu3+1 0.529370 0.098270 0.475420 0.991625
Cu2   Cu    Cu3+1 0.470630 0.901730 0.524580 0.935941
O5    O     O_R   0.512670 0.193470 0.640350 -0.516400
O6    O     O_R   0.463060 0.027490 0.681870 -0.592766
O7    O     O_R   0.344450 0.082990 0.479240 -0.523503
O8    O     O_R   0.294840 0.917010 0.520750 -0.599141
C3    C     C_R   0.480839 0.145350 0.712998 0.808735
C4    C     C_R   0.263276 0.998581 0.496448 0.800758
H1    H     H_    0.608968 0.855487 0.903694 0.150073
C5    C     C_R   0.677983 0.991844 0.840018 -0.142321
H2    H     H_    0.625307 0.061420 0.911285 0.135626
C6    C     C_R   0.753545 0.017813 0.751613 -0.096574
H3    H     H_    0.759914 0.108253 0.755773 0.090316
C7    C     C_R   0.822471 0.927983 0.659311 0.132166
C8    C     C_R   0.812904 0.811259 0.655529 -0.160667
H4    H     H_    0.865452 0.740949 0.584918 0.127208
C9    C     C_R   0.735527 0.785034 0.743197 -0.127025
H5    H     H_    0.727577 0.694706 0.739544 0.152689
C10   C     C_R   0.669154 0.875634 0.835895 -0.152727
C11   C     C_R   0.039770 0.956139 0.563505 -0.241667
H6    H     H_    0.070655 0.928552 0.619522 0.156415
C12   C     C_R   0.129993 0.997524 0.491911 -0.067520
C13   C     C_R   0.090810 0.042711 0.424040 0.011989
C14   C     C_R   0.960869 0.042400 0.429177 -0.241630
H7    H     H_    0.929713 0.074313 0.375693 0.145344
C15   C     C_R   0.870960 0.000251 0.501169 -0.071205
C16   C     C_R   0.910682 0.958603 0.570717 -0.004620
C17   C     C_R   0.175497 0.212821 0.365152 -0.150041
H8    H     H_    0.101542 0.266284 0.427254 0.129534
C18   C     C_R   0.267017 0.265050 0.302546 -0.166860
H9    H     H_    0.262172 0.357025 0.314934 0.138048
C19   C     C_R   0.366624 0.199741 0.226137 -0.133057
H10   H     H_    0.438409 0.240833 0.179006 0.134462
C20   C     C_R   0.373360 0.081189 0.210355 -0.119101
H11   H     H_    0.451231 0.030972 0.151737 0.122520
C21   C     C_R   0.278654 0.026443 0.268454 -0.083482
H12   H     H_    0.284057 0.933773 0.253895 0.092236
C22   C     C_R   0.181751 0.093607 0.350035 0.119993
C23   C     C_R   0.296955 0.295444 0.005794 -0.200634
H13   H     H_    0.275827 0.124576 0.861430 0.174861
H14   H     H_    0.221032 0.483879 0.195229 0.144460
H15   H     H_    0.210573 0.275091 0.056289 0.136192
C24   C     C_R   0.450498 0.229900 0.832887 -0.045485
C25   C     C_R   0.651037 0.804088 0.097876 -0.211604
C26   C     C_R   0.699529 0.717662 0.991732 -0.170978
C27   C     C_R   0.643589 0.597720 0.951076 -0.142438
C28   C     C_R   0.534304 0.561838 0.015317 0.091897
C29   C     C_R   0.481532 0.652223 0.121463 0.082051
C30   C     C_R   0.474483 0.439936 0.977459 0.084072
C31   C     C_R   0.361660 0.412504 0.044410 0.154472
C32   C     C_R   0.309165 0.503568 0.145645 -0.238690
C33   C     C_R   0.366276 0.621989 0.182213 -0.196975
C34   C     C_R   0.520124 0.344640 0.873514 -0.197992
C35   C     C_R   0.337454 0.207112 0.897956 -0.183473
C36   C     C_R   0.544884 0.771623 0.164958 -0.094593
H16   H     H_    0.605886 0.357913 0.818963 0.133338
H17   H     H_    0.700936 0.894939 0.130231 0.142892
H18   H     H_    0.688002 0.536005 0.868795 0.134695
H19   H     H_    0.783529 0.743103 0.941798 0.142801
H20   H     H_    0.316995 0.690200 0.257685 0.160571
C37   C     C_R   0.681217 0.326601 0.301907 -0.089501
H21   H     H_    0.694566 0.147615 0.287483 0.141648
H22   H     H_    0.743488 0.543928 0.285856 0.167743
N1    N     N_R   0.573890 0.246290 0.438210 -0.230453
C38   C     C_R   0.314113 0.743979 0.631214 0.202301
C39   C     C_R   0.258760 0.629931 0.625834 -0.285698
C40   C     C_R   0.326187 0.530293 0.566946 -0.146609
C41   C     C_R   0.451023 0.542176 0.513427 0.031607
C42   C     C_R   0.493856 0.651637 0.498703 0.268911
C43   C     C_R   0.527063 0.442307 0.462379 -0.122857
C44   C     C_R   0.624292 0.436568 0.370293 0.065968
C45   C     C_R   0.662806 0.541501 0.350245 -0.273613
C46   C     C_R   0.602068 0.647576 0.415575 -0.163924
C47   C     C_R   0.510261 0.348677 0.500740 0.477735
C48   C     C_R   0.654060 0.233141 0.339292 -0.057586
N2    N     N_R   0.426890 0.754320 0.561170 -0.227765
H23   H     H_    0.278563 0.443888 0.562979 0.194215
H24   H     H_    0.167184 0.619625 0.676077 0.159568
H25   H     H_    0.639760 0.721693 0.393573 0.202127
C49   C     C_R   0.756683 0.301539 0.186168 0.118516
C50   C     C_R   0.712997 0.329427 0.108605 -0.165287
C51   C     C_R   0.783100 0.305231 0.999805 -0.152786
C52   C     C_R   0.894932 0.249052 0.965472 -0.082990
C53   C     C_R   0.936455 0.216825 0.039827 -0.139862
C54   C     C_R   0.868805 0.243688 0.149993 -0.175284
H26   H     H_    0.624747 0.370164 0.132148 0.135960
H27   H     H_    0.749959 0.328674 0.941554 0.123414
H28   H     H_    0.948530 0.228898 0.880666 0.135575
H29   H     H_    0.020998 0.170632 0.011653 0.127023
H30   H     H_    0.903997 0.219392 0.206791 0.113151
N3    N     N_R   0.443251 0.370598 0.613525 0.119839
O9    O     O_R   0.334574 0.308878 0.627996 -0.370735
O10   O     O_R   0.482047 0.464445 0.701460 -0.396240
C55   C     C_R   0.264079 0.846928 0.735216 0.156419
C56   C     C_R   0.131977 0.856839 0.763707 -0.207907
C57   C     C_R   0.076936 0.922696 0.877051 -0.157394
C58   C     C_R   0.152512 0.975669 0.963800 -0.133436
C59   C     C_R   0.283231 0.965077 0.936299 -0.163578
C60   C     C_R   0.338503 0.901902 0.822984 -0.117886
H31   H     H_    0.070256 0.804510 0.700019 0.120719
H32   H     H_    0.975054 0.928228 0.898146 0.148675
H33   H     H_    0.110079 0.024478 0.052083 0.133325
H34   H     H_    0.342714 0.006102 0.001792 0.142406
H35   H     H_    0.437942 0.888424 0.804303 0.153140

loop_
_geom_bond_atom_site_label_1
_geom_bond_atom_site_label_2
_geom_bond_distance
_ccdc_geom_bond_type
C2    C15   1.449724 S    
C60   H35   1.077091 S    
C23   C35   1.386861 A    
C56   C57   1.398735 A    
C30   C34   1.409107 A    
C47   N3    1.434005 S    
C40   C41   1.393168 A    
C37   C44   1.417667 A    
C50   C51   1.396826 A    
Cu1   N1    2.045756 S    
N3    O9    1.300326 A    
C32   C33   1.381435 A    
C53   H29   1.076056 S    
C44   C45   1.406428 A    
Cu1   O7    1.965604 S    
O4    C2    1.302746 A    
C11   H6    1.075897 S    
C24   C35   1.391214 A    
C41   C43   1.430422 A    
Cu2   N2    2.033621 S    
H21   C48   1.081747 S    
C18   H9    1.082521 S    
C19   C20   1.397280 A    
C6    H3    1.082976 S    
C49   C54   1.406083 A    
C14   H7    1.084967 S    
O7    C4    1.298538 A    
H1    C10   1.081602 S    
C1    C36   1.467344 S    
C5    C10   1.397244 A    
C31   C32   1.390394 A    
C17   H8    1.083155 S    
C26   H19   1.082772 S    
C52   H28   1.082568 S    
N1    C48   1.360035 A    
O5    C3    1.297642 A    
C54   H30   1.083157 S    
C33   H20   1.081560 S    
C23   C31   1.397027 A    
C5    H2    1.082633 S    
C34   H16   1.076955 S    
C9    H5    1.082337 S    
C58   H33   1.082955 S    
C17   C18   1.398338 A    
C38   N2    1.381662 A    
C20   C21   1.396958 A    
C8    H4    1.083176 S    
C25   H17   1.083742 S    
H22   C45   1.082282 S    
C21   C22   1.405934 A    
O3    Cu1   1.961219 S    
C59   C60   1.393584 A    
N3    O10   1.301322 A    
C28   C30   1.425627 A    
C41   C42   1.427832 A    
N1    C47   1.377091 A    
C26   C27   1.392063 A    
Cu1   Cu2   2.714369 S    
C17   C22   1.407207 A    
C43   C44   1.406211 A    
O3    C2    1.299808 A    
C27   H18   1.076293 S    
C45   C46   1.397770 A    
C28   C29   1.422027 A    
O1    C1    1.306918 A    
C13   C14   1.392207 A    
H14   C32   1.084505 S    
C11   C16   1.384331 A    
Cu2   O8    1.961218 S    
C30   C31   1.421845 A    
C25   C26   1.387695 A    
C55   C60   1.399016 A    
C57   H32   1.083149 S    
C51   C52   1.394676 A    
C39   H24   1.084188 S    
C3    C24   1.457680 S    
C7    C16   1.480409 S    
C5    C6    1.396984 A    
C20   H11   1.082944 S    
O8    C4    1.306257 A    
C37   C48   1.408153 A    
C8    C9    1.397830 A    
C13   C22   1.487123 S    
C21   H12   1.083127 S    
C46   H25   1.064742 S    
C27   C28   1.417613 A    
C49   C50   1.410903 A    
C29   C33   1.409967 A    
C23   H15   1.080397 S    
C56   H31   1.081847 S    
Cu1   O5    1.943332 S    
C51   H27   1.081402 S    
C12   C13   1.416861 A    
C37   C49   1.490597 S    
H13   C35   1.076726 S    
O1    Cu1   1.953963 S    
O2    Cu2   1.943333 S    
C43   C47   1.426349 A    
C39   C40   1.371845 A    
O6    C3    1.309880 A    
O4    Cu2   1.965605 S    
C42   N2    1.399617 A    
C29   C36   1.415628 A    
C38   C55   1.470456 S    
C11   C12   1.394888 A    
C24   C34   1.397922 A    
C15   C16   1.407687 A    
C18   C19   1.395997 A    
O2    C1    1.303436 A    
C38   C39   1.398516 A    
C14   C15   1.402006 A    
C53   C54   1.397833 A    
C19   H10   1.081138 S    
C55   C56   1.409567 A    
C6    C7    1.404133 A    
C9    C10   1.397736 A    
C57   C58   1.397550 A    
C7    C8    1.404470 A    
Cu2   O6    1.953961 S    
C58   C59   1.396425 A    
C25   C36   1.399782 A    
C59   H34   1.072956 S    
C4    C12   1.454426 S    
C52   C53   1.394537 A    
C50   H26   1.082815 S    
C42   C46   1.408485 A    
C40   H23   1.076867 S    
