data_mof_unit_34800.cif
_audit_creation_date              2012-12-10T17:05:12-0500
_audit_creation_method            fapswitch 2.2
_symmetry_space_group_name_H-M    P1
_symmetry_Int_Tables_number       1
_space_group_crystal_system       triclinic
_cell_length_a                    10.865092
_cell_length_b                    10.985681
_cell_length_c                    9.916341
_cell_angle_alpha                 109.368937
_cell_angle_beta                  98.912779
_cell_angle_gamma                 92.945291
_cell_volume                      1096.41977734

loop_
_atom_site_label
_atom_site_type_symbol
_atom_type_description
_atom_site_fract_x
_atom_site_fract_y
_atom_site_fract_z
_atom_type_partial_charge
C1    C     C_R   0.490454 0.254626 0.442001 0.880355
C2    C     C_3   0.875677 0.487625 0.498581 -0.298928
C3    C     C_3   0.947208 0.628105 0.571768 0.151243
C4    C     C_3   0.901022 0.441159 0.337218 -0.379716
C5    C     C_2   0.480948 0.115236 0.410455 -0.155597
C6    C     C_2   0.446402 0.066160 0.506498 -0.001371
C7    C     C_2   0.506362 0.884097 0.580926 -0.242723
C8    C     C_2   0.437983 0.927501 0.481305 -0.052397
C9    C     C_2   0.515244 0.510766 0.082401 0.419653
C10   C     C_2   0.508258 0.476179 0.921046 0.048704
C11   C     C_R   0.259658 0.490748 0.498372 0.952484
C12   C     C_R   0.504129 0.745078 0.556600 0.798359
C13   C     C_R   0.738964 0.496218 0.499128 0.918648
C14   C     C_3   0.073772 0.381170 0.567496 0.110339
C15   C     C_3   0.929723 0.394892 0.582057 0.563226
C16   C     C_3   0.089837 0.620739 0.591332 0.097711
C17   C     C_3   0.044381 0.447719 0.337619 0.135434
C18   C     C_3   0.120198 0.483112 0.497686 -0.281409
Cu1   Cu    Cu3+1 0.522160 0.521810 0.644910 1.088522
Cu2   Cu    Cu3+1 0.477840 0.478190 0.355090 1.059388
H1    H     H_    0.868371 0.515560 0.290190 0.183369
H2    H     H_    0.921081 0.683129 0.497330 0.197759
H3    H     H_    0.425665 0.127602 0.607804 0.200367
H4    H     H_    0.498401 0.052055 0.306407 0.182319
H5    H     H_    0.590596 0.646862 0.931200 0.263108
H6    H     H_    0.127528 0.638471 0.707690 0.261446
H7    H     H_    0.069244 0.529061 0.299785 0.218906
N1    N     N_2   0.444530 0.445420 0.137360 -0.298571
N2    N     N_2   0.555520 0.554510 0.862630 -0.278907
O1    O     O_R   0.511820 0.332340 0.577400 -0.591401
O2    O     O_R   0.474400 0.295500 0.332650 -0.575102
O3    O     O_R   0.336400 0.518400 0.622370 -0.559226
O4    O     O_R   0.298980 0.481560 0.377620 -0.562944
O5    O     O_R   0.525600 0.704500 0.667350 -0.573862
O6    O     O_R   0.488180 0.667660 0.422600 -0.561802
O7    O     O_R   0.701020 0.518440 0.622380 -0.478466
O8    O     O_R   0.663600 0.481600 0.377630 -0.587929
Cl1   Cl    Cl    0.166501 0.410161 0.745263 -0.533141
Cl2   Cl    Cl    0.163594 0.752701 0.553558 -0.613727
C19   C     C_2   0.342474 0.843441 0.353630 0.553329
H8    H     H_    0.309188 0.745475 0.342054 0.141743
O9    O     O_2   0.295226 0.885446 0.260372 -0.473163
C20   C     C_2   0.596041 0.971029 0.711780 0.528002
H9    H     H_    0.621736 0.939907 0.804441 0.112745
O10   O     O_2   0.647219 0.073868 0.715199 -0.432197
C21   C     C_2   0.455016 0.343189 0.832489 0.399616
H10   H     H_    0.384509 0.325050 0.737356 0.162727
O11   O     O_2   0.485087 0.252643 0.871224 -0.557270
Cl3   Cl    Cl    0.638002 0.628816 0.195083 -0.576300
C22   C     C_2   0.096996 0.244622 0.478344 0.573896
H11   H     H_    0.023688 0.177097 0.398592 0.188468
O12   O     O_2   0.202091 0.210203 0.488149 -0.552364
C23   C     C_2   0.316264 0.413103 0.070678 0.652085
H12   H     H_    0.278515 0.312139 0.016865 0.127013
O13   O     O_2   0.247288 0.498543 0.078095 -0.470809
Cl4   Cl    Cl    0.832471 0.241860 0.522245 -0.517423
Cl5   Cl    Cl    0.910597 0.456489 0.771169 -0.324145
Cl6   Cl    Cl    0.906187 0.729686 0.738841 -0.424198
Cl7   Cl    Cl    0.088966 0.308318 0.203185 -0.493569
C24   C     C_2   0.822484 0.317732 0.231188 0.635623
H13   H     H_    0.742711 0.325978 0.155079 0.111530
O14   O     O_2   0.845607 0.209488 0.227868 -0.469458

loop_
_geom_bond_atom_site_label_1
_geom_bond_atom_site_label_2
_ccdc_geom_bond_type
C17   C18   S    
C10   C21   S    
C22   O12   D    
N1    C23   S    
Cu1   O5    S    
C11   C18   S    
C4    H1    S    
C7    C20   S    
C14   Cl1   S    
C15   Cl5   S    
C9    C10   S    
C14   C18   S    
C13   O8    A    
Cu1   Cu2   S    
C1    O2    A    
C20   H9    S    
Cu2   O8    S    
C15   Cl4   S    
C4    C24   S    
C19   O9    D    
C2    C3    S    
C7    C8    D    
C23   H12   S    
C12   O6    A    
C16   H6    S    
C2    C15   S    
C20   O10   D    
C10   N2    D    
Cu2   N1    S    
C14   C22   S    
C5    H4    S    
C2    C4    S    
C17   Cl7   S    
C1    C5    S    
Cu1   O3    S    
C16   C18   S    
C1    O1    A    
C11   O3    A    
C22   H11   S    
Cu1   O7    S    
C23   O13   D    
H5    N2    S    
C5    C6    D    
C21   O11   D    
C7    C12   S    
C4    C17   S    
C16   Cl2   S    
C12   O5    A    
C17   H7    S    
C3    Cl6   S    
C11   O4    A    
C9    Cl3   S    
C13   O7    A    
Cu2   O4    S    
C21   H10   S    
C2    C13   S    
C14   C15   S    
C19   H8    S    
C3    H2    S    
C6    C8    S    
C8    C19   S    
C6    H3    S    
Cu1   O1    S    
Cu2   O6    S    
C24   O14   D    
C3    C16   S    
C9    N1    D    
C24   H13   S    
Cu2   O2    S    
Cu1   N2    S    
