data_mof_unit_26190.cif
_audit_creation_date              2012-12-11T15:08:41-0500
_audit_creation_method            fapswitch 2.2
_symmetry_space_group_name_H-M    P1
_symmetry_Int_Tables_number       1
_space_group_crystal_system       triclinic
_cell_length_a                    19.421228
_cell_length_b                    11.477226
_cell_length_c                    18.702971
_cell_angle_alpha                 89.998673
_cell_angle_beta                  90.346837
_cell_angle_gamma                 90.000264
_cell_volume                      4168.84994608

loop_
_atom_site_label
_atom_site_type_symbol
_atom_type_description
_atom_site_fract_x
_atom_site_fract_y
_atom_site_fract_z
_atom_type_partial_charge
C1    C     C_R   0.272283 0.042841 0.853518 0.542075
C2    C     C_R   0.727731 0.042875 0.146498 0.542052
C3    C     C_R   0.772281 0.542844 0.853515 0.542049
C4    C     C_R   0.227729 0.542871 0.146496 0.542066
C5    C     C_3   0.518071 0.736315 0.964067 -0.134980
C6    C     C_3   0.482094 0.736101 0.035840 -0.134736
C7    C     C_3   0.018042 0.236271 0.964083 -0.134934
C8    C     C_3   0.982065 0.236134 0.035856 -0.134777
C9    C     C_3   0.311090 0.521391 0.041820 -0.119322
C10   C     C_3   0.688929 0.521336 0.958194 -0.119348
C11   C     C_3   0.811085 0.021382 0.041822 -0.119333
C12   C     C_3   0.188929 0.021341 0.958197 -0.119348
C13   C     C_3   0.323450 0.571611 0.966432 -0.243077
C14   C     C_3   0.676537 0.571667 0.033547 -0.243144
C15   C     C_3   0.823449 0.071592 0.966433 -0.243085
C16   C     C_3   0.176542 0.071656 0.033555 -0.243129
C17   C     C_3   0.180871 0.524496 0.027015 -0.219861
C18   C     C_3   0.819144 0.524513 0.973006 -0.219920
C19   C     C_3   0.680868 0.024519 0.027022 -0.219847
C20   C     C_3   0.319147 0.024483 0.973011 -0.219913
C21   C     C_3   0.241428 0.708528 0.058711 -0.099501
C22   C     C_3   0.758547 0.708521 0.941267 -0.099470
C23   C     C_3   0.741441 0.208537 0.058720 -0.099506
C24   C     C_3   0.258571 0.208505 0.941284 -0.099469
C25   C     C_3   0.242025 0.575318 0.071879 0.090266
C26   C     C_3   0.757982 0.575294 0.928126 0.090214
C27   C     C_3   0.742027 0.075327 0.071884 0.090266
C28   C     C_3   0.257990 0.075282 0.928133 0.090232
C29   C     C_3   0.255026 0.615420 0.933487 0.030663
C30   C     C_3   0.744967 0.615461 0.066503 0.030673
C31   C     C_3   0.755028 0.115430 0.933492 0.030663
C32   C     C_3   0.244972 0.115440 0.066512 0.030687
C33   C     C_3   0.194130 0.531689 0.946163 -0.262782
C34   C     C_3   0.805861 0.531707 0.053851 -0.262783
C35   C     C_3   0.694118 0.031725 0.946170 -0.262770
C36   C     C_3   0.305866 0.031686 0.053858 -0.262775
C37   C     C_3   0.236784 0.727156 0.976147 -0.207093
C38   C     C_3   0.763236 0.727181 0.023827 -0.207104
C39   C     C_3   0.736802 0.227169 0.976156 -0.207099
C40   C     C_3   0.263240 0.227163 0.023843 -0.207091
C41   C     C_3   0.504608 0.700456 0.460336 -0.227470
C42   C     C_3   0.495392 0.700457 0.539666 -0.227465
C43   C     C_3   0.004608 0.200456 0.460336 -0.227470
C44   C     C_3   0.995392 0.200457 0.539666 -0.227464
C45   C     C_R   0.443483 0.818482 0.862184 0.536586
C46   C     C_R   0.556519 0.818478 0.137817 0.536609
C47   C     C_R   0.943483 0.318481 0.862184 0.536590
C48   C     C_R   0.056519 0.318479 0.137816 0.536608
C49   C     C_3   0.564521 0.901183 0.474471 -0.209037
C50   C     C_3   0.435479 0.901184 0.525525 -0.209039
C51   C     C_3   0.064521 0.401183 0.474471 -0.209038
C52   C     C_3   0.935479 0.401184 0.525526 -0.209039
C53   C     C_3   0.441218 0.881868 0.443778 -0.259768
C54   C     C_3   0.558782 0.881869 0.556220 -0.259773
C55   C     C_3   0.941218 0.381868 0.443778 -0.259767
C56   C     C_3   0.058782 0.381869 0.556220 -0.259773
C57   C     C_3   0.511172 0.826643 0.430962 0.047156
C58   C     C_3   0.488827 0.826645 0.569037 0.047155
C59   C     C_3   0.011173 0.326643 0.430962 0.047156
C60   C     C_3   0.988827 0.326645 0.569037 0.047155
C61   C     C_3   0.178726 0.646331 0.458037 -0.188287
C62   C     C_3   0.821275 0.646332 0.541962 -0.188288
C63   C     C_3   0.678726 0.146331 0.458037 -0.188287
C64   C     C_3   0.321275 0.146332 0.541962 -0.188289
C65   C     C_3   0.185524 0.669686 0.536926 0.165944
C66   C     C_3   0.814476 0.669686 0.463072 0.165947
C67   C     C_3   0.685525 0.169687 0.536926 0.165943
C68   C     C_3   0.314476 0.169686 0.463072 0.165947
C69   C     C_3   0.251414 0.459800 0.472925 -0.232564
C70   C     C_3   0.748587 0.459800 0.527080 -0.232562
C71   C     C_3   0.751414 0.959800 0.472925 -0.232564
C72   C     C_3   0.248587 0.959800 0.527080 -0.232562
C73   C     C_3   0.304122 0.649706 0.442993 -0.286994
C74   C     C_3   0.695878 0.649707 0.557005 -0.286997
C75   C     C_3   0.804122 0.149706 0.442993 -0.286994
C76   C     C_3   0.195878 0.149707 0.557005 -0.286996
C77   C     C_3   0.240498 0.574645 0.429564 0.040884
C78   C     C_3   0.759502 0.574647 0.570436 0.040885
C79   C     C_3   0.740498 0.074645 0.429564 0.040884
C80   C     C_3   0.259502 0.074647 0.570436 0.040884
C81   C     C_3   0.251324 0.608550 0.567469 0.081179
C82   C     C_3   0.748676 0.608549 0.432531 0.081178
C83   C     C_3   0.751324 0.108550 0.567469 0.081179
C84   C     C_3   0.248676 0.108549 0.432531 0.081180
C85   C     C_3   0.243716 0.477815 0.554182 -0.255907
C86   C     C_3   0.756284 0.477814 0.445823 -0.255913
C87   C     C_3   0.743716 0.977815 0.554182 -0.255907
C88   C     C_3   0.256284 0.977814 0.445823 -0.255912
C89   C     C_R   0.262760 0.645506 0.855994 0.541385
C90   C     C_R   0.737227 0.645553 0.143992 0.541425
C91   C     C_R   0.762763 0.145516 0.855998 0.541382
C92   C     C_R   0.237233 0.145532 0.144000 0.541417
C93   C     C_3   0.316495 0.649008 0.524965 -0.269460
C94   C     C_3   0.683505 0.649007 0.475033 -0.269458
C95   C     C_3   0.816495 0.149008 0.524965 -0.269460
C96   C     C_3   0.183505 0.149007 0.475033 -0.269458
C97   C     C_R   0.272680 0.044048 0.646248 0.538799
C98   C     C_R   0.727319 0.044046 0.353753 0.538792
C99   C     C_R   0.772680 0.544048 0.646248 0.538792
C100  C     C_R   0.227319 0.544046 0.353753 0.538792
C101  C     C_R   0.467874 0.822468 0.645339 0.541668
C102  C     C_R   0.532126 0.822467 0.354660 0.541670
C103  C     C_R   0.967874 0.322468 0.645340 0.541669
C104  C     C_R   0.032126 0.322467 0.354660 0.541670
C105  C     C_R   0.260563 0.640695 0.643730 0.563098
C106  C     C_R   0.739437 0.640692 0.356269 0.563110
C107  C     C_R   0.760563 0.140694 0.643730 0.563100
C108  C     C_R   0.239437 0.140692 0.356269 0.563105
C109  C     C_3   0.481171 0.925195 0.036697 -0.103527
C110  C     C_3   0.518692 0.925385 0.963387 -0.103509
C111  C     C_3   0.981194 0.425225 0.036680 -0.103523
C112  C     C_3   0.018717 0.425348 0.963370 -0.103509
C113  C     C_3   0.431778 0.829287 0.009387 -0.151126
C114  C     C_3   0.568237 0.829639 0.990611 -0.151234
C115  C     C_3   0.931775 0.329344 0.009386 -0.151142
C116  C     C_3   0.068235 0.329572 0.990610 -0.151214
C117  C     C_3   0.469378 0.829826 0.937091 0.050765
C118  C     C_3   0.530631 0.829786 0.062907 0.050790
C119  C     C_3   0.969377 0.329814 0.937091 0.050770
C120  C     C_3   0.030629 0.329791 0.062906 0.050784
Cr1   Cr    Cr6+3 0.229620 0.836040 0.749110 0.957609
Cr2   Cr    Cr6+3 0.770380 0.836040 0.250890 0.957597
Cr3   Cr    Cr6+3 0.729620 0.336040 0.749110 0.957609
Cr4   Cr    Cr6+3 0.270380 0.336040 0.250890 0.957593
Cr5   Cr    Cr6+3 0.387630 0.990680 0.750730 0.982133
Cr6   Cr    Cr6+3 0.612370 0.990680 0.249270 0.982119
Cr7   Cr    Cr6+3 0.887630 0.490680 0.750730 0.982146
Cr8   Cr    Cr6+3 0.112370 0.490680 0.249270 0.982120
Cr9   Cr    Cr6+3 0.386020 0.676590 0.749210 0.977029
Cr10  Cr    Cr6+3 0.613980 0.676590 0.250790 0.977018
Cr11  Cr    Cr6+3 0.886020 0.176590 0.749210 0.977015
Cr12  Cr    Cr6+3 0.113980 0.176590 0.250790 0.977021
H1    H     H_    0.377827 0.819352 0.024072 0.085925
H2    H     H_    0.622176 0.819724 0.975882 0.086002
H3    H     H_    0.877824 0.319408 0.024073 0.085942
H4    H     H_    0.122177 0.319652 0.975886 0.085993
H5    H     H_    0.292511 0.739132 0.076967 0.095820
H6    H     H_    0.707437 0.739073 0.923052 0.095825
H7    H     H_    0.792525 0.239130 0.076979 0.095824
H8    H     H_    0.207472 0.239083 0.923051 0.095809
H9    H     H_    0.272416 0.794620 0.959907 0.087686
H10   H     H_    0.727619 0.794663 0.040064 0.087678
H11   H     H_    0.772441 0.294625 0.959917 0.087670
H12   H     H_    0.227616 0.294641 0.040072 0.087675
H13   H     H_    0.183918 0.751289 0.960564 0.134262
H14   H     H_    0.816121 0.751286 0.039384 0.134257
H15   H     H_    0.683938 0.251311 0.960580 0.134259
H16   H     H_    0.316113 0.251291 0.039423 0.134265
H17   H     H_    0.632430 0.071590 0.037056 0.148702
H18   H     H_    0.367578 0.071590 0.962990 0.148635
H19   H     H_    0.132432 0.571574 0.037042 0.148699
H20   H     H_    0.867568 0.571638 0.962994 0.148586
H21   H     H_    0.147300 0.566634 0.919178 0.125056
H22   H     H_    0.852682 0.566649 0.080851 0.125050
H23   H     H_    0.647291 0.066700 0.919195 0.125059
H24   H     H_    0.352686 0.066634 0.080854 0.125031
H25   H     H_    0.548582 0.646141 0.447298 0.137796
H26   H     H_    0.451418 0.646142 0.552706 0.137802
H27   H     H_    0.048582 0.146141 0.447298 0.137796
H28   H     H_    0.951418 0.146142 0.552706 0.137801
H29   H     H_    0.460537 0.655106 0.434503 0.116293
H30   H     H_    0.539463 0.655108 0.565500 0.116293
H31   H     H_    0.960537 0.155106 0.434503 0.116292
H32   H     H_    0.039462 0.155108 0.565500 0.116294
H33   H     H_    0.616381 0.892416 0.454904 0.114790
H34   H     H_    0.383619 0.892417 0.545093 0.114788
H35   H     H_    0.116381 0.392416 0.454904 0.114790
H36   H     H_    0.883619 0.392417 0.545094 0.114788
H37   H     H_    0.600537 0.825210 0.576379 0.107262
H38   H     H_    0.399462 0.825209 0.423620 0.107262
H39   H     H_    0.100537 0.325210 0.576379 0.107263
H40   H     H_    0.899462 0.325209 0.423620 0.107262
H41   H     H_    0.467320 0.004631 0.067121 0.107101
H42   H     H_    0.532436 0.004978 0.933056 0.107036
H43   H     H_    0.967360 0.504690 0.067087 0.107090
H44   H     H_    0.032481 0.504913 0.933023 0.107047
H45   H     H_    0.438054 0.964563 0.413998 0.184782
H46   H     H_    0.561946 0.964566 0.585996 0.184782
H47   H     H_    0.938054 0.464563 0.413998 0.184782
H48   H     H_    0.061946 0.464565 0.585996 0.184782
H49   H     H_    0.449670 0.992929 0.535285 0.124036
H50   H     H_    0.550330 0.992927 0.464708 0.124034
H51   H     H_    0.949670 0.492929 0.535285 0.124036
H52   H     H_    0.050330 0.492927 0.464708 0.124034
H53   H     H_    0.130122 0.602394 0.447329 0.154553
H54   H     H_    0.869879 0.602396 0.552671 0.154555
H55   H     H_    0.630122 0.102394 0.447329 0.154553
H56   H     H_    0.369879 0.102396 0.552671 0.154555
H57   H     H_    0.174764 0.730869 0.429001 0.075107
H58   H     H_    0.825236 0.730871 0.570994 0.075103
H59   H     H_    0.674764 0.230869 0.429001 0.075107
H60   H     H_    0.325236 0.230871 0.570994 0.075104
H61   H     H_    0.193451 0.761898 0.543914 0.118213
H62   H     H_    0.806550 0.761897 0.456081 0.118218
H63   H     H_    0.693452 0.261898 0.543914 0.118213
H64   H     H_    0.306550 0.261897 0.456081 0.118219
H65   H     H_    0.720936 0.887317 0.452884 0.102405
H66   H     H_    0.279064 0.887318 0.547124 0.102408
H67   H     H_    0.220936 0.387317 0.452884 0.102405
H68   H     H_    0.779064 0.387318 0.547124 0.102408
H69   H     H_    0.693211 0.946494 0.572858 0.154854
H70   H     H_    0.306788 0.946493 0.427147 0.154855
H71   H     H_    0.193211 0.446494 0.572858 0.154854
H72   H     H_    0.806788 0.446493 0.427147 0.154856
H73   H     H_    0.349166 0.613105 0.414455 0.117689
H74   H     H_    0.650834 0.613105 0.585545 0.117694
H75   H     H_    0.849166 0.113105 0.414455 0.117690
H76   H     H_    0.150834 0.113105 0.585545 0.117692
H77   H     H_    0.295403 0.739505 0.423169 0.108073
H78   H     H_    0.704598 0.739507 0.576826 0.108070
H79   H     H_    0.795403 0.239505 0.423169 0.108073
H80   H     H_    0.204598 0.239507 0.576826 0.108072
H81   H     H_    0.519470 0.657404 0.932391 0.134515
H82   H     H_    0.480924 0.656948 0.067341 0.134321
H83   H     H_    0.019391 0.157308 0.932442 0.134477
H84   H     H_    0.980858 0.157020 0.067388 0.134355
H85   H     H_    0.336712 0.731433 0.544175 0.113136
H86   H     H_    0.663288 0.731431 0.455819 0.113138
H87   H     H_    0.836712 0.231432 0.544175 0.113136
H88   H     H_    0.163288 0.231431 0.455819 0.113138
H89   H     H_    0.356180 0.582228 0.535616 0.129244
H90   H     H_    0.643820 0.582226 0.464385 0.129241
H91   H     H_    0.856180 0.082228 0.535616 0.129244
H92   H     H_    0.143820 0.082226 0.464385 0.129241
H93   H     H_    0.305952 0.436023 0.463996 0.113339
H94   H     H_    0.694048 0.436024 0.536011 0.113347
H95   H     H_    0.805952 0.936023 0.463996 0.113339
H96   H     H_    0.194048 0.936024 0.536011 0.113346
H97   H     H_    0.284129 0.428111 0.583495 0.095433
H98   H     H_    0.715869 0.428110 0.416511 0.095431
H99   H     H_    0.784129 0.928111 0.583495 0.095431
H100  H     H_    0.215869 0.928110 0.416511 0.095430
H101  H     H_    0.302835 0.430065 0.033261 0.153233
H102  H     H_    0.697212 0.430041 0.966823 0.153283
H103  H     H_    0.802821 0.930061 0.033261 0.153237
H104  H     H_    0.197200 0.930037 0.966816 0.153268
H105  H     H_    0.359163 0.646361 0.969491 0.124238
H106  H     H_    0.640849 0.646451 0.030415 0.124145
H107  H     H_    0.859175 0.146329 0.969489 0.124243
H108  H     H_    0.140855 0.146443 0.030431 0.124158
H109  H     H_    0.352689 0.511042 0.932789 0.128396
H110  H     H_    0.647271 0.511151 0.067208 0.128418
H111  H     H_    0.852666 0.010990 0.932792 0.128419
H112  H     H_    0.147270 0.011143 0.067212 0.128405
H113  H     H_    0.668923 0.937628 0.045898 0.092067
H114  H     H_    0.331125 0.937592 0.954158 0.092057
H115  H     H_    0.168919 0.437607 0.045892 0.092066
H116  H     H_    0.831132 0.437628 0.954149 0.092087
H117  H     H_    0.700672 0.945016 0.923074 0.102447
H118  H     H_    0.299279 0.944975 0.076951 0.102458
H119  H     H_    0.200710 0.444979 0.923073 0.102445
H120  H     H_    0.799276 0.444994 0.076940 0.102466
O1    O     O_R   0.214130 0.708570 0.829890 -0.543734
O2    O     O_R   0.785870 0.708570 0.170110 -0.543734
O3    O     O_R   0.714130 0.208570 0.829890 -0.543725
O4    O     O_R   0.285870 0.208570 0.170110 -0.543745
O5    O     O_R   0.446360 0.919990 0.675230 -0.505626
O6    O     O_R   0.553640 0.919990 0.324770 -0.505629
O7    O     O_R   0.946360 0.419990 0.675230 -0.505625
O8    O     O_R   0.053640 0.419990 0.324770 -0.505629
O9    O     O_R   0.457170 0.717300 0.668380 -0.532143
O10   O     O_R   0.542830 0.717300 0.331620 -0.532144
O11   O     O_R   0.957170 0.217300 0.668380 -0.532144
O12   O     O_R   0.042830 0.217300 0.331620 -0.532143
O13   O     O_R   0.320870 0.624890 0.673130 -0.519874
O14   O     O_R   0.679130 0.624890 0.326870 -0.519867
O15   O     O_R   0.820870 0.124890 0.673130 -0.519875
O16   O     O_R   0.179130 0.124890 0.326870 -0.519870
O17   O     O_3   0.334430 0.834430 0.749680 -0.285806
O18   O     O_3   0.665570 0.834430 0.250320 -0.285812
O19   O     O_3   0.834430 0.334430 0.749680 -0.285808
O20   O     O_3   0.165570 0.334430 0.250320 -0.285806
O21   O     O_R   0.236050 0.959150 0.825270 -0.518652
O22   O     O_R   0.763950 0.959150 0.174730 -0.518697
O23   O     O_R   0.736050 0.459150 0.825270 -0.518647
O24   O     O_R   0.263950 0.459150 0.174730 -0.518703
O25   O     O_R   0.332100 0.076650 0.832310 -0.541658
O26   O     O_R   0.667900 0.076650 0.167690 -0.541661
O27   O     O_R   0.832100 0.576650 0.832310 -0.541644
O28   O     O_R   0.167900 0.576650 0.167690 -0.541663
O29   O     O_R   0.446500 0.918620 0.826240 -0.505679
O30   O     O_R   0.553500 0.918620 0.173760 -0.505698
O31   O     O_R   0.946500 0.418620 0.826240 -0.505672
O32   O     O_R   0.053500 0.418620 0.173760 -0.505695
O33   O     O_R   0.457310 0.715830 0.831280 -0.530594
O34   O     O_R   0.542690 0.715830 0.168720 -0.530552
O35   O     O_R   0.957310 0.215830 0.831280 -0.530587
O36   O     O_R   0.042690 0.215830 0.168720 -0.530558
O37   O     O_R   0.321000 0.623520 0.824130 -0.518984
O38   O     O_R   0.679000 0.623520 0.175870 -0.518999
O39   O     O_R   0.821000 0.123520 0.824130 -0.518989
O40   O     O_R   0.179000 0.123520 0.175870 -0.518999
O41   O     O_R   0.213990 0.710040 0.667000 -0.496794
O42   O     O_R   0.786010 0.710040 0.333000 -0.496789
O43   O     O_R   0.713990 0.210040 0.667000 -0.496795
O44   O     O_R   0.286010 0.210040 0.333000 -0.496790
O45   O     O_R   0.235920 0.960520 0.674260 -0.529270
O46   O     O_R   0.764080 0.960520 0.325740 -0.529273
O47   O     O_R   0.735920 0.460520 0.674260 -0.529273
O48   O     O_R   0.264080 0.460520 0.325740 -0.529274
O49   O     O_R   0.331960 0.078120 0.669410 -0.538825
O50   O     O_R   0.668040 0.078120 0.330590 -0.538827
O51   O     O_R   0.831960 0.578120 0.669410 -0.538829
O52   O     O_R   0.168040 0.578120 0.330590 -0.538826
C121  C     C_3   0.190357 0.784337 0.103831 -0.251436
C122  C     C_3   0.112488 0.781512 0.087324 -0.421031
H121  H     H_    0.100638 0.796822 0.030176 0.119482
H122  H     H_    0.087275 0.700603 0.105538 0.175438
H123  H     H_    0.087209 0.852479 0.117817 0.119725
H124  H     H_    0.199114 0.771190 0.161906 0.169906
H125  H     H_    0.206308 0.873604 0.098625 0.124627
C123  C     C_3   0.809555 0.784354 0.896079 -0.251375
C124  C     C_3   0.887427 0.781684 0.912567 -0.420932
H126  H     H_    0.899274 0.797524 0.969673 0.119420
H127  H     H_    0.912659 0.700633 0.894601 0.175349
H128  H     H_    0.912675 0.852416 0.881826 0.119830
H129  H     H_    0.800788 0.771091 0.838015 0.169905
H130  H     H_    0.793560 0.873618 0.901196 0.124576
C125  C     C_3   0.690370 0.284349 0.103841 -0.251441
C126  C     C_3   0.612501 0.281533 0.087334 -0.421045
H131  H     H_    0.600654 0.296873 0.030191 0.119491
H132  H     H_    0.587284 0.200623 0.105530 0.175425
H133  H     H_    0.587224 0.352479 0.117839 0.119732
H134  H     H_    0.699125 0.271189 0.161915 0.169907
H135  H     H_    0.706319 0.373619 0.098643 0.124633
C127  C     C_3   0.309611 0.284323 0.896130 -0.251381
C128  C     C_3   0.387482 0.281558 0.912624 -0.421005
H136  H     H_    0.399332 0.297038 0.969750 0.119448
H137  H     H_    0.412702 0.200609 0.894503 0.175402
H138  H     H_    0.412748 0.352440 0.882048 0.119768
H139  H     H_    0.300845 0.271135 0.838061 0.169910
H140  H     H_    0.293638 0.373583 0.901300 0.124589
O53   O     O_3   0.125200 0.635727 0.574116 -0.583405
C129  C     C_3   0.070567 0.716777 0.564492 -0.014790
H141  H     H_    0.021748 0.666605 0.563064 0.131932
H142  H     H_    0.073337 0.765669 0.513095 0.096828
C130  C     C_3   0.067282 0.802480 0.627109 -0.241168
H143  H     H_    0.064149 0.753387 0.678218 0.179927
H144  H     H_    0.114488 0.856895 0.628255 0.178288
C131  C     C_3   0.004823 0.882632 0.620400 -0.499445
H145  H     H_    0.006958 0.932424 0.569546 0.129711
H146  H     H_    0.004504 0.945324 0.665624 0.155660
H147  H     H_    0.956450 0.831002 0.621683 0.143378
O54   O     O_3   0.874800 0.635725 0.425883 -0.583408
C132  C     C_3   0.929433 0.716776 0.435503 -0.014795
H148  H     H_    0.978253 0.666605 0.436927 0.131936
H149  H     H_    0.926668 0.765662 0.486901 0.096826
C133  C     C_3   0.932713 0.802486 0.372887 -0.241164
H150  H     H_    0.935836 0.753399 0.321777 0.179943
H151  H     H_    0.885511 0.856908 0.371751 0.178277
C134  C     C_3   0.995178 0.882628 0.379587 -0.499440
H152  H     H_    0.993057 0.932410 0.430444 0.129712
H153  H     H_    0.995491 0.945330 0.334366 0.155663
H154  H     H_    0.043547 0.830991 0.378291 0.143383
O55   O     O_3   0.625200 0.135728 0.574116 -0.583405
C135  C     C_3   0.570568 0.216778 0.564491 -0.014789
H155  H     H_    0.521748 0.166606 0.563061 0.131929
H156  H     H_    0.573338 0.265671 0.513095 0.096830
C136  C     C_3   0.567281 0.302479 0.627109 -0.241171
H157  H     H_    0.564142 0.253384 0.678217 0.179919
H158  H     H_    0.614488 0.356889 0.628259 0.178296
C137  C     C_3   0.504825 0.382637 0.620397 -0.499444
H159  H     H_    0.506966 0.432434 0.569545 0.129710
H160  H     H_    0.504504 0.445325 0.665623 0.155665
H161  H     H_    0.456450 0.331012 0.621672 0.143377
O56   O     O_3   0.374800 0.135725 0.425883 -0.583408
C138  C     C_3   0.429433 0.216776 0.435503 -0.014796
H162  H     H_    0.478253 0.166606 0.436926 0.131936
H163  H     H_    0.426668 0.265662 0.486901 0.096826
C139  C     C_3   0.432713 0.302487 0.372887 -0.241164
H164  H     H_    0.435834 0.253400 0.321777 0.179946
H165  H     H_    0.385510 0.356909 0.371752 0.178277
C140  C     C_3   0.495178 0.382627 0.379585 -0.499443
H166  H     H_    0.493058 0.432407 0.430443 0.129713
H167  H     H_    0.495490 0.445331 0.334365 0.155662
H168  H     H_    0.543547 0.330989 0.378287 0.143385
C141  C     C_3   0.378587 0.530592 0.086294 -0.291091
C142  C     C_3   0.397490 0.434225 0.139890 -0.388195
H169  H     H_    0.383154 0.458719 0.195201 0.177738
H170  H     H_    0.374821 0.349618 0.124614 0.171201
H171  H     H_    0.454332 0.422621 0.141359 0.098062
H172  H     H_    0.419687 0.519216 0.045982 0.129114
H173  H     H_    0.381277 0.616489 0.113343 0.154462
C143  C     C_3   0.621454 0.530409 0.913672 -0.291007
C144  C     C_3   0.602528 0.433839 0.860220 -0.388114
H174  H     H_    0.616839 0.458112 0.804865 0.177746
H175  H     H_    0.625191 0.349290 0.875595 0.171069
H176  H     H_    0.545686 0.422231 0.858789 0.097987
H177  H     H_    0.580316 0.519278 0.953972 0.129113
H178  H     H_    0.618855 0.616172 0.886452 0.154312
C145  C     C_3   0.878581 0.030554 0.086300 -0.291090
C146  C     C_3   0.897487 0.934141 0.139866 -0.388189
H179  H     H_    0.883160 0.958590 0.195187 0.177738
H180  H     H_    0.874814 0.849550 0.124570 0.171183
H181  H     H_    0.954328 0.922525 0.141324 0.098046
H182  H     H_    0.919686 0.019222 0.045988 0.129087
H183  H     H_    0.881258 0.116426 0.113383 0.154447
C147  C     C_3   0.121451 0.030449 0.913683 -0.291005
C148  C     C_3   0.102527 0.933924 0.860199 -0.388118
H184  H     H_    0.116836 0.958251 0.804851 0.177732
H185  H     H_    0.125193 0.849363 0.875548 0.171103
H186  H     H_    0.045685 0.922313 0.858765 0.097996
H187  H     H_    0.080321 0.019267 0.953987 0.129111
H188  H     H_    0.118837 0.116246 0.886501 0.154337

loop_
_geom_bond_atom_site_label_1
_geom_bond_atom_site_label_2
_ccdc_geom_bond_type
C90   O38   A    
C82   C94   S    
C11   C145  S    
C73   C93   S    
C42   C58   S    
C29   C89   S    
C130  H143  S    
C48   O32   A    
C75   C95   S    
C48   C120  S    
O53   C129  S    
C24   H8    S    
C57   C102  S    
Cr6   O26   S    
C91   O39   A    
C59   C104  S    
Cr8   O8    S    
C55   C59   S    
Cr2   O22   S    
C5    C6    S    
Cr10  O18   S    
C109  H41   S    
Cr11  O15   S    
C121  H124  S    
C22   C38   S    
C29   C33   S    
C30   C38   S    
C77   C100  S    
C9    C13   S    
C75   H75   S    
C12   C16   S    
Cr3   O23   S    
C101  O5    A    
C95   H87   S    
C102  O10   A    
C127  C128  S    
C21   H5    S    
C60   C103  S    
C113  H1    S    
C61   H57   S    
C54   H37   S    
C17   H19   S    
C18   H20   S    
C66   H62   S    
C109  C118  S    
C15   H111  S    
C11   H103  S    
C50   C53   S    
Cr6   O6    S    
C9    H101  S    
C46   O34   A    
C126  H133  S    
C7    C119  S    
C85   H97   S    
C131  H145  S    
C62   H58   S    
C140  H168  S    
C62   C66   S    
C13   H105  S    
C20   C28   S    
C96   H88   S    
C135  C136  S    
C54   H46   S    
C100  O52   A    
C43   C44   S    
C1    O25   A    
C2    O22   A    
C3    O27   A    
O55   C135  S    
C11   C27   S    
C5    H81   S    
C122  H121  S    
C58   C101  S    
C132  C133  S    
C53   H38   S    
C88   H100  S    
C56   H39   S    
C4    O28   A    
C55   H40   S    
C130  C131  S    
C148  H185  S    
C70   H68   S    
Cr6   O18   S    
C3    C26   S    
Cr3   O47   S    
C70   H94   S    
C31   C91   S    
C131  H146  S    
C8    H84   S    
C53   H45   S    
Cr12  O20   S    
Cr1   O1    S    
Cr11  O39   S    
C17   C25   S    
C23   C125  S    
C141  H172  S    
C19   C35   S    
C76   C96   S    
C129  C130  S    
C32   C92   S    
C91   O3    A    
Cr9   O33   S    
C133  H150  S    
C138  C139  S    
C98   O50   A    
C99   O47   A    
C61   C65   S    
C5    C117  S    
C78   C99   S    
C73   C77   S    
C47   O35   A    
C104  O12   A    
C88   H70   S    
C142  H169  S    
C75   C79   S    
C76   H76   S    
C126  H132  S    
C144  H175  S    
C67   C83   S    
C15   H107  S    
C80   C97   S    
Cr1   O41   S    
C69   C77   S    
C111  C112  S    
C131  H147  S    
Cr10  O34   S    
Cr3   O43   S    
C71   C79   S    
C4    C25   S    
C134  H154  S    
C7    C8    S    
Cr5   O25   S    
C32   C36   S    
C73   H77   S    
C35   H23   S    
C43   H27   S    
C33   H21   S    
C124  H127  S    
C137  H159  S    
C105  O13   A    
C148  H184  S    
C49   C57   S    
C123  C124  S    
C93   H85   S    
C108  O16   A    
C38   H14   S    
C52   C60   S    
C14   H110  S    
C61   C77   S    
C110  C114  S    
C43   C59   S    
C62   H54   S    
Cr5   O49   S    
C76   H80   S    
C90   O2    A    
Cr7   O19   S    
Cr8   O20   S    
C11   C15   S    
C61   H53   S    
C12   C147  S    
Cr11  O11   S    
C110  H42   S    
C81   C105  S    
C30   C34   S    
C125  H135  S    
C10   C14   S    
C128  H137  S    
C85   H71   S    
C129  H141  S    
C133  C134  S    
C95   H91   S    
C116  C120  S    
C84   C88   S    
C7    C116  S    
C36   H118  S    
C92   O40   A    
C135  H156  S    
C114  H2    S    
C21   C37   S    
C64   H56   S    
C47   O31   A    
C113  C117  S    
C16   H112  S    
C89   O37   A    
C112  H44   S    
Cr5   O29   S    
C115  C119  S    
C74   C78   S    
C46   O30   A    
C123  H130  S    
Cr8   O32   S    
Cr1   O17   S    
C112  C116  S    
C69   C85   S    
C56   H48   S    
Cr3   O19   S    
C73   H73   S    
Cr4   O20   S    
C55   H47   S    
C68   C84   S    
C62   C78   S    
C24   C28   S    
C2    O26   A    
C9    C141  S    
C42   H30   S    
C3    O23   A    
C16   C32   S    
C63   H55   S    
C72   C80   S    
C143  H177  S    
C127  H140  S    
C115  H3    S    
C19   H17   S    
C20   H18   S    
C136  C137  S    
Cr7   O7    S    
Cr1   O45   S    
C82   C106  S    
C97   O49   A    
O54   C132  S    
C16   H108  S    
C94   H90   S    
Cr7   O27   S    
Cr4   O44   S    
Cr8   O28   S    
C81   C85   S    
C98   O46   A    
C83   C87   S    
C41   H29   S    
C136  H157  S    
C41   C42   S    
C74   C94   S    
C18   C26   S    
C30   C90   S    
C9    C25   S    
C68   O56   S    
C75   H79   S    
C37   H9    S    
C12   C28   S    
C13   C29   S    
C105  O41   A    
C140  H167  S    
C54   C58   S    
C107  O43   A    
C17   H115  S    
C107  O15   A    
C45   C117  S    
C45   O33   A    
C46   C118  S    
C12   H104  S    
C104  O8    A    
O56   C138  S    
C21   C25   S    
C64   H60   S    
C51   H35   S    
C134  H152  S    
C50   H34   S    
C1    C28   S    
C122  H122  S    
C2    C27   S    
Cr2   O42   S    
C102  O6    A    
C132  H149  S    
Cr3   O3    S    
Cr4   O48   S    
C52   C55   S    
Cr12  O12   S    
C64   C80   S    
C42   H26   S    
C17   C33   S    
Cr9   O9    S    
C110  C117  S    
C130  H144  S    
C139  H164  S    
C65   H61   S    
C34   H22   S    
C10   H102  S    
C122  H123  S    
C106  O14   A    
C40   H16   S    
C86   H98   S    
C76   C80   S    
C97   O45   A    
C51   H52   S    
C14   H106  S    
C53   C57   S    
Cr10  O14   S    
C121  H125  S    
C56   C60   S    
C50   C58   S    
C49   H33   S    
C147  H188  S    
C111  C115  S    
C65   C81   S    
C6    H82   S    
C133  H151  S    
C24   C127  S    
C68   H64   S    
C15   C31   S    
Cr10  O10   S    
C71   C87   S    
C92   O4    A    
C146  H180  S    
C44   H28   S    
C31   C35   S    
C142  H170  S    
C64   C68   S    
Cr9   O13   S    
C36   H24   S    
C144  H174  S    
C125  H134  S    
C103  O7    A    
C147  H187  S    
C146  H179  S    
C69   H93   S    
Cr2   O2    S    
C112  C119  S    
C139  H165  S    
C134  H153  S    
C116  H4    S    
C22   H6    S    
C142  H171  S    
C41   C57   S    
C128  H136  S    
C82   C86   S    
C109  C110  S    
C48   O36   A    
C124  H126  S    
C137  H160  S    
C44   C60   S    
C63   H59   S    
Cr6   O30   S    
C84   C108  S    
Cr1   O21   S    
C139  C140  S    
C65   O53   S    
Cr2   O18   S    
C72   H66   S    
C125  C126  S    
C20   C36   S    
C18   H116  S    
C145  H183  S    
Cr11  O19   S    
C121  C122  S    
C22   C26   S    
C29   C37   S    
C22   C123  S    
C44   H32   S    
C87   H69   S    
C7    H83   S    
C6    C118  S    
C137  H161  S    
C43   H31   S    
C148  H186  S    
C101  O9    A    
C5    C114  S    
C70   C78   S    
C79   C98   S    
C138  H162  S    
C52   H51   S    
C94   H86   S    
Cr4   O4    S    
C143  C144  S    
C108  O44   A    
C145  C146  S    
C63   C79   S    
C74   H78   S    
C111  H43   S    
C23   H7    S    
C141  H173  S    
Cr7   O51   S    
C129  H142  S    
Cr8   O52   S    
C66   C82   S    
C49   C54   S    
Cr5   O5    S    
C35   H117  S    
C51   C56   S    
C84   C96   S    
Cr7   O31   S    
C33   H119  S    
C8    C115  S    
C13   H109  S    
C31   C39   S    
C96   H92   S    
Cr6   O50   S    
Cr12  O40   S    
C23   C27   S    
C100  O48   A    
C19   C27   S    
C1    O21   A    
C109  C113  S    
C144  H176  S    
C10   C26   S    
C47   C119  S    
Cr9   O37   S    
C89   O1    A    
C38   H10   S    
C14   C30   S    
C146  H181  S    
C67   H63   S    
C106  O42   A    
C72   C88   S    
C71   H65   S    
C145  H182  S    
C63   C67   S    
C45   O29   A    
C4    O24   A    
C138  H163  S    
C124  H128  S    
Cr5   O17   S    
C111  C120  S    
Cr2   O46   S    
C6    C113  S    
C143  H178  S    
Cr12  O16   S    
C81   C93   S    
C83   C95   S    
Cr10  O38   S    
C21   C121  S    
C136  H158  S    
C18   C34   S    
C141  C142  S    
C114  C118  S    
C39   H11   S    
C40   H12   S    
C66   O54   S    
C41   H25   S    
C50   H49   S    
C51   C59   S    
C70   C86   S    
C86   H72   S    
C99   O51   A    
C19   H113  S    
C74   H74   S    
C10   C143  S    
C8    C120  S    
C147  C148  S    
C71   H95   S    
C128  H138  S    
C93   H89   S    
C72   H96   S    
C67   O55   S    
C126  H131  S    
C140  H166  S    
C52   H36   S    
Cr11  O35   S    
Cr4   O24   S    
Cr12  O36   S    
C87   H99   S    
C20   H114  S    
C135  H155  S    
C24   C40   S    
C83   C107  S    
C32   C40   S    
Cr9   O17   S    
C49   H50   S    
C39   H15   S    
C127  H139  S    
C69   H67   S    
C103  O11   A    
C123  H129  S    
C34   H120  S    
C37   H13   S    
C132  H148  S    
C23   C39   S    
