data_mof_unit_63469.cif
_audit_creation_date              2012-12-10T17:06:05-0500
_audit_creation_method            fapswitch 2.2
_symmetry_space_group_name_H-M    P1
_symmetry_Int_Tables_number       1
_space_group_crystal_system       triclinic
_cell_length_a                    11.549553
_cell_length_b                    10.718636
_cell_length_c                    10.033786
_cell_angle_alpha                 90.00743
_cell_angle_beta                  89.98339
_cell_angle_gamma                 90.091825
_cell_volume                      1242.13544116

loop_
_atom_site_label
_atom_site_type_symbol
_atom_type_description
_atom_site_fract_x
_atom_site_fract_y
_atom_site_fract_z
_atom_type_partial_charge
C1    C     C_R   0.491967 0.262754 0.499668 0.927751
C2    C     C_1   0.161483 0.499988 0.499990 -0.176892
C3    C     C_1   0.059324 0.499985 0.499973 0.005066
C4    C     C_1   0.940670 0.499985 0.499966 0.004603
C5    C     C_1   0.838510 0.499975 0.499975 -0.182791
C6    C     C_2   0.441952 0.928759 0.401678 -0.197378
C7    C     C_1   0.425166 0.116243 0.260310 0.232070
C8    C     C_2   0.498876 0.869406 0.498624 -0.336202
C9    C     C_2   0.445701 0.063481 0.391189 0.030728
C10   C     C_2   0.468706 0.131561 0.500878 -0.391040
C11   C     C_2   0.560530 0.577688 0.924967 -0.117202
C12   C     C_2   0.565046 0.573376 0.074957 -0.120853
C13   C     C_R   0.281948 0.500000 0.499999 0.896103
C14   C     C_R   0.499757 0.737342 0.499927 0.930631
C15   C     C_R   0.718043 0.499951 0.499993 0.902033
H1    H     H_    0.397011 0.876712 0.324120 0.171044
H2    H     H_    0.548144 0.915755 0.576083 0.145383
H3    H     H_    0.467832 0.089899 0.599366 0.157329
H4    H     H_    0.611962 0.648608 0.875398 0.161096
H5    H     H_    0.456834 0.430233 0.897800 0.171214
H6    H     H_    0.624706 0.636380 0.124504 0.163262
H7    H     H_    0.440648 0.445867 0.102211 0.175865
N1    N     N_2   0.501210 0.501330 0.852150 -0.188551
N2    N     N_2   0.501250 0.501360 0.147810 -0.188056
N3    N     N_1   0.408659 0.158013 0.155660 -0.224219
O1    O     O_R   0.499980 0.319060 0.613040 -0.614366
O2    O     O_R   0.500020 0.319100 0.386900 -0.598175
O3    O     O_R   0.334430 0.499990 0.613070 -0.606421
O4    O     O_R   0.334470 0.500030 0.386930 -0.611512
O5    O     O_R   0.499980 0.680900 0.613100 -0.614499
O6    O     O_R   0.500020 0.680940 0.386960 -0.611910
O7    O     O_R   0.665530 0.499970 0.613070 -0.605680
O8    O     O_R   0.665570 0.500010 0.386930 -0.605475
Zn1   Zn    Zn3+2 0.499980 0.499970 0.650990 0.956284
Zn2   Zn    Zn3+2 0.500020 0.500030 0.349010 0.960761

loop_
_geom_bond_atom_site_label_1
_geom_bond_atom_site_label_2
_ccdc_geom_bond_type
C6    C8    D    
C11   C12   S    
C13   O3    A    
C9    C10   D    
C12   N2    D    
C8    H2    S    
C7    N3    T    
H5    N1    S    
C14   O6    A    
N1    Zn1   S    
C6    C9    S    
C2    C3    T    
O3    Zn1   S    
C15   O7    A    
C11   H4    S    
C14   O5    A    
C11   N1    D    
O8    Zn2   S    
C10   H3    S    
O6    Zn2   S    
C1    O1    A    
H7    N2    S    
C5    C15   S    
N2    Zn2   S    
O5    Zn1   S    
C6    H1    S    
C3    C4    S    
C7    C9    S    
C13   O4    A    
C1    O2    A    
C2    C13   S    
O4    Zn2   S    
C8    C14   S    
O2    Zn2   S    
C12   H6    S    
O1    Zn1   S    
C1    C10   S    
C15   O8    A    
C4    C5    T    
O7    Zn1   S    
