data_mof_unit_48979.cif
_audit_creation_date              2012-12-10T17:13:33-0500
_audit_creation_method            fapswitch 2.2
_symmetry_space_group_name_H-M    P1
_symmetry_Int_Tables_number       1
_space_group_crystal_system       triclinic
_cell_length_a                    10.856993
_cell_length_b                    13.03952
_cell_length_c                    11.838933
_cell_angle_alpha                 98.275725
_cell_angle_beta                  92.151148
_cell_angle_gamma                 93.773775
_cell_volume                      1653.11181794

loop_
_atom_site_label
_atom_site_type_symbol
_atom_type_description
_atom_site_fract_x
_atom_site_fract_y
_atom_site_fract_z
_atom_type_partial_charge
C1    C     C_R   0.495689 0.300424 0.479854 0.818371
C2    C     C_3   0.877684 0.493615 0.495867 -0.063278
C3    C     C_3   0.942191 0.605928 0.511678 -0.174423
C4    C     C_3   0.920894 0.421413 0.387644 -0.209037
C5    C     C_R   0.494244 0.813681 0.528926 -0.130553
C6    C     C_R   0.482796 0.188554 0.469485 -0.048774
C7    C     C_R   0.386083 0.025896 0.376692 -0.122247
C8    C     C_R   0.404142 0.132482 0.383640 -0.125367
C9    C     C_R   0.543289 0.138572 0.548972 -0.212700
C10   C     C_R   0.527899 0.030590 0.543057 0.081058
C11   C     C_R   0.450083 0.972372 0.453410 0.070176
C12   C     C_R   0.260204 0.492461 0.500992 0.817597
C13   C     C_R   0.436069 0.862879 0.443881 -0.085652
C14   C     C_R   0.560818 0.873578 0.621641 -0.191507
C15   C     C_R   0.583511 0.980222 0.627348 -0.036914
C16   C     C_R   0.393092 0.387859 0.031350 -0.085647
C17   C     C_R   0.405384 0.400669 0.150697 0.050894
C18   C     C_R   0.531829 0.556410 0.154480 0.122745
C19   C     C_R   0.518924 0.550379 0.032546 -0.077690
C20   C     C_R   0.455911 0.461014 0.969141 -0.053240
C21   C     C_R   0.464175 0.445481 0.847031 0.165460
C22   C     C_R   0.593419 0.600066 0.853294 0.084522
C23   C     C_R   0.496237 0.700047 0.519889 0.925599
C24   C     C_R   0.578840 0.624423 0.971307 -0.147462
C25   C     C_R   0.739399 0.496235 0.498133 0.816213
C26   C     C_3   0.067660 0.442891 0.611094 -0.080627
C27   C     C_3   0.923392 0.444324 0.601695 -0.467902
C28   C     C_3   0.081844 0.598671 0.495747 -0.378901
C29   C     C_3   0.063462 0.417901 0.392784 -0.442318
C30   C     C_3   0.121611 0.487214 0.503013 -0.024120
Cu1   Cu    Cu3+1 0.509350 0.507730 0.615930 1.036901
Cu2   Cu    Cu3+1 0.490650 0.492270 0.384070 1.023915
H1    H     H_    0.602480 0.836557 0.687697 0.226880
H2    H     H_    0.353424 0.171584 0.323884 0.160387
H3    H     H_    0.876805 0.364781 0.595259 0.192831
H4    H     H_    0.104400 0.444191 0.316171 0.212762
H5    H     H_    0.087046 0.336053 0.385889 0.198245
H6    H     H_    0.880694 0.341330 0.392241 0.141408
N1    N     N_R   0.523430 0.519360 0.790130 -0.269118
N2    N     N_R   0.476570 0.480640 0.209880 -0.234601
O1    O     O_R   0.506640 0.354460 0.582000 -0.582851
O2    O     O_R   0.490840 0.341410 0.386200 -0.590291
O3    O     O_R   0.325590 0.506510 0.597900 -0.569376
O4    O     O_R   0.309790 0.493450 0.402100 -0.589519
O5    O     O_R   0.509160 0.658590 0.613800 -0.559391
O6    O     O_R   0.493360 0.645540 0.418000 -0.552410
O7    O     O_R   0.690210 0.506550 0.597900 -0.578407
O8    O     O_R   0.674410 0.493490 0.402100 -0.553011
C31   C     C_2   0.117042 0.509333 0.723753 0.893693
O9    O     O_2   0.176967 0.471357 0.794664 -0.502835
O10   O     O_R   0.094754 0.614371 0.746730 -0.805851
H7    H     H_    0.133515 0.649498 0.822943 0.356546
C32   C     C_2   0.877861 0.445562 0.272032 0.953372
O11   O     O_2   0.931193 0.515465 0.230004 -0.507730
O12   O     O_R   0.781928 0.382647 0.209760 -0.732045
H8    H     H_    0.762931 0.404347 0.132461 0.354346
H9    H     H_    0.103301 0.615965 0.409962 0.258543
C33   C     C_2   0.885123 0.681852 0.442636 0.907800
O13   O     O_2   0.784161 0.712492 0.467207 -0.607789
O14   O     O_R   0.949507 0.722765 0.357070 -0.695801
H10   H     H_    0.902286 0.775328 0.321128 0.352451
C34   C     C_2   0.361421 0.801002 0.345877 0.908458
O15   O     O_2   0.376051 0.818429 0.248282 -0.511318
O16   O     O_R   0.276057 0.721712 0.364613 -0.782847
H11   H     H_    0.235443 0.683582 0.290426 0.355060
H12   H     H_    0.319021 0.987470 0.312195 0.181721
C35   C     C_2   0.667821 0.035050 0.721859 0.891878
O17   O     O_2   0.654338 0.017612 0.819605 -0.532836
O18   O     O_R   0.766064 0.102551 0.698594 -0.755787
H13   H     H_    0.817404 0.134143 0.769929 0.360513
H14   H     H_    0.601142 0.185451 0.615510 0.215440
C36   C     C_2   0.446082 0.338013 0.789594 0.887587
O19   O     O_2   0.526366 0.278419 0.801521 -0.598449
O20   O     O_R   0.336070 0.302202 0.728413 -0.694382
H15   H     H_    0.333705 0.225245 0.698108 0.342429
C37   C     C_2   0.097608 0.329906 0.615212 0.909465
O21   O     O_2   0.171344 0.287343 0.551837 -0.629484
O22   O     O_R   0.040658 0.275050 0.694706 -0.721159
H16   H     H_    0.066434 0.201251 0.689625 0.343160
C38   C     C_2   0.709876 0.641758 0.810079 0.890230
O23   O     O_2   0.710167 0.693074 0.732025 -0.589332
O24   O     O_R   0.821641 0.625252 0.864673 -0.713287
H17   H     H_    0.894625 0.663554 0.834636 0.362446
C39   C     C_2   0.307941 0.299413 0.979167 0.833939
O25   O     O_2   0.334604 0.210578 0.984953 -0.553361
O26   O     O_R   0.194132 0.317580 0.929996 -0.665319
H18   H     H_    0.141936 0.250826 0.901886 0.356751
C40   C     C_2   0.613243 0.733436 0.022806 0.872600
O27   O     O_2   0.531942 0.792590 0.045494 -0.492660
O28   O     O_R   0.737535 0.768952 0.043134 -0.704571
H19   H     H_    0.748418 0.844814 0.078232 0.349352
H20   H     H_    0.357547 0.345806 0.197386 0.134402
C41   C     C_2   0.624194 0.632767 0.218507 0.915788
O29   O     O_2   0.731357 0.611817 0.223039 -0.547373
O30   O     O_R   0.593612 0.732810 0.260476 -0.720519
H21   H     H_    0.667441 0.779981 0.295099 0.342905
H22   H     H_    0.890440 0.486713 0.682024 0.224999
H23   H     H_    0.136141 0.658607 0.557493 0.208674
H24   H     H_    0.932095 0.641412 0.601796 0.191559

loop_
_geom_bond_atom_site_label_1
_geom_bond_atom_site_label_2
_ccdc_geom_bond_type
O12   H8    S    
C41   O29   D    
C23   O5    A    
C4    C32   S    
C19   C20   A    
C6    C9    A    
C7    C8    A    
C32   O11   D    
C7    C11   A    
C29   H4    S    
C26   C27   S    
C29   C30   S    
Cu1   O3    S    
C37   O22   S    
C3    C28   S    
C39   O26   S    
C12   O3    A    
C10   C15   A    
C33   O14   S    
C16   C39   S    
C18   C19   A    
C18   N2    A    
C34   O16   S    
C13   C34   S    
O30   H21   S    
C16   C17   A    
C31   O10   S    
C5    C23   S    
C26   C37   S    
C2    C27   S    
C9    C10   A    
C25   O7    A    
C5    C13   A    
C4    C29   S    
C41   O30   S    
C23   O6    A    
Cu1   O7    S    
Cu2   O8    S    
C17   H20   S    
C14   H1    S    
C32   O12   S    
O20   H15   S    
C21   C36   S    
C35   O17   D    
C37   O21   D    
C36   O20   S    
C26   C31   S    
O26   H18   S    
C36   O19   D    
C6    C8    A    
C27   H3    S    
C33   O13   D    
C28   H9    S    
O24   H17   S    
O10   H7    S    
O14   H10   S    
C35   O18   S    
C17   N2    A    
C2    C4    S    
C34   O15   D    
Cu1   Cu2   S    
C21   N1    A    
C16   C20   A    
C15   C35   S    
C20   C21   A    
Cu2   O4    S    
C8    H2    S    
C39   O25   D    
C24   C40   S    
C25   O8    A    
C5    C14   A    
C1    O1    A    
C40   O28   S    
C26   C30   S    
C22   C24   A    
C28   H23   S    
C27   H22   S    
Cu1   O1    S    
C12   C30   S    
O22   H16   S    
Cu2   O6    S    
C9    H14   S    
C4    H6    S    
C38   O23   D    
O16   H11   S    
C28   C30   S    
C2    C3    S    
C22   C38   S    
C12   O4    A    
C7    H12   S    
C11   C13   A    
O28   H19   S    
C22   N1    A    
C38   O24   S    
Cu1   N1    S    
C19   C24   A    
C2    C25   S    
Cu2   N2    S    
O18   H13   S    
C10   C11   A    
C3    C33   S    
C3    H24   S    
C1    O2    A    
C40   O27   D    
C31   O9    D    
Cu1   O5    S    
C29   H5    S    
C1    C6    S    
C18   C41   S    
Cu2   O2    S    
C14   C15   A    
