data_mof_unit_19353.cif
_audit_creation_date              2012-12-10T18:21:15-0500
_audit_creation_method            fapswitch 2.2
_symmetry_space_group_name_H-M    P1
_symmetry_Int_Tables_number       1
_space_group_crystal_system       triclinic
_cell_length_a                    14.986024
_cell_length_b                    14.009502
_cell_length_c                    10.633935
_cell_angle_alpha                 90.03952
_cell_angle_beta                  90.262306
_cell_angle_gamma                 89.961761
_cell_volume                      2232.53549461

loop_
_atom_site_label
_atom_site_type_symbol
_atom_type_description
_atom_site_fract_x
_atom_site_fract_y
_atom_site_fract_z
_atom_type_partial_charge
C1    C     C_R   0.326548 0.500028 0.500095 0.946663
C2    C     C_R   0.046421 0.666817 0.566387 -0.178978
C3    C     C_R   0.092850 0.584183 0.531920 0.105140
C4    C     C_R   0.498096 0.500184 0.257520 0.875160
C5    C     C_R   0.046392 0.500963 0.495514 0.066415
C6    C     C_R   0.092766 0.417382 0.460760 0.123327
C7    C     C_R   0.046236 0.335311 0.423878 -0.206425
C8    C     C_R   0.953514 0.335722 0.422073 -0.152151
C9    C     C_R   0.185138 0.583177 0.533332 -0.183261
C10   C     C_R   0.230771 0.500147 0.499254 -0.057303
C11   C     C_R   0.185068 0.417501 0.463367 -0.234769
C12   C     C_3   0.586501 0.466860 0.927352 -0.565152
C13   C     C_R   0.568514 0.797124 0.443395 0.048779
C14   C     C_R   0.570419 0.202530 0.448221 0.060855
C15   C     C_R   0.431871 0.798776 0.554845 -0.028101
C16   C     C_R   0.431388 0.201330 0.553657 -0.063638
C17   C     C_R   0.430997 0.899173 0.555230 0.058156
C18   C     C_R   0.430588 0.100873 0.554245 0.062242
C19   C     C_R   0.673460 0.500087 0.498959 0.896440
C20   C     C_R   0.501919 0.949354 0.498454 0.030847
C21   C     C_R   0.502163 0.050463 0.499179 0.030504
C22   C     C_R   0.571178 0.898337 0.439046 -0.164591
C23   C     C_R   0.814762 0.418661 0.458369 -0.203236
C24   C     C_R   0.574721 0.101259 0.448401 -0.169052
C25   C     C_R   0.360676 0.950109 0.610589 -0.173867
C26   C     C_R   0.360242 0.050083 0.609519 -0.193118
C27   C     C_R   0.648592 0.049908 0.399051 0.333709
C28   C     C_R   0.641279 0.949453 0.379700 0.280826
C29   C     C_R   0.497074 0.500294 0.742286 0.940697
C30   C     C_3   0.481688 0.604572 0.072661 -0.396846
C31   C     C_3   0.417716 0.438230 0.072803 -0.426588
C32   C     C_3   0.478910 0.605333 0.929480 0.272250
C33   C     C_3   0.422053 0.430692 0.928740 0.271555
C34   C     C_R   0.769205 0.500704 0.496155 -0.097613
C35   C     C_3   0.585846 0.462323 0.071480 -0.398900
C36   C     C_3   0.495914 0.501069 0.121258 0.025514
C37   C     C_3   0.494171 0.501435 0.878516 -0.021590
C38   C     C_R   0.814934 0.583692 0.530624 -0.209036
C39   C     C_R   0.907206 0.584578 0.530024 0.110318
C40   C     C_R   0.953565 0.501225 0.494304 0.056776
C41   C     C_R   0.907074 0.418045 0.457801 0.107516
C42   C     C_R   0.953707 0.667008 0.565474 -0.155958
Cl1   Cl    Cl    0.377837 0.661355 0.874715 -0.569294
Cl2   Cl    Cl    0.313500 0.444714 0.858909 -0.569304
H1    H     H_    0.537284 0.651446 0.105150 0.199832
H2    H     H_    0.378264 0.759222 0.598452 0.166853
H3    H     H_    0.377196 0.240991 0.595870 0.154083
H4    H     H_    0.305757 0.912570 0.654280 0.159123
H5    H     H_    0.305027 0.087728 0.652485 0.154914
H6    H     H_    0.418845 0.634447 0.112061 0.224063
H7    H     H_    0.353160 0.470006 0.102985 0.216843
H8    H     H_    0.534348 0.651896 0.896556 0.132709
H9    H     H_    0.442884 0.356590 0.904614 0.127246
H10   H     H_    0.642333 0.505170 0.109816 0.195810
H11   H     H_    0.595725 0.387108 0.102388 0.207374
H12   H     H_    0.421360 0.365158 0.113598 0.171290
H13   H     H_    0.640001 0.516408 0.895815 0.198529
H14   H     H_    0.602837 0.394912 0.889188 0.216807
H15   H     H_    0.778348 0.355706 0.428790 0.210775
H16   H     H_    0.778821 0.647145 0.559409 0.172956
H17   H     H_    0.918416 0.731275 0.592747 0.175630
H18   H     H_    0.892913 0.071715 0.369051 0.376077
H19   H     H_    0.706026 0.993089 0.118807 0.358804
H20   H     H_    0.081767 0.730959 0.594267 0.160763
H21   H     H_    0.221362 0.646699 0.561839 0.166122
H22   H     H_    0.221256 0.353689 0.436212 0.158193
H23   H     H_    0.081506 0.271018 0.396678 0.158156
H24   H     H_    0.918226 0.271766 0.393438 0.202477
H25   H     H_    0.621839 0.754616 0.404919 0.198672
H26   H     H_    0.621910 0.244607 0.404382 0.189111
N1    N     N_R   0.500070 0.750030 0.500050 -0.130029
N2    N     N_R   0.500070 0.249970 0.500050 -0.127211
O1    O     O_R   0.367860 0.580280 0.500020 -0.626383
O2    O     O_2   0.765894 0.176656 0.491484 -0.352380
O3    O     O_3   0.839423 0.032013 0.384624 -0.441316
O4    O     O_2   0.784566 0.838565 0.339335 -0.235162
O5    O     O_2   0.658492 0.817782 0.195457 -0.348169
O6    O     O_3   0.757220 0.966411 0.166469 -0.428176
O7    O     O_R   0.367860 0.419720 0.500020 -0.627601
O8    O     O_R   0.500000 0.580270 0.314790 -0.623008
O9    O     O_R   0.500000 0.419730 0.314790 -0.633265
O10   O     O_R   0.632160 0.580270 0.499960 -0.635235
O11   O     O_R   0.632160 0.419730 0.499960 -0.624414
O12   O     O_R   0.500030 0.580270 0.685200 -0.597224
O13   O     O_R   0.500030 0.419730 0.685200 -0.620748
O14   O     O_2   0.753768 0.164667 0.262149 -0.331890
S1    S     S_3+6 0.753353 0.109070 0.382996 0.021924
S2    S     S_3+6 0.711533 0.889799 0.269393 0.072548
Zn1   Zn    Zn3+2 0.500020 0.607200 0.499990 0.982264
Zn2   Zn    Zn3+2 0.500020 0.392800 0.499990 0.967347

loop_
_geom_bond_atom_site_label_1
_geom_bond_atom_site_label_2
_ccdc_geom_bond_type
C4    C36   S    
C18   C21   A    
C30   H1    S    
C35   C36   S    
C16   N2    A    
C24   C27   A    
C7    C8    A    
C23   H15   S    
O10   Zn1   S    
C4    O8    A    
C5    C6    A    
C12   C37   S    
C17   C20   A    
C14   C24   A    
O8    Zn1   S    
C32   H8    S    
O7    Zn2   S    
C4    O9    A    
O5    S2    D    
N1    Zn1   S    
C28   S2    S    
C31   C33   S    
O2    S1    D    
C19   O10   A    
C9    C10   A    
O4    S2    D    
C29   O13   A    
C11   H22   S    
C12   H14   S    
C30   H6    S    
C22   C28   A    
C35   H10   S    
C14   H26   S    
C19   O11   A    
C16   H3    S    
C2    H20   S    
C39   C42   A    
C33   H9    S    
C35   H11   S    
C8    C41   A    
C29   O12   A    
C26   H5    S    
C6    C11   A    
O14   S1    D    
C13   N1    A    
C25   C26   A    
C7    H23   S    
C33   C37   S    
C3    C9    A    
N2    Zn2   S    
C25   H4    S    
C23   C34   A    
C18   C26   A    
C32   C37   S    
C12   C35   S    
C27   S1    S    
C42   H17   S    
C38   H16   S    
C12   H13   S    
O3    S1    S    
C40   C41   A    
C20   C22   A    
C8    H24   S    
C1    O7    A    
H18   O3    S    
C21   C24   A    
O12   Zn1   S    
O9    Zn2   S    
C39   C40   A    
O6    S2    S    
C15   C17   A    
O11   Zn2   S    
C34   C38   A    
C33   Cl2   S    
C14   N2    A    
C1    C10   S    
C31   H7    S    
C3    C5    A    
C19   C34   S    
O13   Zn2   S    
C6    C7    A    
C15   N1    A    
C23   C41   A    
C30   C36   S    
C1    O1    A    
C2    C3    A    
C17   C25   A    
C30   C32   S    
C38   C39   A    
C13   H25   S    
C2    C42   A    
C32   Cl1   S    
C13   C22   A    
C31   H12   S    
C9    H21   S    
C10   C11   A    
O1    Zn1   S    
C20   C21   A    
C16   C18   A    
C5    C40   A    
C29   C37   S    
C27   C28   A    
C31   C36   S    
C15   H2    S    
H19   O6    S    
