data_mof_unit_13967.cif
_audit_creation_date              2013-03-05T15:58:18-0500
_audit_creation_method            fapswitch 2.2
_symmetry_space_group_name_H-M    P1
_symmetry_Int_Tables_number       1
_space_group_crystal_system       triclinic
_cell_length_a                    15.003386
_cell_length_b                    14.942617
_cell_length_c                    15.236043
_cell_angle_alpha                 110.953527
_cell_angle_beta                  109.240079
_cell_angle_gamma                 108.462061
_cell_volume                      2620.59963544

loop_
_atom_site_label
_atom_site_type_symbol
_atom_site_description
_atom_site_fract_x
_atom_site_fract_y
_atom_site_fract_z
_atom_type_partial_charge
C1    C     C_R   0.918448 0.201563 0.005520 -0.122757
C2    C     C_R   0.024566 0.750948 0.938725 -0.107205
H1    H     H_    0.864545 0.176879 0.035148 0.091989
H2    H     H_    0.063157 0.770130 0.894876 0.095151
N1    N     N_R   0.947560 0.293820 0.002910 -0.046410
N2    N     N_R   0.052440 0.706180 0.997090 -0.049300
C3    C     C_R   0.314007 0.752431 0.224311 -0.115389
C4    C     C_R   0.702348 0.196039 0.790165 -0.114303
H3    H     H_    0.379583 0.772179 0.207278 0.094156
H4    H     H_    0.653949 0.169727 0.824182 0.085656
N3    N     N_R   0.208960 0.706170 0.152110 -0.043854
N4    N     N_R   0.791040 0.293830 0.847890 -0.043817
C5    C     C_R   0.217387 0.406706 0.921408 0.336721
C6    C     C_R   0.790485 0.590280 0.097963 0.301722
N5    N     N_R   0.154330 0.443160 0.946140 -0.086750
N6    N     N_R   0.845670 0.556840 0.053860 -0.091426
C7    C     C_R   0.997671 0.592213 0.299266 -0.131376
C8    C     C_R   0.977593 0.404874 0.690037 -0.075314
H5    H     H_    0.024118 0.676771 0.354729 0.145805
H6    H     H_    0.939532 0.319022 0.629145 0.131032
N7    N     N_R   0.002190 0.556820 0.208880 -0.045708
N8    N     N_R   0.997810 0.443180 0.791120 -0.039775
C9    C     C_R   0.308747 0.590907 0.014402 -0.208876
C10   C     C_R   0.699378 0.407666 0.001467 -0.200648
H7    H     H_    0.368114 0.675255 0.048522 0.116211
H8    H     H_    0.642689 0.322061 0.966739 0.120073
N9    N     N_R   0.210550 0.556810 0.002910 -0.057555
N10   N     N_R   0.789450 0.443190 0.997090 -0.060253
C11   C     C_R   0.915142 0.408774 0.211100 -0.113222
C12   C     C_R   0.070755 0.589729 0.782321 -0.133369
H9    H     H_    0.871331 0.323436 0.186150 0.110850
H10   H     H_    0.118441 0.673952 0.806313 0.113352
N11   N     N_R   0.945970 0.443180 0.152110 -0.047922
N12   N     N_R   0.054030 0.556820 0.847890 -0.047522
C13   C     C_R   0.218557 0.737068 0.309214 -0.090819
C14   C     C_R   0.792739 0.196866 0.699751 -0.124896
H11   H     H_    0.194050 0.731476 0.366414 0.118418
H12   H     H_    0.827990 0.174105 0.650973 0.145837
N13   N     N_R   0.151530 0.706170 0.208880 -0.035201
N14   N     N_R   0.848470 0.293830 0.791120 -0.045028
C15   C     C_R   0.005173 0.198500 0.910906 -0.114147
C16   C     C_R   0.925195 0.740003 0.020138 -0.072308
H13   H     H_    0.024654 0.166497 0.848812 0.175269
H14   H     H_    0.862492 0.735274 0.040195 0.131779
N15   N     N_R   0.004980 0.293810 0.946140 -0.047762
N16   N     N_R   0.995020 0.706190 0.053860 -0.029428
C17   C     C_R   0.952302 0.138952 0.946838 0.023759
C18   C     C_R   0.942240 0.770862 0.949079 0.011781
C19   C     C_R   0.321957 0.772996 0.324186 0.029924
C20   C     C_R   0.700274 0.131557 0.696005 0.050234
C21   C     C_R   0.315608 0.498207 0.967253 -0.089353
C22   C     C_R   0.697645 0.498297 0.063995 -0.062967
C23   C     C_R   0.946865 0.501596 0.303995 0.048141
C24   C     C_R   0.021431 0.495823 0.682667 0.033304
H15   H     H_    0.372086 0.160206 0.929588 0.080420
H16   H     H_    0.693046 0.882023 0.218325 0.126575
C25   C     C_R   0.937500 0.862012 0.844678 -0.212661
C26   C     C_R   0.840040 0.966278 0.929374 -0.218859
C27   C     C_R   0.205049 0.038104 0.814038 -0.027973
C28   C     C_R   0.833741 0.929621 0.199896 0.023059
H17   H     H_    0.220571 0.008142 0.748014 0.114061
H18   H     H_    0.890187 0.974597 0.285903 0.163215
Ni1   Ni    Ni4+2 0.869690 0.369690 0.000000 0.200028
Ni2   Ni    Ni4+2 0.130310 0.630310 0.000000 0.217479
Ni3   Ni    Ni4+2 0.001390 0.369680 0.869810 0.267909
Ni4   Ni    Ni4+2 0.998610 0.630320 0.130190 0.287343
C29   C     C_R   0.099982 0.989731 0.797253 -0.109920
C30   C     C_R   0.871933 0.925334 0.127186 -0.133265
H19   H     H_    0.339071 0.226001 0.083834 0.105215
H20   H     H_    0.563212 0.780605 0.021789 0.112240
H21   H     H_    0.490901 0.122801 0.040013 0.093966
H22   H     H_    0.492491 0.857401 0.919048 0.102525
C31   C     C_R   0.595324 0.294300 0.165188 -0.124069
C32   C     C_R   0.371037 0.686537 0.803955 -0.120780
H23   H     H_    0.538450 0.319362 0.132892 0.105284
H24   H     H_    0.422694 0.655073 0.832941 0.106372
C33   C     C_R   0.695776 0.372714 0.259370 -0.119229
C34   C     C_R   0.264951 0.613067 0.717230 -0.115245
H25   H     H_    0.716015 0.458298 0.299081 0.115649
H26   H     H_    0.235529 0.525282 0.679947 0.124742
C35   C     C_R   0.769710 0.340353 0.301666 0.122973
C36   C     C_R   0.197558 0.653111 0.678481 0.115329
C37   C     C_R   0.742915 0.229429 0.247211 -0.204632
C38   C     C_R   0.237177 0.767299 0.728584 -0.203617
H27   H     H_    0.801722 0.204544 0.275189 0.115630
H28   H     H_    0.185452 0.799382 0.701253 0.109863
C39   C     C_R   0.642469 0.151311 0.153354 -0.107588
C40   C     C_R   0.343196 0.840465 0.815170 -0.103475
H29   H     H_    0.622490 0.065988 0.111564 0.110644
H30   H     H_    0.373331 0.928349 0.853194 0.101241
C41   C     C_R   0.568508 0.183631 0.112651 -0.095228
C42   C     C_R   0.410263 0.800192 0.852515 -0.101761
C43   C     C_R   0.903580 0.417533 0.492345 -0.242729
C44   C     C_R   0.058237 0.582800 0.494212 -0.246048
H31   H     H_    0.842221 0.356276 0.493601 0.131188
H32   H     H_    0.120491 0.643228 0.493031 0.130121
C45   C     C_R   0.006173 0.493812 0.584777 0.076207
C46   C     C_R   0.956548 0.505910 0.401369 0.078400
C47   C     C_R   0.085292 0.576094 0.585826 0.021890
C48   C     C_R   0.877639 0.422853 0.399428 0.017175
H33   H     H_    0.035018 0.919709 0.718482 0.152991
H34   H     H_    0.958283 0.970345 0.157992 0.151542
H35   H     H_    0.393324 0.381039 0.061173 0.125990
H36   H     H_    0.618360 0.612907 0.975246 0.135479
H37   H     H_    0.154415 0.142900 0.055306 0.119555
H38   H     H_    0.629368 0.769986 0.891252 0.124640
C49   C     C_R   0.079569 0.029299 0.882911 0.076536
C50   C     C_R   0.798860 0.864259 0.014836 0.064526
C51   C     C_R   0.272122 0.161621 0.003384 -0.127433
C52   C     C_R   0.649288 0.819892 0.050626 -0.174664
H39   H     H_    0.060117 0.922519 0.451765 0.194444
H40   H     H_    0.922083 0.140344 0.440019 0.166945
C53   C     C_R   0.207001 0.980520 0.443681 -0.050376
C54   C     C_R   0.874598 0.037982 0.505521 0.004018
C55   C     C_R   0.304914 0.979190 0.468593 -0.200772
C56   C     C_R   0.791803 0.983359 0.522155 -0.217101
H41   H     H_    0.356288 0.013776 0.440231 0.162945
H42   H     H_    0.803620 0.941529 0.566596 0.154108
C57   C     C_R   0.333313 0.925208 0.522614 0.119766
C58   C     C_R   0.696852 0.990905 0.488890 0.088108
C59   C     C_R   0.269630 0.882725 0.562376 -0.225360
C60   C     C_R   0.681049 0.045512 0.432091 -0.142183
H43   H     H_    0.291683 0.841551 0.604296 0.139305
H44   H     H_    0.607671 0.051290 0.405603 0.126665
C61   C     C_R   0.171774 0.883637 0.537781 -0.173932
C62   C     C_R   0.762049 0.098076 0.414465 -0.183806
H45   H     H_    0.118609 0.844581 0.562164 0.138409
H46   H     H_    0.750321 0.143225 0.374562 0.136871
C63   C     C_R   0.139219 0.929306 0.476140 -0.057564
C64   C     C_R   0.859063 0.095943 0.452087 -0.195986
C65   C     C_R   0.521562 0.977653 0.619630 -0.225686
C66   C     C_R   0.519160 0.854136 0.432485 -0.230401
H47   H     H_    0.517807 0.022674 0.690335 0.122410
H48   H     H_    0.518442 0.804894 0.359645 0.129586
C67   C     C_R   0.616123 0.015357 0.613206 0.061761
C68   C     C_R   0.421484 0.838787 0.429995 0.061582
C69   C     C_R   0.615267 0.949427 0.517979 0.036811
C70   C     C_R   0.423375 0.903690 0.525499 0.026203
C71   C     C_R   0.290916 0.123926 0.916888 -0.049331
C72   C     C_R   0.722502 0.877402 0.161743 -0.073427
C73   C     C_R   0.838828 0.878277 0.941638 0.025926
C74   C     C_R   0.971514 0.970100 0.869723 0.021043
H49   H     H_    0.970180 0.818283 0.803977 0.115859
H50   H     H_    0.793110 0.000992 0.953763 0.126357
C75   C     C_R   0.167075 0.114764 0.986674 -0.132520
C76   C     C_R   0.687005 0.812641 0.977040 -0.178494
C77   C     C_R   0.896217 0.828977 0.904644 0.067697
C78   C     C_R   0.919691 0.023297 0.911729 0.063379
C79   C     C_3   0.485304 0.393970 0.961714 -0.086633
C80   C     C_3   0.527661 0.601259 0.076558 -0.090060
C81   C     C_3   0.453628 0.460203 0.911962 -0.096612
C82   C     C_3   0.559616 0.534997 0.126356 -0.104839
H51   H     H_    0.408054 0.430831 0.824313 0.141212
H52   H     H_    0.604679 0.563929 0.213925 0.142699
H53   H     H_    0.468961 0.308722 0.914910 0.117645
H54   H     H_    0.542738 0.685831 0.123918 0.110134
C83   C     C_3   0.416323 0.498785 0.992692 0.183477
C84   C     C_3   0.596959 0.496484 0.045393 0.172998
C85   C     C_3   0.446303 0.432808 0.042604 -0.193885
C86   C     C_3   0.566280 0.562372 0.995472 -0.192459
C87   C     C_2   0.174298 0.031059 0.380062 1.031570
O1    O     O_2   0.094615 0.042239 0.367319 -0.658428
O2    O     O_R   0.234775 0.066528 0.334572 -0.817766
H55   H     H_    0.203770 0.098812 0.292428 0.317357
C88   C     C_2   0.979809 0.041369 0.550071 1.086597
O3    O     O_2   0.989453 0.979550 0.582836 -0.697619
O4    O     O_R   0.069432 0.117759 0.557596 -0.751029
H56   H     H_    0.138811 0.117866 0.596485 0.346823
N17   N     N_R   0.175397 0.301835 0.829327 0.224157
O5    O     O_R   0.238641 0.262767 0.814776 -0.440998
O6    O     O_R   0.075894 0.252585 0.751583 -0.463682
N18   N     N_R   0.838393 0.697099 0.191196 0.218920
O7    O     O_R   0.786435 0.719066 0.241901 -0.444786
O8    O     O_R   0.939307 0.768734 0.233584 -0.463369

loop_
_geom_bond_atom_site_label_1
_geom_bond_atom_site_label_2
_geom_bond_distance
_ccdc_geom_bond_type
C10   C22   1.363147 A    
C37   C39   1.396526 A    
C49   C75   1.407161 A    
N6    N10   1.380198 A    
C88   O3    1.220773 D    
C80   C83   1.530244 S    
C39   C41   1.396161 A    
N7    Ni4   1.892939 S    
N17   O6    1.299466 A    
C36   C47   1.482435 S    
C2    H2    1.072622 S    
O2    H55   1.014019 S    
C29   C49   1.404589 A    
C87   O1    1.221302 D    
C25   C77   1.401405 A    
C3    N3    1.339921 A    
C12   C24   1.378391 A    
C87   O2    1.398988 S    
C32   H24   1.081880 S    
C25   C74   1.386895 A    
C1    N1    1.327434 A    
C81   C83   1.519687 S    
C13   H11   1.070290 S    
C10   H8    1.081606 S    
N16   Ni4   1.892364 S    
C65   C67   1.401616 A    
C20   C67   1.481741 S    
C79   C81   1.541751 S    
H16   C72   1.082190 S    
C26   C78   1.398927 A    
N7    N11   1.380077 A    
C62   C64   1.393110 A    
N2    Ni2   1.868927 S    
N5    Ni3   1.885636 S    
C18   C77   1.476955 S    
C11   N11   1.319047 A    
H15   C71   1.079792 S    
N1    Ni1   1.868928 S    
C28   H18   1.079027 S    
C16   N16   1.335271 A    
C32   C42   1.399751 A    
C36   C38   1.405144 A    
H20   C52   1.080220 S    
C27   C29   1.397574 A    
C5    C21   1.375268 A    
H19   C51   1.081680 S    
H39   C63   1.078443 S    
C6    C22   1.378683 A    
C9    C21   1.368460 A    
C40   C42   1.396236 A    
N18   O8    1.299976 A    
C55   H41   1.083921 S    
C13   C19   1.377902 A    
C62   H46   1.074126 S    
C24   C45   1.419972 S    
C30   H34   1.082898 S    
C6    N6    1.332396 A    
C9    N9    1.323483 A    
C4    N4    1.325699 A    
C79   C84   1.532511 S    
C8    H6    1.080817 S    
C66   C68   1.394954 A    
C60   C62   1.388281 A    
C6    N18   1.435616 S    
C5    N17   1.428505 S    
C82   C85   1.543599 S    
C83   C85   1.531075 S    
C80   H54   1.108160 S    
C81   H51   1.110170 S    
C84   C86   1.533475 S    
C15   H13   1.075334 S    
C2    N2    1.330678 A    
C16   H14   1.070607 S    
H36   C86   1.107775 S    
C50   C73   1.474967 S    
C35   C37   1.404231 A    
C58   C60   1.401186 A    
C50   C76   1.403018 A    
C33   H25   1.083192 S    
C22   C84   1.431605 S    
N8    N12   1.380076 A    
C82   C84   1.522721 S    
C27   H17   1.079310 S    
N3    N13   1.407745 A    
C12   N12   1.319550 A    
C73   C77   1.423496 A    
N17   O5    1.298938 A    
C74   C78   1.414762 A    
C14   N14   1.326400 A    
C31   C41   1.398898 A    
C68   C70   1.415886 A    
N3    Ni2   1.876159 S    
C45   C47   1.403609 A    
O4    H56   1.013116 S    
N4    Ni1   1.876160 S    
C25   H49   1.079547 S    
C1    C17   1.390927 A    
C2    C18   1.402390 A    
C66   C69   1.392330 A    
N1    N15   1.407619 A    
C21   C83   1.427232 S    
C7    N7    1.320644 A    
C56   C58   1.402058 A    
C1    H1    1.079189 S    
C38   C40   1.396363 A    
N4    N14   1.407746 A    
C13   N13   1.322623 A    
N8    Ni3   1.892940 S    
C59   C61   1.396374 A    
C26   H50   1.081125 S    
C34   C36   1.404058 A    
C43   C45   1.401374 A    
N5    N9    1.380199 A    
C33   C35   1.403945 A    
N11   Ni1   1.876832 S    
H37   C75   1.083199 S    
C3    H3    1.077765 S    
N12   Ni2   1.876833 S    
C15   C17   1.381411 A    
C16   C18   1.383838 A    
C49   C74   1.483596 S    
C44   H32   1.084689 S    
C79   C85   1.541722 S    
C43   C48   1.378009 A    
C3    C19   1.395331 A    
C57   C59   1.398321 A    
C80   C86   1.539883 S    
C28   C72   1.394114 A    
C66   H48   1.084534 S    
C37   H27   1.082464 S    
C19   C68   1.464700 S    
C40   H30   1.082487 S    
C55   C57   1.403937 A    
N14   Ni3   1.885256 S    
C5    N5    1.322235 A    
N15   Ni3   1.892364 S    
N13   Ni4   1.885258 S    
C80   C82   1.544043 S    
N6    Ni4   1.885634 S    
C31   H23   1.080720 S    
C60   H44   1.083802 S    
C7    C23   1.368195 A    
C14   C20   1.389493 A    
N18   O7    1.299945 A    
C29   H33   1.081744 S    
C54   C88   1.474348 S    
C67   C69   1.425884 A    
C17   C78   1.463871 S    
C31   C33   1.398971 A    
N2    N16   1.407620 A    
C8    N8    1.320310 A    
C57   C70   1.475575 S    
C53   C63   1.404870 A    
C4    H4    1.078631 S    
C51   C75   1.395764 A    
C10   N10   1.320167 A    
C82   H52   1.109938 S    
C65   H47   1.077911 S    
C54   C56   1.409531 A    
C35   C48   1.480959 S    
C23   C46   1.417715 S    
C54   C64   1.405108 A    
C27   C71   1.394884 A    
C46   C48   1.401039 A    
H38   C76   1.082878 S    
C51   C71   1.395742 A    
C81   C86   1.537995 S    
C14   H12   1.067665 S    
C79   H53   1.108401 S    
C11   H9    1.077222 S    
C65   C70   1.375221 A    
C15   N15   1.331652 A    
C12   H10   1.075954 S    
C26   C73   1.388256 A    
H35   C85   1.107043 S    
C43   H31   1.084499 S    
C11   C23   1.373827 A    
C44   C47   1.369521 A    
H22   C42   1.080939 S    
C52   C72   1.395431 A    
C7    H5    1.079742 S    
C56   H42   1.083684 S    
C4    C20   1.396577 A    
C34   H26   1.083172 S    
C9    H7    1.080449 S    
C59   H43   1.080111 S    
N9    Ni2   1.869376 S    
C8    C24   1.372512 A    
C53   C87   1.481681 S    
N10   Ni1   1.869373 S    
C61   C63   1.397663 A    
H21   C41   1.080604 S    
C28   C30   1.396626 A    
C88   O4    1.398874 S    
C32   C34   1.397952 A    
C61   H45   1.081836 S    
C39   H29   1.082732 S    
C44   C46   1.397776 A    
C38   H28   1.082087 S    
C58   C69   1.467110 S    
C30   C50   1.406114 A    
H40   C64   1.082824 S    
C52   C76   1.399659 A    
C53   C55   1.399598 A    
