data_mof_unit_6667.cif
_audit_creation_date              2013-03-05T15:47:16-0500
_audit_creation_method            fapswitch 2.2
_symmetry_space_group_name_H-M    P1
_symmetry_Int_Tables_number       1
_space_group_crystal_system       triclinic
_cell_length_a                    27.720832
_cell_length_b                    11.040979
_cell_length_c                    9.890605
_cell_angle_alpha                 112.319281
_cell_angle_beta                  97.187005
_cell_angle_gamma                 92.79396
_cell_volume                      2763.05553778

loop_
_atom_site_label
_atom_site_type_symbol
_atom_site_description
_atom_site_fract_x
_atom_site_fract_y
_atom_site_fract_z
_atom_type_partial_charge
O1    O     O_R   0.504520 0.332330 0.577400 -0.526164
O2    O     O_R   0.495480 0.667670 0.422600 -0.535312
O3    O     O_R   0.490210 0.295500 0.332650 -0.541273
O4    O     O_R   0.509790 0.704500 0.667350 -0.540294
C1    C     C_R   0.495584 0.252951 0.438418 0.816119
C2    C     C_R   0.504065 0.746684 0.561417 0.818045
O5    O     O_R   0.437420 0.518430 0.622370 -0.530760
O6    O     O_R   0.562580 0.481570 0.377630 -0.550072
O7    O     O_R   0.423110 0.481600 0.377610 -0.574582
O8    O     O_R   0.576890 0.518400 0.622390 -0.526582
C3    C     C_R   0.407630 0.502880 0.502739 0.877536
C4    C     C_R   0.592764 0.503706 0.499934 0.877138
Cu1   Cu    Cu3+1 0.508480 0.521810 0.644910 1.170154
Cu2   Cu    Cu3+1 0.491520 0.478190 0.355090 1.129419
C5    C     C_R   0.169720 0.390047 0.428274 0.612193
C6    C     C_R   0.827524 0.665219 0.519780 0.652708
O9    O     O_2   0.188308 0.273600 0.398871 -0.500162
O10   O     O_2   0.809637 0.781687 0.583236 -0.469672
N1    N     N_R   0.200391 0.504556 0.479765 -0.432727
N2    N     N_R   0.796942 0.550818 0.466924 -0.446120
C7    C     C_R   0.182127 0.622977 0.504582 0.660210
C8    C     C_R   0.813711 0.431458 0.399358 0.657644
C9    C     C_R   0.283664 0.568154 0.631338 0.366990
C10   C     C_R   0.731528 0.509465 0.598265 0.358261
C11   C     C_R   0.334905 0.576998 0.634107 0.223199
C12   C     C_R   0.680796 0.490708 0.601594 0.223312
C13   C     C_R   0.322900 0.430283 0.373959 -0.184739
C14   C     C_R   0.663686 0.577587 0.410742 -0.154149
C15   C     C_R   0.272738 0.431322 0.367864 -0.128750
C16   C     C_R   0.713173 0.590512 0.402566 -0.099248
C17   C     C_R   0.252522 0.499320 0.494812 0.175928
C18   C     C_R   0.747067 0.553390 0.492205 0.165815
C19   C     C_R   0.099543 0.515318 0.448254 -0.043386
C20   C     C_R   0.896152 0.538533 0.448717 -0.048353
C21   C     C_R   0.118877 0.393237 0.406108 -0.034069
C22   C     C_R   0.877806 0.661111 0.512796 -0.012468
C23   C     C_R   0.087109 0.277813 0.335598 -0.110846
C24   C     C_R   0.910499 0.775044 0.579720 -0.122905
C25   C     C_R   0.131477 0.630924 0.494201 -0.093888
C26   C     C_R   0.863742 0.422940 0.393425 -0.108908
C27   C     C_R   0.354557 0.503287 0.505558 -0.171625
C28   C     C_R   0.646408 0.521610 0.503262 -0.204207
H1    H     H_    0.337028 0.374153 0.273756 0.211338
H2    H     H_    0.638845 0.613390 0.345653 0.255920
H3    H     H_    0.249251 0.379212 0.262915 0.195901
H4    H     H_    0.725251 0.627950 0.324486 0.210307
H5    H     H_    0.100922 0.182899 0.288986 0.207323
H6    H     H_    0.897976 0.869422 0.639274 0.200072
C29   C     C_R   0.965690 0.406361 0.396858 -0.080185
C30   C     C_R   0.029275 0.644994 0.481737 -0.071225
C31   C     C_R   0.978964 0.649702 0.496694 0.084599
C32   C     C_R   0.016583 0.402320 0.388591 0.069586
C33   C     C_R   0.947028 0.531277 0.444500 0.049960
C34   C     C_R   0.048277 0.521171 0.441153 0.045849
C35   C     C_R   0.932442 0.292836 0.368823 0.337372
C36   C     C_R   0.061801 0.757103 0.500734 0.337772
C37   C     C_R   0.882233 0.301185 0.349988 -0.121962
C38   C     C_R   0.112219 0.750290 0.517608 -0.164258
O11   O     O_2   0.782130 0.320922 0.342330 -0.459931
O12   O     O_2   0.212854 0.732381 0.537690 -0.471734
C39   C     C_R   0.036866 0.283798 0.318760 -0.074746
C40   C     C_R   0.960279 0.768311 0.576318 -0.100009
H7    H     H_    0.857601 0.212586 0.319981 0.242107
H8    H     H_    0.136456 0.837867 0.539606 0.215691
H9    H     H_    0.014354 0.194427 0.249458 0.208118
H10   H     H_    0.984076 0.856593 0.641794 0.202223
C41   C     C_2   0.489992 0.109924 0.399106 0.122627
C42   C     C_2   0.510762 0.888881 0.600438 0.122838
C43   C     C_2   0.511989 0.060133 0.493237 0.228558
C44   C     C_2   0.488518 0.940741 0.508269 0.229423
N3    N     N_2   0.478780 0.445430 0.137360 -0.298800
N4    N     N_2   0.521220 0.554570 0.862640 -0.284808
C45   C     C_2   0.507616 0.499829 0.075895 0.379078
C46   C     C_2   0.496276 0.483461 0.916056 0.385503
H11   H     H_    0.546949 0.628768 0.934606 0.256446
H12   H     H_    0.445936 0.396444 0.075086 0.240289
N5    N     N_R   0.539285 0.970143 0.741001 0.148881
O13   O     O_R   0.577467 0.927721 0.792542 -0.274111
O14   O     O_R   0.521178 0.070900 0.830387 -0.232083
N6    N     N_R   0.466383 0.024625 0.252886 0.169996
O15   O     O_R   0.486215 0.920344 0.177687 -0.243818
O16   O     O_R   0.430358 0.062206 0.185773 -0.248203
N7    N     N_R   0.459611 0.380411 0.820079 0.122171
O17   O     O_R   0.414092 0.403656 0.810973 -0.303304
O18   O     O_R   0.469137 0.259073 0.784085 -0.284776
N8    N     N_R   0.553989 0.567322 0.155462 0.102566
O19   O     O_R   0.592883 0.521107 0.102042 -0.334908
O20   O     O_R   0.556629 0.690717 0.243148 -0.328936
N9    N     N_R   0.664614 0.436952 0.701261 0.179654
O21   O     O_R   0.650104 0.514529 0.821695 -0.253175
O22   O     O_R   0.675857 0.321138 0.691113 -0.210586
N10   N     N_R   0.365904 0.674221 0.759261 0.169558
O23   O     O_R   0.366982 0.797457 0.777818 -0.212382
O24   O     O_R   0.387076 0.643656 0.865084 -0.220847
S1    S     S_3+6 0.775388 0.477455 0.725629 0.102355
O25   O     O_2   0.757685 0.510306 0.871799 -0.187027
O26   O     O_2   0.782576 0.333641 0.662319 -0.203046
O27   O     O_3   0.829391 0.567024 0.755882 -0.534813
H13   H     H_    0.853745 0.519919 0.793301 0.383126
S2    S     S_3+6 0.259426 0.640426 0.799116 0.103471
O28   O     O_2   0.291036 0.620376 0.922313 -0.194688
O29   O     O_2   0.258827 0.785600 0.836771 -0.194080
O30   O     O_3   0.202338 0.572314 0.783766 -0.536513
H14   H     H_    0.190014 0.628888 0.874283 0.383856
S3    S     S_3+6 0.948626 0.152129 0.402857 0.053399
O31   O     O_2   0.951497 0.040753 0.258590 -0.241017
O32   O     O_2   0.996508 0.182652 0.504848 -0.216019
O33   O     O_3   0.905273 0.105591 0.483349 -0.485608
H15   H     H_    0.916270 0.026575 0.497440 0.394969
S4    S     S_3+6 0.043345 0.895230 0.465189 0.045289
O34   O     O_2   0.993484 0.863789 0.373358 -0.202849
O35   O     O_2   0.043004 0.009144 0.609572 -0.277610
O36   O     O_3   0.083109 0.938036 0.371385 -0.483829
H16   H     H_    0.105045 0.013551 0.446119 0.374441
S5    S     S_3+6 0.426100 0.878555 0.428112 0.086602
O37   O     O_2   0.423694 0.779061 0.272676 -0.193952
O38   O     O_2   0.403800 0.813282 0.517448 -0.275640
O39   O     O_3   0.393268 0.002362 0.426665 -0.477019
H17   H     H_    0.360438 0.959061 0.373293 0.408679
S6    S     S_3+6 0.574814 0.119615 0.565686 0.103826
O40   O     O_2   0.604152 0.007459 0.561136 -0.226231
O41   O     O_2   0.595340 0.184799 0.473513 -0.257016
O42   O     O_3   0.579443 0.230727 0.740686 -0.424757
H18   H     H_    0.608120 0.211043 0.796423 0.421351

loop_
_geom_bond_atom_site_label_1
_geom_bond_atom_site_label_2
_geom_bond_distance
_ccdc_geom_bond_type
C13   C15   1.385060 A    
C45   C46   1.511235 S    
S1    O25   1.503021 D    
C46   N7    1.433238 S    
C1    C41   1.470931 S    
N1    C17   1.440393 S    
S1    O27   1.681464 S    
O42   H18   0.990599 S    
N5    O13   1.301631 A    
C12   N9    1.433284 S    
C5    N1    1.370578 A    
S3    O32   1.502052 D    
C19   C25   1.402850 A    
C35   S3    1.776356 S    
O1    C1    1.302936 A    
N1    C7    1.370389 A    
C10   C12   1.417777 A    
O36   H16   0.990624 S    
C32   C39   1.409963 A    
N3    H12   1.029317 S    
N8    O20   1.300229 A    
S5    O37   1.503039 D    
C19   C34   1.419919 A    
O33   H15   0.990516 S    
Cu2   N3    2.024516 S    
C36   S4    1.774676 S    
O4    Cu1   1.941646 S    
O39   H17   0.990515 S    
S2    O28   1.502724 D    
C4    C28   1.485137 S    
S4    O34   1.501851 D    
C32   C34   1.421020 A    
S5    O38   1.503046 D    
C23   H5    1.083374 S    
C24   H6    1.083297 S    
S6    O42   1.683335 S    
O6    C4    1.313535 A    
C29   C32   1.425221 A    
C2    C42   1.463469 S    
C9    S2    1.779721 S    
Cu1   Cu2   2.694798 S    
O2    C2    1.300395 A    
C31   C40   1.410080 A    
N4    H11   1.029355 S    
C5    C21   1.403256 A    
S6    O41   1.503671 D    
C37   H7    1.083929 S    
N5    O14   1.299825 A    
C38   H8    1.083524 S    
S3    O33   1.682852 S    
C40   H10   1.074992 S    
C7    O12   1.349576 S    
N4    C46   1.314228 D    
C10   S1    1.785179 S    
C11   C27   1.416420 A    
C8    O11   1.350347 S    
N3    C45   1.312023 D    
N8    O19   1.301299 A    
C29   C35   1.434180 A    
C25   C38   1.394015 A    
C14   H2    1.074138 S    
S2    O30   1.682307 S    
C30   C36   1.432679 A    
C15   H3    1.083130 S    
C31   C33   1.421256 A    
C9    C17   1.418151 A    
O5    C3    1.303397 A    
O7    Cu2   1.937412 S    
C10   C18   1.414316 A    
C39   H9    1.073387 S    
C13   C27   1.400846 A    
N7    O17   1.298791 A    
C7    C25   1.404408 A    
C6    N2    1.367684 A    
S5    O39   1.682259 S    
C8    C26   1.401670 A    
N10   O24   1.299114 A    
C30   C31   1.422168 A    
C30   C34   1.419128 A    
O7    C3    1.301099 A    
S4    O36   1.684422 S    
O3    Cu2   1.941645 S    
O8    C4    1.295354 A    
N6    O16   1.301449 A    
N7    O18   1.298856 A    
N2    C8    1.366726 A    
C35   C37   1.393223 A    
C20   C26   1.403659 A    
O4    C2    1.294649 A    
N9    O22   1.300567 A    
S6    O40   1.503941 D    
C12   C28   1.422241 A    
S2    O29   1.502952 D    
N2    C18   1.435202 S    
C42   N5    1.439219 S    
C5    O9    1.349520 S    
C11   N10   1.434448 S    
O6    Cu2   1.951411 S    
C26   C37   1.392151 A    
C14   C28   1.399686 A    
C21   C23   1.395644 A    
C16   H4    1.083054 S    
C41   N6    1.440618 S    
N6    O15   1.301789 A    
O3    C1    1.295506 A    
O8    Cu1   1.937417 S    
C23   C39   1.389696 A    
S1    O26   1.503304 D    
Cu1   N4    2.024518 S    
C44   S5    1.794798 S    
S3    O31   1.503251 D    
C43   S6    1.787902 S    
C22   C24   1.395781 A    
C15   C17   1.398325 A    
C6    C22   1.406253 A    
C16   C18   1.393532 A    
C29   C33   1.424357 A    
C14   C16   1.387891 A    
N10   O23   1.300363 A    
C19   C21   1.406200 A    
C36   C38   1.395798 A    
C3    C27   1.475159 S    
C20   C22   1.410039 A    
C9    C11   1.415142 A    
C43   C44   1.507497 S    
O2    Cu2   1.932054 S    
S4    O35   1.503862 D    
C45   N8    1.426617 S    
C13   H1    1.083491 S    
O5    Cu1   1.951411 S    
O1    Cu1   1.932053 S    
C20   C33   1.421400 A    
C6    O10   1.349216 S    
O27   H13   0.990535 S    
O30   H14   0.990440 S    
C42   C44   1.352523 D    
C41   C43   1.349150 D    
N9    O21   1.301091 A    
C24   C40   1.389447 A    
