data_mof_unit_22731.cif
_audit_creation_date              2012-12-11T14:56:48-0500
_audit_creation_method            fapswitch 2.2
_symmetry_space_group_name_H-M    P1
_symmetry_Int_Tables_number       1
_space_group_crystal_system       triclinic
_cell_length_a                    10.575804
_cell_length_b                    10.639699
_cell_length_c                    17.085029
_cell_angle_alpha                 80.478443
_cell_angle_beta                  89.648699
_cell_angle_gamma                 119.244421
_cell_volume                      1645.859591

loop_
_atom_site_label
_atom_site_type_symbol
_atom_type_description
_atom_site_fract_x
_atom_site_fract_y
_atom_site_fract_z
_atom_type_partial_charge
C1    C     C_R   0.278198 0.888598 0.132819 0.562029
C2    C     C_1   0.650526 0.343442 0.707274 -0.065729
C3    C     C_R   0.646296 0.717029 0.804185 -0.006631
C4    C     C_R   0.636811 0.281046 0.085857 0.603892
C5    C     C_R   0.632213 0.700583 0.725647 -0.151485
C6    C     C_R   0.667240 0.821612 0.664768 0.053360
C7    C     C_R   0.720504 0.961279 0.681413 -0.096342
C8    C     C_R   0.732622 0.978865 0.759925 -0.132368
C9    C     C_R   0.689918 0.856133 0.821675 0.046398
C10   C     C_R   0.075053 0.890853 0.795392 -0.101533
C11   C     C_R   0.046427 0.885089 0.716525 0.241794
C12   C     C_R   0.798010 0.428538 0.262909 -0.180899
C13   C     C_R   0.055221 0.778747 0.680944 0.023438
C14   C     C_R   0.091468 0.679459 0.725778 -0.175975
C15   C     C_R   0.133333 0.695882 0.802194 -0.143535
C16   C     C_R   0.640585 0.858101 0.125285 0.561196
C17   C     C_R   0.132003 0.806913 0.835521 -0.002241
C18   C     C_R   0.686622 0.810268 0.357264 0.550000
C19   C     C_R   0.688969 0.395737 0.394829 0.589913
C20   C     C_R   0.108196 0.812443 0.359884 0.571896
C21   C     C_R   0.676721 0.801284 0.584710 0.544365
C22   C     C_R   0.678240 0.381495 0.624233 0.539830
C23   C     C_R   0.790916 0.413917 0.183775 0.250146
C24   C     C_R   0.029872 0.775320 0.597040 0.590492
C25   C     C_R   0.214219 0.857390 0.902833 0.574705
C26   C     C_R   0.637028 0.283286 0.860712 0.568883
C27   C     C_R   0.647212 0.867204 0.899303 0.593591
C28   C     C_R   0.526176 0.302213 0.205356 -0.182023
C29   C     C_R   0.534109 0.317342 0.284857 0.230464
C30   C     C_R   0.670419 0.371124 0.314378 0.005171
C31   C     C_3   0.131593 0.125943 0.659762 0.009247
C32   C     C_3   0.097873 0.228247 0.602002 -0.348648
C33   C     C_3   0.330325 0.336613 0.307843 0.014992
C34   C     C_R   0.653008 0.344397 0.156176 0.016669
C35   C     C_3   0.224860 0.317642 0.375638 -0.345622
C36   C     C_3   0.011263 0.419799 0.164319 0.010402
C37   C     C_3   0.101876 0.414523 0.096697 -0.321091
C38   C     C_2   0.608162 0.585883 0.866223 0.232278
C39   C     C_1   0.668946 0.848468 0.205370 -0.041699
C40   C     C_1   0.680571 0.839392 0.274816 -0.044117
C41   C     C_1   0.226765 0.853679 0.215449 -0.046942
C42   C     C_1   0.178313 0.834169 0.283033 -0.041494
C43   C     C_1   0.643535 0.321493 0.777867 -0.066612
Cr1   Cr    Cr6+3 0.402240 0.783890 0.019450 1.015805
Cr2   Cr    Cr6+3 0.382360 0.097900 0.991800 1.022216
Cr3   Cr    Cr6+3 0.715380 0.118170 0.988700 1.025429
Cr4   Cr    Cr6+3 0.936650 0.882420 0.465510 1.023426
Cr5   Cr    Cr6+3 0.605770 0.565620 0.493360 1.011230
Cr6   Cr    Cr6+3 0.921340 0.550490 0.496380 0.997395
H1    H     H_    0.419794 0.246068 0.184264 0.141034
H2    H     H_    0.158569 0.169608 0.715863 0.114398
H3    H     H_    0.010852 0.240715 0.630220 0.147244
H4    H     H_    0.196985 0.338075 0.585779 0.091081
H5    H     H_    0.061499 0.183427 0.546973 0.160894
H6    H     H_    0.265669 0.285886 0.259465 0.121891
H7    H     H_    0.403131 0.456810 0.285534 0.144919
H8    H     H_    0.286039 0.368465 0.424872 0.158497
H9    H     H_    0.161054 0.371583 0.353871 0.075562
H10   H     H_    0.148553 0.199129 0.398604 0.170319
H11   H     H_    0.951822 0.307477 0.202183 0.117098
H12   H     H_    0.096731 0.595406 0.700137 0.145865
H13   H     H_    0.086453 0.498248 0.200368 0.133776
H14   H     H_    0.160621 0.523054 0.056016 0.191211
H15   H     H_    0.182659 0.384773 0.121474 0.070365
H16   H     H_    0.030251 0.331010 0.062148 0.157285
H17   H     H_    0.530653 0.478346 0.855371 0.101922
H18   H     H_    0.174537 0.627970 0.832974 0.138688
H19   H     H_    0.904146 0.485922 0.284145 0.140320
H20   H     H_    0.598852 0.593674 0.711530 0.116234
H21   H     H_    0.751897 0.055368 0.633952 0.120192
H22   H     H_    0.765073 0.086503 0.772523 0.136141
H23   H     H_    0.065538 0.971442 0.822436 0.141165
H24   H     H_    0.228625 0.127449 0.632599 0.150301
O1    O     O_R   0.521780 0.757110 0.108900 -0.519978
O2    O     O_R   0.805020 0.410040 0.421340 -0.541999
O3    O     O_R   0.049240 0.685450 0.403290 -0.505673
O4    O     O_R   0.275160 0.783810 0.101120 -0.493003
O5    O     O_R   0.077520 0.903010 0.551800 -0.478877
O6    O     O_R   0.802980 0.872780 0.546830 -0.490273
O7    O     O_R   0.578090 0.681300 0.569920 -0.528752
O8    O     O_R   0.608530 0.436370 0.586530 -0.508134
O9    O     O_R   0.798770 0.401880 0.597100 -0.526617
O10   O     O_R   0.043450 0.677890 0.566230 -0.515374
O11   O     O_3   0.821250 0.666180 0.485090 -0.279340
O12   O     O_R   0.513330 0.228330 0.898660 -0.504513
O13   O     O_R   0.237900 0.972600 0.090980 -0.498411
O14   O     O_R   0.511190 0.220540 0.061620 -0.528134
O15   O     O_R   0.736920 0.257720 0.063840 -0.473866
O16   O     O_R   0.710450 0.984050 0.081720 -0.504147
O17   O     O_R   0.524090 0.765520 0.933110 -0.493555
O18   O     O_R   0.277300 0.791600 0.938160 -0.505336
O19   O     O_R   0.240210 0.981010 0.915190 -0.522212
O20   O     O_3   0.008966 0.982796 0.674144 -0.542021
O21   O     O_3   0.409668 0.266146 0.336280 -0.534717
O22   O     O_3   0.916069 0.468391 0.131878 -0.515100
O23   O     O_R   0.739230 0.266130 0.888050 -0.506128
O24   O     O_2   0.664003 0.596475 0.928921 -0.484032
O25   O     O_R   0.712580 0.991850 0.918770 -0.516274
O26   O     O_3   0.499990 0.999980 0.999980 -0.281419
O27   O     O_R   0.083770 0.911170 0.376030 -0.491216
O28   O     O_R   0.808770 0.880340 0.383890 -0.506155
O29   O     O_R   0.584340 0.689460 0.394160 -0.516990
O30   O     O_R   0.614320 0.443940 0.423590 -0.459821

loop_
_geom_bond_atom_site_label_1
_geom_bond_atom_site_label_2
_ccdc_geom_bond_type
C33   H6    S    
Cr3   O26   S    
C27   O25   A    
Cr4   O28   S    
C1    O4    A    
C41   C42   T    
Cr4   O6    S    
C33   O21   S    
C7    H21   S    
C7    C8    A    
C4    O14   A    
C12   H19   S    
C12   C23   A    
C35   H9    S    
C16   O1    A    
C22   O9    A    
Cr6   O11   S    
Cr1   O4    S    
Cr2   O14   S    
C24   O10   A    
C5    C6    A    
Cr1   O26   S    
C31   H24   S    
C10   C17   A    
C11   C13   A    
Cr5   O8    S    
C20   O3    A    
C27   O17   A    
C35   H10   S    
C18   O29   A    
Cr2   O19   S    
C18   C40   S    
C32   H3    S    
C5    H20   S    
C19   O30   A    
C38   H17   S    
C3    C38   S    
C8    C9    A    
C8    H22   S    
C37   H16   S    
C2    C22   S    
Cr6   O2    S    
C11   O20   S    
C33   H7    S    
Cr3   O25   S    
C15   H18   S    
C16   O16   A    
C13   C14   A    
C28   H1    S    
C38   O24   D    
C36   H13   S    
C32   H5    S    
C37   H14   S    
C26   C43   S    
Cr3   O15   S    
C26   O23   A    
C4    C34   S    
C25   O18   A    
C22   O8    A    
C14   H12   S    
Cr2   O26   S    
C39   C40   T    
Cr3   O16   S    
C3    C5    A    
C31   O20   S    
C6    C21   S    
Cr4   O27   S    
Cr5   O11   S    
C13   C24   S    
C18   O28   A    
Cr6   O9    S    
Cr2   O12   S    
C29   C30   A    
C3    C9    A    
C31   C32   S    
C20   O27   A    
C2    C43   T    
C23   C34   A    
Cr5   O29   S    
C21   O6    A    
Cr6   O3    S    
Cr4   O11   S    
Cr1   O1    S    
Cr1   O18   S    
C24   O5    A    
C32   H4    S    
C37   H15   S    
Cr1   O17   S    
C9    C27   S    
C1    C41   S    
C1    O13   A    
C15   C17   A    
C28   C29   A    
C25   O19   A    
C12   C30   A    
C31   H2    S    
C36   H11   S    
C20   C42   S    
C6    C7    A    
C4    O15   A    
C35   H8    S    
C17   C25   S    
Cr5   O7    S    
C19   O2    A    
Cr2   O13   S    
Cr5   O30   S    
C36   O22   S    
Cr6   O10   S    
C29   O21   S    
C26   O12   A    
C21   O7    A    
C33   C35   S    
C23   O22   S    
C10   C11   A    
C16   C39   S    
C28   C34   A    
Cr3   O23   S    
C36   C37   S    
C14   C15   A    
Cr4   O5    S    
C19   C30   S    
C10   H23   S    
