data_mof_unit_6641.cif
_audit_creation_date              2012-10-26T20:52:23-0400
_audit_creation_method            fapswitch 2.2
_symmetry_space_group_name_H-M    P1
_symmetry_Int_Tables_number       1
_space_group_crystal_system       triclinic
_cell_length_a                    16.017753
_cell_length_b                    14.753027
_cell_length_c                    11.088984
_cell_angle_alpha                 91.952692
_cell_angle_beta                  88.786898
_cell_angle_gamma                 90.595413
_cell_volume                      2618.21031185

loop_
_atom_site_label
_atom_site_type_symbol
_atom_type_description
_atom_site_fract_x
_atom_site_fract_y
_atom_site_fract_z
_atom_type_partial_charge
C1    C     C_R   0.340868 0.499608 0.501099 0.539754
C2    C     C_1   0.499693 0.197373 0.500730 0.189550
C3    C     C_R   0.504983 0.498412 0.266375 0.527416
C4    C     C_R   0.503390 0.502111 0.734757 0.547444
C5    C     C_2   0.477716 0.443611 0.935293 0.174359
C6    C     C_2   0.459911 0.461662 0.064885 0.173825
C7    C     C_2   0.508952 0.510552 0.866464 0.288563
C8    C     C_2   0.521798 0.492271 0.137462 0.305294
C9    C     C_R   0.959341 0.554554 0.411398 0.105250
C10   C     C_R   0.047123 0.555966 0.416403 0.128522
C11   C     C_R   0.912757 0.497198 0.487216 -0.020186
C12   C     C_R   0.659134 0.500322 0.499988 0.517460
C13   C     C_R   0.087372 0.498453 0.495185 -0.008324
C14   C     C_R   0.953238 0.437028 0.561305 0.240619
C15   C     C_R   0.040799 0.441777 0.571029 0.234304
C16   C     C_1   0.823042 0.499294 0.490294 -0.025088
C17   C     C_1   0.176973 0.498526 0.499914 0.007043
C18   C     C_1   0.251890 0.498793 0.501342 -0.030767
C19   C     C_1   0.748121 0.500508 0.494821 -0.047092
C20   C     C_3   0.519382 0.291265 0.881247 -0.278021
C21   C     C_3   0.310422 0.487431 0.053007 -0.330869
C22   C     C_3   0.599880 0.640096 0.866174 0.041749
C23   C     C_R   0.553446 0.953890 0.577150 0.231206
C24   C     C_3   0.677764 0.581668 0.836434 -0.266827
C25   C     C_3   0.747303 0.637867 0.778316 -0.487815
C26   C     C_3   0.661255 0.544175 0.169011 0.011401
C27   C     C_3   0.645943 0.647031 0.189847 -0.245174
C28   C     C_3   0.720396 0.705642 0.152084 -0.492955
C29   C     C_3   0.148400 0.585133 0.252912 -0.317931
C30   C     C_3   0.916104 0.566497 0.206237 -0.317838
C31   C     C_3   0.914234 0.288085 0.582875 0.022104
C32   C     C_3   0.851727 0.268931 0.482057 -0.276538
C33   C     C_3   0.855240 0.170149 0.436766 -0.498811
C34   C     C_R   0.446304 0.948855 0.425124 0.225064
C35   C     C_3   0.067898 0.422380 0.770944 0.024713
C36   C     C_3   0.129202 0.499705 0.802190 -0.273809
C37   C     C_3   0.112819 0.537944 0.929724 -0.505630
C38   C     C_3   0.664543 0.158298 0.629169 -0.318937
C39   C     C_3   0.326278 0.139905 0.388296 -0.299986
C40   C     C_3   0.688017 0.910477 0.611793 -0.002989
C41   C     C_3   0.704568 0.836261 0.514210 -0.273256
C42   C     C_3   0.797521 0.829447 0.482987 -0.486701
C43   C     C_3   0.311571 0.898443 0.396978 0.004228
C44   C     C_3   0.288829 0.804196 0.442031 -0.248981
C45   C     C_R   0.500054 0.902805 0.500701 -0.022167
C46   C     C_3   0.197586 0.798981 0.483679 -0.481764
C47   C     C_R   0.447588 0.045405 0.422720 0.106797
C48   C     C_R   0.550971 0.050693 0.581336 0.107356
C49   C     C_R   0.499541 0.097031 0.501545 -0.028409
C50   C     C_1   0.500083 0.802638 0.500296 0.190890
Cu1   Cu    Cu3+1 0.500000 0.589220 0.500000 0.942553
Cu2   Cu    Cu3+1 0.500000 0.410780 0.500000 0.974187
H1    H     H_    0.398732 0.331714 0.920264 0.267786
H2    H     H_    0.579778 0.677096 0.786719 0.178955
H3    H     H_    0.701625 0.553072 0.919744 0.195001
H4    H     H_    0.663064 0.524282 0.773115 0.153292
H5    H     H_    0.726725 0.663084 0.690756 0.163617
H6    H     H_    0.803243 0.595039 0.761459 0.159625
H7    H     H_    0.764763 0.696508 0.838277 0.133273
H8    H     H_    0.724473 0.533116 0.128577 0.135328
H9    H     H_    0.663100 0.508783 0.255487 0.121297
H10   H     H_    0.590259 0.668173 0.140320 0.214476
H11   H     H_    0.633370 0.662001 0.287288 0.172878
H12   H     H_    0.498188 0.228683 0.832000 0.167291
H13   H     H_    0.772800 0.695937 0.213562 0.142229
H14   H     H_    0.702702 0.778256 0.158016 0.146381
H15   H     H_    0.741082 0.688217 0.058232 0.148828
H16   H     H_    0.064127 0.679256 0.329561 0.274668
H17   H     H_    0.130582 0.614223 0.166364 0.129060
H18   H     H_    0.144362 0.509942 0.243363 0.142201
H19   H     H_    0.213907 0.605412 0.271480 0.155560
H20   H     H_    0.862120 0.633545 0.355061 0.243938
H21   H     H_    0.892730 0.615827 0.141981 0.131803
H22   H     H_    0.873784 0.506320 0.206282 0.129190
H23   H     H_    0.535555 0.274000 0.974670 0.143938
H24   H     H_    0.979319 0.545221 0.174349 0.166743
H25   H     H_    0.899989 0.241549 0.657424 0.145966
H26   H     H_    0.978821 0.271834 0.550055 0.158059
H27   H     H_    0.787586 0.284371 0.516348 0.179934
H28   H     H_    0.866152 0.313111 0.405038 0.159007
H29   H     H_    0.918074 0.154704 0.397509 0.147432
H30   H     H_    0.808108 0.158005 0.365863 0.148772
H31   H     H_    0.841534 0.123842 0.511698 0.134328
H32   H     H_    0.078658 0.366011 0.832514 0.147995
H33   H     H_    0.002481 0.444815 0.789178 0.161369
H34   H     H_    0.575947 0.317794 0.834015 0.162517
H35   H     H_    0.194191 0.474160 0.794281 0.170756
H36   H     H_    0.122485 0.555581 0.738608 0.161075
H37   H     H_    0.049997 0.569137 0.936793 0.144160
H38   H     H_    0.160454 0.590869 0.951428 0.145854
H39   H     H_    0.116262 0.483429 0.995969 0.135566
H40   H     H_    0.609044 0.067312 0.748589 0.279326
H41   H     H_    0.724242 0.136781 0.668021 0.118627
H42   H     H_    0.652561 0.229486 0.659562 0.166258
H43   H     H_    0.671613 0.155267 0.529132 0.147493
H44   H     H_    0.385518 0.054481 0.259275 0.281771
H45   H     H_    0.368115 0.437224 0.201922 0.257776
H46   H     H_    0.267379 0.105554 0.360402 0.116237
H47   H     H_    0.327458 0.209458 0.353152 0.171868
H48   H     H_    0.326497 0.145021 0.488602 0.148325
H49   H     H_    0.728187 0.898141 0.689917 0.147925
H50   H     H_    0.707368 0.977648 0.577301 0.136160
H51   H     H_    0.681507 0.769851 0.546204 0.184935
H52   H     H_    0.670807 0.852071 0.431106 0.151942
H53   H     H_    0.822397 0.895859 0.453439 0.144895
H54   H     H_    0.807018 0.778593 0.408254 0.146595
H55   H     H_    0.832466 0.807917 0.562442 0.147560
H56   H     H_    0.249746 0.461702 0.088332 0.134352
H57   H     H_    0.269238 0.914500 0.322705 0.147662
H58   H     H_    0.299628 0.950183 0.471181 0.122564
H59   H     H_    0.300168 0.752344 0.368563 0.189619
H60   H     H_    0.328584 0.788621 0.519271 0.174325
H61   H     H_    0.185175 0.849575 0.558212 0.139379
H62   H     H_    0.183574 0.730265 0.517145 0.177498
H63   H     H_    0.155907 0.812100 0.407560 0.147803
H64   H     H_    0.312235 0.474392 0.953808 0.160027
H65   H     H_    0.314910 0.561588 0.073185 0.152538
H66   H     H_    0.619294 0.695336 0.930132 0.148837
N1    N     N_1   0.500000 0.276710 0.500000 -0.193094
N2    N     N_1   0.500000 0.723290 0.500000 -0.211244
N3    N     N_2   0.453390 0.357547 0.883895 -0.523891
N4    N     N_2   0.377408 0.441221 0.110107 -0.558115
N5    N     N_2   0.094403 0.620404 0.349396 -0.511963
N6    N     N_2   0.919043 0.608319 0.326098 -0.520400
N7    N     N_2   0.596633 0.100851 0.670960 -0.525049
N8    N     N_2   0.397466 0.090242 0.338682 -0.509452
O1    O     O_R   0.380310 0.575320 0.500020 -0.494933
O2    O     O_3   0.602862 0.502947 0.088890 -0.591681
O3    O     O_3   0.906174 0.377977 0.630527 -0.576268
O4    O     O_3   0.081768 0.388414 0.651186 -0.571921
O5    O     O_3   0.603978 0.908150 0.654281 -0.578105
O6    O     O_3   0.394437 0.898688 0.349289 -0.569675
O7    O     O_R   0.619690 0.575320 0.499980 -0.523177
O8    O     O_R   0.380310 0.424640 0.499970 -0.487287
O9    O     O_R   0.619690 0.424640 0.500030 -0.499662
O10   O     O_R   0.500000 0.575320 0.321940 -0.515262
O11   O     O_R   0.500000 0.575320 0.678060 -0.504484
O12   O     O_R   0.500000 0.424640 0.321880 -0.511998
O13   O     O_R   0.500000 0.424640 0.678120 -0.482561
O14   O     O_3   0.531749 0.593537 0.922710 -0.577011

loop_
_geom_bond_atom_site_label_1
_geom_bond_atom_site_label_2
_ccdc_geom_bond_type
C23   C45   A    
C22   O14   S    
Cu2   O8    S    
C41   C42   S    
C35   C36   S    
C35   H33   S    
H40   N7    S    
C9    N6    S    
C47   C49   A    
C36   H36   S    
C24   H3    S    
C1    C18   S    
C37   H38   S    
C31   H26   S    
C50   N2    T    
C36   C37   S    
C27   H10   S    
C26   H9    S    
C3    O12   A    
C4    C7    S    
C7    O14   S    
C30   H22   S    
C11   C14   A    
C33   H31   S    
C5    N3    S    
Cu2   O13   S    
C12   C19   S    
C17   C18   T    
C3    O10   A    
Cu1   O10   S    
C21   N4    S    
C21   H65   S    
C4    O11   A    
C8    O2    S    
C12   O9    A    
C20   H34   S    
C38   H43   S    
Cu2   O12   S    
C43   H58   S    
C42   H55   S    
Cu1   O11   S    
C48   N7    S    
C34   O6    S    
C39   N8    S    
H20   N6    S    
C25   H5    S    
C21   H64   S    
H16   N5    S    
C44   C46   S    
C31   H25   S    
C29   H17   S    
C36   H35   S    
C46   H62   S    
H44   N8    S    
Cu1   Cu2   S    
C1    O1    A    
C28   H15   S    
C24   C25   S    
C22   H2    S    
C3    C8    S    
C5    C7    D    
C30   H21   S    
C37   H39   S    
C39   H46   S    
C6    C8    D    
C41   H51   S    
C20   H23   S    
C20   H12   S    
C28   H14   S    
C43   C44   S    
Cu2   N1    S    
H45   N4    S    
C2    C49   S    
C32   H28   S    
C30   H24   S    
C11   C16   S    
C39   H47   S    
C31   C32   S    
C35   H32   S    
C38   H42   S    
Cu1   N2    S    
C26   C27   S    
C23   O5    S    
C34   C45   A    
C26   O2    S    
C9    C11   A    
C35   O4    S    
C20   N3    S    
C27   H11   S    
C46   H63   S    
C40   C41   S    
C40   O5    S    
C30   N6    S    
C10   N5    S    
C12   O7    A    
C13   C15   A    
C33   H30   S    
C22   C24   S    
C25   H6    S    
C6    N4    S    
C1    O8    A    
C44   H60   S    
C38   N7    S    
C47   N8    S    
C29   H18   S    
C9    C10   A    
C22   H66   S    
C48   C49   A    
C23   C48   A    
C46   H61   S    
C40   H49   S    
C10   C13   A    
C2    N1    T    
C37   H37   S    
C24   H4    S    
C25   H7    S    
C41   H52   S    
C13   C17   S    
Cu1   O1    S    
C32   C33   S    
C28   H13   S    
C31   O3    S    
H1    N3    S    
C4    O13   A    
Cu1   O7    S    
C39   H48   S    
C5    C6    S    
C15   O4    S    
C33   H29   S    
C45   C50   S    
C16   C19   T    
C29   N5    S    
C38   H41   S    
C43   O6    S    
C42   H53   S    
C21   H56   S    
C40   H50   S    
C42   H54   S    
C44   H59   S    
C27   C28   S    
Cu2   O9    S    
C14   C15   A    
C34   C47   A    
C43   H57   S    
C29   H19   S    
C26   H8    S    
C32   H27   S    
C14   O3    S    
