data_mof_unit_37382.cif
_audit_creation_date              2012-12-11T15:52:29-0500
_audit_creation_method            fapswitch 2.2
_symmetry_space_group_name_H-M    P1
_symmetry_Int_Tables_number       1
_space_group_crystal_system       triclinic
_cell_length_a                    6.921559
_cell_length_b                    14.572832
_cell_length_c                    16.001123
_cell_angle_alpha                 90.300536
_cell_angle_beta                  89.950203
_cell_angle_gamma                 90.045652
_cell_volume                      1613.95741786

loop_
_atom_site_label
_atom_site_type_symbol
_atom_type_description
_atom_site_fract_x
_atom_site_fract_y
_atom_site_fract_z
_atom_type_partial_charge
O1    O     O_R   0.494400 0.415640 0.412830 -0.540352
O2    O     O_R   0.823920 0.405510 0.586560 -0.544992
O3    O     O_R   0.994250 0.584360 0.587170 -0.541053
C1    C     C_R   0.654666 0.383211 0.615182 0.698765
O4    O     O_R   0.824110 0.404610 0.413450 -0.543080
O5    O     O_R   0.994440 0.583460 0.412820 -0.540069
C2    C     C_R   0.655048 0.382209 0.384295 0.688603
O6    O     O_R   0.494210 0.416540 0.587180 -0.537979
O7    O     O_3   0.660810 0.558680 0.500000 -0.370246
V1    V     V_3+5 0.935650 0.489110 0.500000 1.392009
O8    O     O_R   0.324150 0.594490 0.413440 -0.542613
C3    C     C_R   0.155140 0.616504 0.384287 0.708607
O9    O     O_R   0.323970 0.595390 0.586550 -0.544934
C4    C     C_R   0.155169 0.617437 0.615846 0.651648
V2    V     V_3+5 0.435660 0.510890 0.500000 1.390713
O10   O     O_3   0.160630 0.441320 0.500000 -0.366822
C5    C     C_3   0.042297 0.645554 0.764393 -0.317624
H1    H     H_    0.894094 0.622494 0.747328 0.136069
H2    H     H_    0.122894 0.584051 0.785989 0.119616
C6    C     C_3   0.029149 0.716860 0.836831 -0.324685
H3    H     H_    0.102692 0.689369 0.893215 0.117027
H4    H     H_    0.874770 0.727878 0.853587 0.138544
H5    H     H_    0.880754 0.753545 0.640556 0.140941
H6    H     H_    0.863283 0.858890 0.746919 0.134088
C7    C     C_3   0.029559 0.773524 0.659722 -0.316709
C8    C     C_3   0.349559 0.719019 0.714427 -0.317135
C9    C     C_3   0.144681 0.687221 0.686804 0.116219
H7    H     H_    0.426926 0.750559 0.660726 0.138143
H8    H     H_    0.436171 0.658905 0.735016 0.132251
C10   C     C_3   0.123256 0.809262 0.811189 0.121103
C11   C     C_3   0.017643 0.844791 0.732147 -0.327891
C12   C     C_3   0.337233 0.789468 0.786702 -0.306677
H9    H     H_    0.417381 0.762563 0.841680 0.135720
H10   H     H_    0.409821 0.854151 0.767279 0.135441
H11   H     H_    0.100213 0.805428 0.604537 0.125169
H12   H     H_    0.083666 0.910615 0.711720 0.132287
C13   C     C_R   0.960426 0.791298 0.229659 -0.215182
H13   H     H_    0.825199 0.826523 0.218603 0.180559
C14   C     C_R   0.970501 0.728663 0.295636 -0.155665
H14   H     H_    0.842253 0.716778 0.332886 0.136494
C15   C     C_R   0.144434 0.683396 0.314371 -0.105945
C16   C     C_R   0.306647 0.700489 0.264038 -0.242857
H15   H     H_    0.441614 0.665384 0.276155 0.132758
C17   C     C_R   0.295856 0.760281 0.195407 0.422666
C18   C     C_R   0.122833 0.809271 0.179356 -0.156459
C19   C     C_R   0.801445 0.256000 0.697892 -0.133351
H16   H     H_    0.931372 0.261595 0.660393 0.141392
C20   C     C_R   0.794235 0.189516 0.760577 0.199346
C21   C     C_R   0.625326 0.180522 0.811099 -0.098586
C22   C     C_R   0.467000 0.238086 0.794291 -0.177047
H17   H     H_    0.336266 0.233584 0.831222 0.132576
C23   C     C_R   0.475614 0.303345 0.730586 -0.151802
H18   H     H_    0.351137 0.346743 0.719968 0.125242
C24   C     C_R   0.643692 0.313563 0.682260 -0.109958
C25   C     C_R   0.812301 0.274037 0.281384 -0.156938
H19   H     H_    0.953221 0.292418 0.305586 0.116646
C26   C     C_R   0.801228 0.210151 0.215843 -0.152586
H20   H     H_    0.934171 0.181136 0.191757 0.118012
C27   C     C_R   0.621423 0.184004 0.182063 -0.049873
C28   C     C_R   0.453004 0.223573 0.215720 -0.158322
H21   H     H_    0.312090 0.205194 0.191509 0.115373
C29   C     C_R   0.464078 0.287465 0.281261 -0.152935
H22   H     H_    0.331145 0.316492 0.305344 0.118253
C30   C     C_R   0.643882 0.313570 0.315072 -0.047261
O11   O     O_R   0.771300 0.080930 0.910090 -0.544415
O12   O     O_R   0.441270 0.092800 0.083770 -0.543508
O13   O     O_R   0.271080 0.913920 0.084380 -0.506979
C31   C     C_R   0.610304 0.115281 0.112907 0.695758
O14   O     O_R   0.441580 0.091910 0.910670 -0.543664
O15   O     O_R   0.271390 0.913020 0.910040 -0.541431
C32   C     C_R   0.611360 0.112864 0.880620 0.682669
O16   O     O_R   0.770990 0.081830 0.084440 -0.540066
O17   O     O_3   0.604750 0.938760 0.997250 -0.359399
V3    V     V_3+5 0.329850 0.008280 0.997210 1.419857
O18   O     O_R   0.941680 0.901940 0.910610 -0.550435
C33   C     C_R   0.111027 0.879378 0.881806 0.643297
O19   O     O_R   0.941370 0.902830 0.083720 -0.539610
C34   C     C_R   0.110847 0.879146 0.111588 0.721697
V4    V     V_3+5 0.829860 0.986420 0.997150 1.398282
O20   O     O_3   0.104830 0.056030 0.997180 -0.375812
O21   O     O_3   0.456947 0.771046 0.145129 -0.549379
C35   C     C_3   0.460119 0.698672 0.085945 0.108239
H23   H     H_    0.338193 0.705964 0.041052 0.091988
H24   H     H_    0.450661 0.630300 0.116676 0.102685
C36   C     C_3   0.648965 0.701305 0.037195 -0.703255
H25   H     H_    0.773525 0.696165 0.080609 0.216014
H26   H     H_    0.654321 0.642844 0.992458 0.152645
H27   H     H_    0.660225 0.765958 0.001419 0.235347
N1    N     N_3   0.959422 0.131030 0.769007 -0.683207
H28   H     H_    0.914967 0.062538 0.765612 0.222093
H29   H     H_    0.026054 0.144124 0.826382 0.245935

loop_
_geom_bond_atom_site_label_1
_geom_bond_atom_site_label_2
_ccdc_geom_bond_type
C7    C11   S    
O12   C31   A    
C25   H19   S    
C8    C12   S    
O11   V4    S    
C15   C16   A    
C1    O6    A    
O21   C35   S    
C14   C15   A    
C6    C10   S    
O19   C34   A    
C17   C18   A    
C8    C9    S    
C29   H22   S    
O16   V4    S    
O5    C3    A    
C10   C11   S    
C26   C27   A    
V2    O10   S    
O12   V3    S    
C5    C6    S    
C28   C29   A    
O17   V3    S    
O14   C32   A    
C29   C30   A    
O8    V2    S    
O15   V3    S    
C22   C23   A    
C18   C34   S    
O1    V2    S    
C4    C9    S    
N1    H29   S    
O7    V1    S    
C36   H26   S    
C27   C28   A    
V3    O20   S    
O9    C4    A    
O13   C34   A    
C16   C17   A    
C23   C24   A    
C22   H17   S    
O19   V4    S    
C19   C20   A    
C5    C9    S    
C17   O21   S    
C14   H14   S    
O4    C2    A    
C36   H25   S    
C28   H21   S    
C12   H10   S    
O2    C1    A    
O18   C33   A    
C13   H13   S    
C27   C31   S    
C10   C33   S    
C31   O16   A    
C25   C30   A    
C19   C24   A    
C5    H1    S    
O17   V4    S    
O14   V3    S    
O13   V3    S    
O3    C4    A    
C7    H11   S    
C20   C21   A    
C6    H4    S    
C21   C22   A    
O6    V2    S    
C35   H24   S    
C20   N1    S    
O9    V2    S    
O15   C33   A    
C16   H15   S    
C13   C18   A    
O2    V1    S    
C23   H18   S    
C3    C15   S    
C36   H27   S    
C19   H16   S    
C1    C24   S    
O1    C2    A    
O5    V1    S    
O8    C3    A    
C7    C9    S    
C35   C36   S    
C8    H7    S    
C12   H9    S    
C25   C26   A    
O7    V2    S    
H6    C11   S    
O4    V1    S    
C13   C14   A    
O3    V1    S    
O11   C32   A    
C10   C12   S    
C26   H20   S    
C5    H2    S    
H5    C7    S    
C2    C30   S    
V4    O20   S    
C6    H3    S    
C8    H8    S    
C35   H23   S    
C21   C32   S    
C11   H12   S    
V1    O10   S    
N1    H28   S    
O18   V4    S    
