data_mof_unit_50695.cif
_audit_creation_date              2012-12-10T17:45:27-0500
_audit_creation_method            fapswitch 2.2
_symmetry_space_group_name_H-M    P1
_symmetry_Int_Tables_number       1
_space_group_crystal_system       triclinic
_cell_length_a                    15.042195
_cell_length_b                    13.839172
_cell_length_c                    23.53118
_cell_angle_alpha                 89.869896
_cell_angle_beta                  87.804004
_cell_angle_gamma                 90.766496
_cell_volume                      4894.46710806

loop_
_atom_site_label
_atom_site_type_symbol
_atom_type_description
_atom_site_fract_x
_atom_site_fract_y
_atom_site_fract_z
_atom_type_partial_charge
C1    C     C_R   0.328773 0.499655 0.500831 0.832772
C2    C     C_R   0.671131 0.500547 0.500437 0.819910
C3    C     C_R   0.548100 0.430281 0.238669 0.438509
C4    C     C_R   0.470776 0.588210 0.759938 0.447837
C5    C     C_R   0.543267 0.429323 0.298203 -0.357089
C6    C     C_R   0.474329 0.584075 0.700587 -0.352553
C7    C     C_R   0.497621 0.501397 0.328668 -0.218140
C8    C     C_R   0.502806 0.500477 0.671847 -0.235513
C9    C     C_R   0.452382 0.573389 0.298974 0.277445
C10   C     C_R   0.532100 0.420834 0.703795 0.294051
C11   C     C_R   0.457546 0.575205 0.239244 0.366053
C12   C     C_R   0.533421 0.427088 0.763381 0.375528
C13   C     C_R   0.504118 0.502651 0.209360 0.119947
C14   C     C_R   0.501518 0.510217 0.791261 0.094378
C15   C     C_R   0.816247 0.580056 0.479153 -0.126518
C16   C     C_R   0.183167 0.427522 0.531318 -0.151102
C17   C     C_R   0.767696 0.502010 0.502489 -0.091721
C18   C     C_R   0.231909 0.500273 0.502574 -0.088637
C19   C     C_R   0.810980 0.426621 0.529005 -0.183767
C20   C     C_R   0.188479 0.576701 0.477211 -0.138789
C21   C     C_R   0.903433 0.429037 0.532995 -0.025300
C22   C     C_R   0.095720 0.578768 0.477402 -0.050989
C23   C     C_R   0.498284 0.500255 0.391153 0.918773
C24   C     C_R   0.501493 0.499806 0.609042 0.904760
C25   C     C_R   0.952988 0.505083 0.506138 -0.044220
C26   C     C_R   0.046219 0.504401 0.505995 -0.042020
C27   C     C_R   0.909086 0.581983 0.479645 -0.029922
C28   C     C_R   0.090091 0.429461 0.534452 -0.012400
C29   C     C_R   0.946854 0.357927 0.564258 0.347196
C30   C     C_R   0.051743 0.654473 0.450085 0.407336
C31   C     C_R   0.040003 0.358688 0.565415 0.263373
C32   C     C_R   0.958769 0.658614 0.454047 0.299865
C33   C     C_R   0.438035 0.793039 0.532803 0.516182
C34   C     C_R   0.564497 0.207477 0.468871 0.497349
C35   C     C_R   0.561343 0.794304 0.466202 0.523758
C36   C     C_R   0.435403 0.204394 0.530063 0.525537
C37   C     C_R   0.567339 0.897521 0.468234 -0.179680
C38   C     C_R   0.430213 0.102031 0.525918 -0.184231
C39   C     C_R   0.432172 0.895845 0.529627 -0.161301
C40   C     C_R   0.570355 0.104700 0.471899 -0.182522
C41   C     C_R   0.500419 0.948159 0.499314 -0.107213
C42   C     C_R   0.500770 0.051557 0.499416 -0.100491
C43   C     C_R   0.637468 0.952201 0.440474 0.373508
C44   C     C_R   0.354716 0.048931 0.545656 0.370098
C45   C     C_R   0.359151 0.948107 0.553916 0.355058
C46   C     C_R   0.642793 0.053257 0.447481 0.353728
C47   C     C_R   0.564835 0.563967 0.878650 0.640474
C48   C     C_R   0.435301 0.458910 0.122060 0.707829
C49   C     C_R   0.431801 0.468255 0.882020 0.648357
C50   C     C_R   0.573645 0.545313 0.118551 0.588283
C51   C     C_R   0.428225 0.469889 0.941889 -0.153577
C52   C     C_R   0.574452 0.549036 0.058679 -0.132646
C53   C     C_R   0.499696 0.513187 0.970300 -0.131743
C54   C     C_R   0.501606 0.508091 0.030395 -0.132073
C55   C     C_R   0.568361 0.562918 0.938629 -0.145134
C56   C     C_R   0.431597 0.460474 0.062105 -0.159266
C57   C     C_R   0.355726 0.428665 0.973709 0.432140
C58   C     C_R   0.645285 0.593687 0.026721 0.421316
C59   C     C_R   0.359992 0.418262 0.032915 0.289237
C60   C     C_R   0.638653 0.607450 0.967849 0.283571
Cu1   Cu    Cu3+1 0.500000 0.597420 0.500000 1.071347
Cu2   Cu    Cu3+1 0.500000 0.402580 0.500000 1.066856
H1    H     H_    0.574932 0.371783 0.320679 0.232184
H2    H     H_    0.453481 0.646511 0.677111 0.234046
H3    H     H_    0.781034 0.637424 0.458987 0.241607
H4    H     H_    0.218452 0.370534 0.551724 0.241057
H5    H     H_    0.771962 0.367445 0.547734 0.196622
H6    H     H_    0.227705 0.633825 0.456532 0.201158
N1    N     N_R   0.499056 0.514737 0.852225 -0.441554
N2    N     N_R   0.504849 0.501460 0.148359 -0.432897
N3    N     N_R   0.500000 0.743810 0.500000 -0.255134
N4    N     N_R   0.500000 0.256190 0.500000 -0.260054
O1    O     O_R   0.370260 0.582280 0.500010 -0.531098
O2    O     O_R   0.629740 0.417720 0.499990 -0.544573
O3    O     O_R   0.629740 0.582280 0.499990 -0.557875
O4    O     O_R   0.370260 0.417720 0.500010 -0.568954
O5    O     O_R   0.499980 0.582290 0.417880 -0.503040
O6    O     O_R   0.500020 0.417710 0.582120 -0.499748
O7    O     O_R   0.500020 0.582290 0.582120 -0.563031
O8    O     O_R   0.499980 0.417710 0.417880 -0.559661
O9    O     O_2   0.627682 0.610569 0.846295 -0.463075
O10   O     O_2   0.369752 0.417117 0.154528 -0.439984
O11   O     O_2   0.369741 0.419208 0.853368 -0.463267
O12   O     O_2   0.639823 0.586945 0.147304 -0.533124
O13   O     O_3   0.281432 0.394171 0.946582 -0.503555
C61   C     C_3   0.210036 0.459472 0.954471 0.153993
H7    H     H_    0.209719 0.498385 0.995947 0.136425
H8    H     H_    0.146906 0.416989 0.954223 0.188749
C62   C     C_3   0.209198 0.533033 0.906139 -0.820252
H9    H     H_    0.205765 0.495476 0.864627 0.285646
H10   H     H_    0.150155 0.579842 0.911767 0.213195
H11   H     H_    0.269926 0.579426 0.906285 0.231314
O14   O     O_3   0.718958 0.630393 0.053631 -0.510405
C63   C     C_3   0.794172 0.571878 0.041608 0.156132
H12   H     H_    0.854188 0.619549 0.039948 0.187384
H13   H     H_    0.793086 0.534131 0.999790 0.130829
C64   C     C_3   0.805051 0.497267 0.088426 -0.808191
H14   H     H_    0.746781 0.447266 0.090404 0.240910
H15   H     H_    0.865925 0.454649 0.079255 0.209841
H16   H     H_    0.811334 0.533726 0.130086 0.279398
Cl1   Cl    Cl    0.091503 0.272489 0.608512 -0.572087
Cl2   Cl    Cl    0.906591 0.762343 0.427549 -0.581325
Cl3   Cl    Cl    0.368583 0.727172 0.581387 -0.602654
Cl4   Cl    Cl    0.633639 0.271943 0.419279 -0.591450
Cl5   Cl    Cl    0.629481 0.729020 0.417829 -0.572773
Cl6   Cl    Cl    0.365640 0.263638 0.580339 -0.486420
O15   O     O_3   0.707493 0.907658 0.411568 -0.503053
C65   C     C_3   0.700091 0.923755 0.352474 0.140883
H17   H     H_    0.705378 0.001945 0.341603 0.167093
H18   H     H_    0.635552 0.894731 0.337601 0.144375
C66   C     C_3   0.775116 0.872435 0.320169 -0.645336
H19   H     H_    0.771460 0.793595 0.328970 0.287498
H20   H     H_    0.769469 0.884301 0.273768 0.176730
H21   H     H_    0.840417 0.901390 0.333262 0.266372
O16   O     O_3   0.272357 0.092590 0.549076 -0.519448
C67   C     C_3   0.232351 0.079504 0.496023 0.104164
H22   H     H_    0.218220 0.001514 0.488264 0.179088
H23   H     H_    0.275846 0.108656 0.460352 0.123083
C68   C     C_3   0.144689 0.132563 0.495464 -0.654918
H24   H     H_    0.157077 0.211476 0.499007 0.258946
H25   H     H_    0.111757 0.118340 0.454823 0.182105
H26   H     H_    0.099876 0.107094 0.531149 0.285173
O17   O     O_3   0.284494 0.900488 0.576828 -0.532582
C69   C     C_3   0.275399 0.921839 0.635550 0.154010
H27   H     H_    0.260531 0.999492 0.642674 0.196372
H28   H     H_    0.336991 0.903298 0.657890 0.148088
C70   C     C_3   0.198589 0.862414 0.661962 -0.702651
H29   H     H_    0.211625 0.784078 0.656831 0.269086
H30   H     H_    0.190880 0.878826 0.708051 0.192189
H31   H     H_    0.135852 0.880158 0.641076 0.260144
O18   O     O_3   0.721147 0.100184 0.430419 -0.542425
C71   C     C_3   0.776734 0.105628 0.477395 0.144282
H32   H     H_    0.794627 0.031950 0.491924 0.171506
H33   H     H_    0.743919 0.145401 0.513440 0.149997
C72   C     C_3   0.862119 0.159802 0.459837 -0.687495
H34   H     H_    0.846795 0.235010 0.447274 0.262524
H35   H     H_    0.907488 0.162001 0.495952 0.225343
H36   H     H_    0.896089 0.122752 0.423426 0.244872
Cl7   Cl    Cl    0.274590 0.347384 0.067178 -0.503937
Cl8   Cl    Cl    0.719453 0.684846 0.933974 -0.513181
O19   O     O_3   0.587377 0.355370 0.208482 -0.548412
C73   C     C_3   0.680227 0.358217 0.215327 0.065926
H37   H     H_    0.696832 0.343506 0.260165 0.165789
H38   H     H_    0.709049 0.429651 0.201990 0.170978
C74   C     C_3   0.723292 0.280537 0.178328 -0.737170
H39   H     H_    0.705985 0.290748 0.133283 0.247555
H40   H     H_    0.796740 0.284702 0.181324 0.207681
H41   H     H_    0.699484 0.207948 0.192852 0.257597
O20   O     O_3   0.442028 0.670537 0.787932 -0.537553
C75   C     C_3   0.349100 0.678253 0.782981 0.055957
H42   H     H_    0.313879 0.610299 0.796858 0.160200
H43   H     H_    0.332398 0.695282 0.738414 0.164250
C76   C     C_3   0.315337 0.759874 0.820802 -0.735243
H44   H     H_    0.347280 0.829327 0.807055 0.263631
H45   H     H_    0.242126 0.765897 0.817759 0.202691
H46   H     H_    0.331046 0.745272 0.865729 0.250819
Cl9   Cl    Cl    0.382153 0.656424 0.335093 -0.636714
Cl10  Cl    Cl    0.570933 0.313349 0.671411 -0.571472
O21   O     O_3   0.409426 0.641625 0.209495 -0.534709
C77   C     C_3   0.459944 0.728028 0.203400 0.080669
H47   H     H_    0.526930 0.714747 0.183526 0.171100
H48   H     H_    0.468012 0.763505 0.245305 0.188113
C78   C     C_3   0.411899 0.797096 0.165128 -0.711153
H49   H     H_    0.450754 0.865590 0.160137 0.208143
H50   H     H_    0.404364 0.764118 0.122550 0.247632
H51   H     H_    0.345023 0.813336 0.184090 0.261853
O22   O     O_3   0.560118 0.348923 0.794906 -0.513397
C79   C     C_3   0.652520 0.357433 0.802699 0.082226
H52   H     H_    0.667631 0.420120 0.830279 0.155205
H53   H     H_    0.690564 0.365972 0.761389 0.155604
C80   C     C_3   0.684226 0.266568 0.831673 -0.710302
H54   H     H_    0.756803 0.272538 0.838252 0.192728
H55   H     H_    0.648703 0.257039 0.873611 0.254463
H56   H     H_    0.671201 0.202481 0.804750 0.271659
O23   O     O_3   0.898752 0.284019 0.591292 -0.569558
C81   C     C_3   0.873149 0.314121 0.646786 0.082568
H57   H     H_    0.828879 0.377912 0.645705 0.134468
H58   H     H_    0.932296 0.332670 0.671869 0.188518
C82   C     C_3   0.822437 0.231965 0.676999 -0.691404
H59   H     H_    0.864775 0.166933 0.678431 0.262881
H60   H     H_    0.803698 0.253585 0.721173 0.195438
H61   H     H_    0.761147 0.214069 0.654120 0.267802
O24   O     O_3   0.099159 0.729271 0.423184 -0.549937
C83   C     C_3   0.130383 0.699733 0.368380 0.079953
H62   H     H_    0.144564 0.620954 0.365071 0.139029
H63   H     H_    0.194372 0.738288 0.358650 0.219117
C84   C     C_3   0.065428 0.727760 0.323187 -0.722122
H64   H     H_    0.049197 0.805604 0.326858 0.274948
H65   H     H_    0.095881 0.714282 0.280251 0.214944
H66   H     H_    0.003425 0.683670 0.328103 0.249999

loop_
_geom_bond_atom_site_label_1
_geom_bond_atom_site_label_2
_ccdc_geom_bond_type
C16   C28   A    
C72   H36   S    
C80   H54   S    
O14   C63   S    
C41   C42   A    
C78   H49   S    
C3    O19   S    
C48   C56   A    
C74   H41   S    
C12   O22   S    
C64   H14   S    
C11   O21   S    
C72   H34   S    
C39   C41   A    
C53   C54   A    
Cu1   O3    S    
C40   C46   A    
C4    O20   S    
C80   H55   S    
C1    C18   S    
C33   C39   A    
C34   C40   A    
C31   Cl1   S    
Cu2   O8    S    
C78   H50   S    
C58   O14   S    
C38   C42   A    
C69   H28   S    
C61   H8    S    
C57   C59   A    
C13   N2    S    
C58   C60   A    
O16   C67   S    
C15   H3    S    
C65   H17   S    
C5    H1    S    
C72   H35   S    
C30   O24   S    
C6    H2    S    
C47   N1    A    
C84   H66   S    
C64   H15   S    
C79   C80   S    
C66   H19   S    
C44   O16   S    
C67   H23   S    
C71   H32   S    
C49   C51   A    
C75   C76   S    
C50   C52   A    
O15   C65   S    
C19   H5    S    
C51   C57   A    
C9    Cl9   S    
C23   O8    A    
C62   H10   S    
C10   Cl10  S    
C18   C20   A    
C3    C13   A    
C16   C18   A    
C39   C45   A    
C82   H61   S    
Cu1   N3    S    
C79   H53   S    
C35   N3    A    
C49   N1    A    
C55   C60   A    
C2    C17   S    
C4    C14   A    
C73   C74   S    
Cu2   O4    S    
Cu1   Cu2   S    
C29   O23   S    
C10   C12   A    
C74   H40   S    
Cu2   O6    S    
C74   H39   S    
C53   C55   A    
C80   H56   S    
C54   C56   A    
C50   O12   S    
C77   C78   S    
O17   C69   S    
C78   H51   S    
C4    C6    A    
Cu1   O5    S    
O22   C79   S    
C5    C7    A    
C61   H7    S    
C17   C19   A    
C6    C8    A    
C63   C64   S    
Cu1   O1    S    
C25   C26   A    
O13   C61   S    
C36   Cl6   S    
C45   O17   S    
C51   C53   A    
C77   H48   S    
C37   C43   A    
O24   C83   S    
C70   H30   S    
C38   C44   A    
C19   C21   A    
C35   Cl5   S    
C24   O7    A    
C15   C27   A    
O21   C77   S    
C48   O10   S    
C59   Cl7   S    
Cu2   N4    S    
C66   H20   S    
C65   C66   S    
C43   O15   S    
C23   O5    A    
C62   H11   S    
C63   H13   S    
C9    C11   A    
C68   H25   S    
C52   C58   A    
C60   Cl8   S    
C69   C70   S    
C71   H33   S    
C81   H57   S    
C12   C14   A    
O18   C71   S    
C22   C26   A    
C14   N1    S    
C75   H43   S    
C76   H45   S    
C20   C22   A    
C70   H29   S    
C62   H9    S    
C34   N4    A    
C46   O18   S    
C64   H16   S    
C44   C45   A    
C47   C55   A    
C68   H26   S    
C24   O6    A    
C15   C17   A    
C21   C25   A    
C67   C68   S    
C79   H52   S    
C22   C30   A    
C35   C37   A    
C27   C32   A    
C33   Cl3   S    
C1    O4    A    
C20   H6    S    
C28   C31   A    
C48   N2    A    
C40   C42   A    
C3    C5    A    
C61   C62   S    
C2    O2    A    
C68   H24   S    
C83   C84   S    
C32   Cl2   S    
C25   C27   A    
C26   C28   A    
C56   C59   A    
C1    O1    A    
C77   H47   S    
C81   C82   S    
C36   C38   A    
C50   N2    A    
C70   H31   S    
C84   H64   S    
C29   C31   A    
O23   C81   S    
O19   C73   S    
C30   C32   A    
C11   C13   A    
C76   H46   S    
C49   O11   S    
C65   H18   S    
C21   C29   A    
Cu1   O7    S    
C71   C72   S    
C7    C23   S    
C81   H58   S    
C8    C24   S    
C83   H63   S    
C67   H22   S    
C66   H21   S    
C73   H38   S    
C47   O9    S    
C37   C41   A    
C63   H12   S    
C43   C46   A    
C34   Cl4   S    
C84   H65   S    
C33   N3    A    
C82   H59   S    
C7    C9    A    
C16   H4    S    
C8    C10   A    
C52   C54   A    
C73   H37   S    
C75   H42   S    
Cu2   O2    S    
C83   H62   S    
C76   H44   S    
O20   C75   S    
C57   O13   S    
C2    O3    A    
C36   N4    A    
C69   H27   S    
C82   H60   S    
