data_mof_unit_16776.cif
_audit_creation_date              2012-12-11T14:19:17-0500
_audit_creation_method            fapswitch 2.2
_symmetry_space_group_name_H-M    P1
_symmetry_Int_Tables_number       1
_space_group_crystal_system       triclinic
_cell_length_a                    19.529586
_cell_length_b                    7.27277
_cell_length_c                    17.579968
_cell_angle_alpha                 90.000497
_cell_angle_beta                  108.007755
_cell_angle_gamma                 90.002412
_cell_volume                      2374.64225631

loop_
_atom_site_label
_atom_site_type_symbol
_atom_type_description
_atom_site_fract_x
_atom_site_fract_y
_atom_site_fract_z
_atom_type_partial_charge
O1    O     O_R   0.414820 0.494320 0.416790 -0.539333
O2    O     O_R   0.585180 0.994320 0.583210 -0.539330
O3    O     O_R   0.560270 0.819500 0.430140 -0.543017
O4    O     O_R   0.439730 0.319500 0.569860 -0.543014
C1    C     C_R   0.581628 0.655796 0.415516 0.705847
C2    C     C_R   0.418373 0.155793 0.584485 0.705841
O5    O     O_R   0.413840 0.823740 0.407440 -0.534453
O6    O     O_R   0.586160 0.323740 0.592560 -0.534446
O7    O     O_R   0.437710 0.998590 0.560350 -0.540512
O8    O     O_R   0.562290 0.498590 0.439650 -0.540508
C3    C     C_R   0.388381 0.656206 0.384369 0.730699
C4    C     C_R   0.611619 0.156214 0.615629 0.730699
O9    O     O_3   0.508000 0.662290 0.550200 -0.379285
O10   O     O_3   0.492000 0.162290 0.449800 -0.379291
V1    V     V_3+5 0.498520 0.935380 0.490690 1.401639
V2    V     V_3+5 0.501480 0.435380 0.509310 1.401655
C5    C     C_2   0.800337 0.273109 0.764710 0.119579
C6    C     C_2   0.199666 0.773125 0.235287 0.119622
C7    C     C_2   0.832422 0.112951 0.799561 -0.073759
C8    C     C_2   0.167571 0.612961 0.200444 -0.073755
C9    C     C_2   0.729531 0.275737 0.697947 -0.158002
C10   C     C_2   0.270490 0.775782 0.302025 -0.158046
C11   C     C_2   0.676086 0.151019 0.687131 -0.284396
C12   C     C_2   0.323908 0.650985 0.312871 -0.284394
H1    H     H_    0.722169 0.383992 0.653482 0.127456
H2    H     H_    0.277882 0.884119 0.346459 0.127488
H3    H     H_    0.678582 0.044827 0.730944 0.131799
H4    H     H_    0.321382 0.544690 0.269093 0.131829
C13   C     C_R   0.322096 0.297431 0.632455 -0.225644
C14   C     C_R   0.677914 0.797439 0.367555 -0.225637
C15   C     C_R   0.368422 0.148909 0.633015 -0.061079
C16   C     C_R   0.631582 0.648917 0.366989 -0.061082
C17   C     C_R   0.367035 0.994547 0.679970 -0.212910
C18   C     C_R   0.632968 0.494551 0.320035 -0.212907
C19   C     C_R   0.321558 0.989197 0.727728 0.127231
C20   C     C_R   0.678451 0.489197 0.272284 0.127220
C21   C     C_R   0.274598 0.137773 0.727013 0.086429
C22   C     C_R   0.725417 0.637772 0.273004 0.086424
C23   C     C_R   0.273412 0.293232 0.677646 0.004804
C24   C     C_R   0.726604 0.793234 0.322371 0.004801
C25   C     C_R   0.322546 0.836338 0.776257 -0.171856
C26   C     C_R   0.677461 0.336335 0.223754 -0.171821
C27   C     C_R   0.277395 0.828374 0.823837 -0.134492
C28   C     C_R   0.722613 0.328372 0.176176 -0.134521
C29   C     C_R   0.230038 0.974320 0.824753 0.073084
C30   C     C_R   0.769976 0.474319 0.175265 0.073043
C31   C     C_R   0.228823 0.129670 0.775691 0.058935
C32   C     C_R   0.771196 0.629667 0.224330 0.058974
C33   C     C_R   0.182125 0.276997 0.775417 0.053056
C34   C     C_R   0.817903 0.776990 0.224613 0.053056
C35   C     C_R   0.180293 0.429256 0.726122 -0.176269
C36   C     C_R   0.819738 0.929250 0.273909 -0.176303
C37   C     C_R   0.224114 0.438956 0.675895 -0.022449
C38   C     C_R   0.775909 0.938957 0.324128 -0.022437
C39   C     C_R   0.183431 0.967271 0.872693 -0.051619
C40   C     C_R   0.816579 0.467275 0.127322 -0.051640
C41   C     C_R   0.134872 0.115052 0.870449 -0.118862
C42   C     C_R   0.865143 0.615053 0.129570 -0.118837
C43   C     C_R   0.136439 0.269499 0.823148 -0.217391
C44   C     C_R   0.863593 0.769488 0.176886 -0.217466
H5    H     H_    0.325076 0.414888 0.596252 0.113294
H6    H     H_    0.674936 0.914899 0.403758 0.113295
H7    H     H_    0.402716 0.879772 0.680796 0.125059
H8    H     H_    0.597283 0.379776 0.319205 0.125062
H9    H     H_    0.357976 0.721206 0.776900 0.123440
H10   H     H_    0.642025 0.221204 0.223107 0.123439
H11   H     H_    0.279644 0.705514 0.859232 0.148696
H12   H     H_    0.720360 0.205516 0.140776 0.148628
H13   H     H_    0.100922 0.383966 0.822601 0.128416
H14   H     H_    0.899127 0.883943 0.177449 0.128506
H15   H     H_    0.143148 0.540256 0.725870 0.158922
H16   H     H_    0.856888 0.040249 0.274166 0.158922
O11   O     O_R   0.937810 0.773680 0.060480 -0.530576
O12   O     O_R   0.062190 0.273680 0.939520 -0.530588
O13   O     O_R   0.086190 0.439740 0.092580 -0.545109
O14   O     O_R   0.913810 0.939740 0.907420 -0.545152
C45   C     C_R   0.108769 0.608672 0.119980 0.708041
C46   C     C_R   0.891226 0.108666 0.880023 0.707989
O15   O     O_R   0.939760 0.444210 0.069890 -0.554214
O16   O     O_R   0.060240 0.944210 0.930110 -0.554218
O17   O     O_R   0.914790 0.269640 0.916760 -0.531202
O18   O     O_R   0.085210 0.769640 0.083240 -0.531211
C47   C     C_R   0.917450 0.611351 0.082945 0.691802
C48   C     C_R   0.082556 0.111351 0.917062 0.691692
O19   O     O_3   0.992050 0.601530 0.949880 -0.386367
O20   O     O_3   0.007950 0.101530 0.050120 -0.386479
V3    V     V_3+5 0.001480 0.328340 0.009300 1.383415
V4    V     V_3+5 0.998520 0.828340 0.990700 1.383394
C49   C     C_3   0.845803 0.446516 0.771622 -0.361515
C50   C     C_3   0.912611 0.409120 0.744110 -0.291632
C51   C     C_3   0.957769 0.580003 0.744214 -0.754300
H17   H     H_    0.928631 0.674014 0.696003 0.232076
H18   H     H_    0.971955 0.651898 0.802535 0.243209
H19   H     H_    0.008006 0.540330 0.731654 0.206112
H20   H     H_    0.948180 0.305463 0.783320 0.188333
H21   H     H_    0.894942 0.352970 0.682342 0.185312
H22   H     H_    0.812946 0.553673 0.732645 0.159152
H23   H     H_    0.860601 0.506687 0.832361 0.205731
C52   C     C_3   0.154186 0.946486 0.228424 -0.361546
C53   C     C_3   0.087460 0.908992 0.256075 -0.291612
C54   C     C_3   0.042163 0.079694 0.255799 -0.754510
H24   H     H_    0.071359 0.174470 0.303671 0.232058
H25   H     H_    0.027644 0.150818 0.197278 0.243273
H26   H     H_    0.992112 0.039916 0.268767 0.206278
H27   H     H_    0.051952 0.804954 0.217027 0.188164
H28   H     H_    0.105247 0.853289 0.317922 0.185377
H29   H     H_    0.187059 0.053708 0.267351 0.159066
H30   H     H_    0.139299 0.006634 0.167679 0.205826
C55   C     C_2   0.214863 0.599926 0.620939 0.376335
H31   H     H_    0.239826 0.605411 0.574056 0.033162
O21   O     O_2   0.177330 0.730427 0.626544 -0.527660
C56   C     C_2   0.785158 0.099933 0.379082 0.376316
H32   H     H_    0.760200 0.105407 0.425969 0.033183
O22   O     O_2   0.822685 0.230452 0.373470 -0.527660
C57   C     C_3   0.820966 0.938218 0.747738 -0.366053
C58   C     C_3   0.831448 0.969372 0.664472 -0.292969
C59   C     C_3   0.790110 0.830098 0.601828 -0.766066
H33   H     H_    0.796865 0.864579 0.543033 0.216346
H34   H     H_    0.810281 0.688632 0.617336 0.228631
H35   H     H_    0.731770 0.834813 0.595538 0.229692
H36   H     H_    0.813106 0.106229 0.639204 0.204730
H37   H     H_    0.889660 0.964718 0.670377 0.178690
H38   H     H_    0.860512 0.832523 0.777790 0.181239
H39   H     H_    0.768425 0.874168 0.742203 0.180620
C60   C     C_3   0.178995 0.438238 0.252273 -0.366112
C61   C     C_3   0.168588 0.469451 0.335573 -0.292962
C62   C     C_3   0.209907 0.330074 0.398183 -0.765925
H40   H     H_    0.203227 0.364620 0.457005 0.216328
H41   H     H_    0.189655 0.188648 0.382683 0.228640
H42   H     H_    0.268242 0.334608 0.404409 0.229644
H43   H     H_    0.186994 0.606282 0.360847 0.204730
H44   H     H_    0.110379 0.464930 0.329719 0.178611
H45   H     H_    0.139392 0.332607 0.222248 0.181274
H46   H     H_    0.231507 0.374080 0.257757 0.180584
C63   C     C_2   0.187976 0.809024 0.927182 0.367752
H47   H     H_    0.146248 0.704583 0.912908 0.060791
O23   O     O_2   0.239012 0.794461 0.988022 -0.526310
C64   C     C_2   0.812023 0.309039 0.072824 0.367871
H48   H     H_    0.853715 0.204521 0.087123 0.060663
O24   O     O_2   0.761021 0.294580 0.011949 -0.526316

loop_
_geom_bond_atom_site_label_1
_geom_bond_atom_site_label_2
_ccdc_geom_bond_type
C60   H46   S    
C14   C16   A    
C42   C47   S    
C61   C62   S    
C20   C26   A    
O1    C3    A    
O16   C48   A    
O2    C4    A    
C2    O7    A    
C56   O22   D    
C63   H47   S    
C31   C33   A    
O5    C3    A    
C52   H30   S    
C4    C11   S    
C53   H27   S    
C54   H24   S    
C35   H15   S    
C8    C45   S    
C45   O18   A    
C19   C21   A    
O14   C46   A    
C55   O21   D    
C39   C63   S    
C41   C43   A    
C42   C44   A    
C57   C58   S    
C3    C12   S    
C58   C59   S    
C6    C8    D    
C5    C7    D    
C28   C30   A    
C33   C35   A    
C34   C36   A    
C15   C17   A    
C11   H3    S    
O12   V3    S    
C21   C31   A    
O14   V4    S    
C22   C32   A    
O6    C4    A    
C1    C16   S    
C32   C34   A    
C2    C15   S    
O6    V2    S    
C22   C24   A    
C13   C15   A    
C25   C27   A    
C44   H14   S    
C26   C28   A    
O15   V3    S    
C56   H32   S    
C36   C38   A    
C30   C32   A    
C29   C31   A    
C9    C11   D    
C61   H44   S    
C13   H5    S    
C57   H38   S    
C58   H36   S    
C38   C56   S    
C50   H20   S    
C5    C49   S    
O4    C2    A    
C59   H35   S    
C51   H17   S    
O20   V3    S    
C25   H9    S    
C5    C9    S    
C49   H22   S    
C35   C37   A    
C16   C18   A    
O4    V2    S    
C7    C46   S    
C62   H41   S    
O11   V4    S    
C39   C41   A    
C36   H16   S    
C51   H18   S    
C40   C64   S    
C52   C53   S    
C7    C57   S    
C17   H7    S    
C13   C23   A    
C18   H8    S    
C41   C48   S    
C14   C24   A    
C27   H11   S    
O1    V2    S    
O2    V1    S    
O13   C45   A    
O17   V3    S    
C64   O24   D    
C43   H13   S    
O13   V3    S    
C54   H26   S    
C24   C38   A    
C14   H6    S    
C60   C61   S    
C10   C12   D    
C28   H12   S    
C6    C52   S    
C62   H40   S    
O3    V1    S    
C58   H37   S    
O19   V4    S    
C60   H45   S    
C63   O23   D    
C9    H1    S    
C57   H39   S    
C6    C10   S    
C12   H4    S    
O12   C48   A    
O3    C1    A    
C50   H21   S    
C20   C22   A    
C52   H29   S    
C53   H28   S    
C33   C43   A    
C54   H25   S    
C49   H23   S    
C34   C44   A    
C59   H34   S    
O7    V1    S    
C62   H42   S    
C8    C60   S    
O16   V4    S    
O8    V2    S    
C59   H33   S    
C51   H19   S    
O15   C47   A    
C46   O17   A    
C50   C51   S    
C23   C37   A    
C61   H43   S    
O18   V4    S    
O5    V1    S    
C53   C54   S    
C17   C19   A    
C40   C42   A    
C18   C20   A    
C19   C25   A    
C64   H48   S    
C1    O8    A    
C29   C39   A    
C21   C23   A    
C10   H2    S    
O9    V2    S    
C30   C40   A    
C26   H10   S    
O10   V1    S    
C37   C55   S    
C49   C50   S    
C55   H31   S    
C27   C29   A    
O11   C47   A    
