data_mof_unit_6843.cif
_audit_creation_date              2012-12-11T14:17:31-0500
_audit_creation_method            fapswitch 2.2
_symmetry_space_group_name_H-M    P1
_symmetry_Int_Tables_number       1
_space_group_crystal_system       triclinic
_cell_length_a                    6.951127
_cell_length_b                    13.643969
_cell_length_c                    20.473213
_cell_angle_alpha                 102.277583
_cell_angle_beta                  90.408043
_cell_angle_gamma                 90.711941
_cell_volume                      1897.04910648

loop_
_atom_site_label
_atom_site_type_symbol
_atom_type_description
_atom_site_fract_x
_atom_site_fract_y
_atom_site_fract_z
_atom_type_partial_charge
O1    O     O_R   0.506860 0.599390 0.449240 -0.538077
O2    O     O_R   0.180220 0.594600 0.586780 -0.546314
O3    O     O_R   0.004500 0.400610 0.550760 -0.541592
C1    C     C_R   0.349488 0.614626 0.613899 0.728278
O4    O     O_R   0.177490 0.611290 0.451970 -0.543442
O5    O     O_R   0.001750 0.417420 0.414990 -0.549671
C2    C     C_R   0.346402 0.637267 0.434681 0.706500
O6    O     O_R   0.509610 0.582580 0.585010 -0.547974
O7    O     O_3   0.337420 0.436370 0.488020 -0.360280
V1    V     V_3+5 0.064680 0.511800 0.502220 1.452102
O8    O     O_R   0.671710 0.405400 0.413220 -0.511329
C3    C     C_R   0.837988 0.387703 0.385483 0.731187
O9    O     O_R   0.674440 0.388710 0.548030 -0.541951
C4    C     C_R   0.842883 0.362081 0.564336 0.694864
V2    V     V_3+5 0.564010 0.488200 0.497780 1.499151
O10   O     O_3   0.841140 0.563630 0.511980 -0.381926
C5    C     C_R   0.850962 0.109713 0.607515 -0.139509
H1    H     H_    0.844280 0.162637 0.516205 0.125549
H2    H     H_    0.853567 0.982382 0.686269 0.156796
H3    H     H_    0.849487 0.031755 0.581383 0.117958
C6    C     C_R   0.850141 0.284274 0.602881 -0.034163
C7    C     C_R   0.864139 0.309661 0.924601 -0.165134
C8    C     C_R   0.861633 0.385439 0.889277 -0.113569
C9    C     C_R   0.858790 0.362493 0.819919 -0.138982
C10   C     C_R   0.857894 0.261720 0.783387 0.048858
C11   C     C_R   0.859111 0.182494 0.819673 0.011055
C12   C     C_R   0.855758 0.237780 0.711871 0.072531
C13   C     C_R   0.854289 0.135863 0.677669 0.084992
C14   C     C_R   0.855143 0.060036 0.713182 -0.200196
C15   C     C_R   0.857116 0.081067 0.782563 0.195721
C16   C     C_R   0.854406 0.311488 0.672619 -0.201952
C17   C     C_R   0.848255 0.183693 0.570308 -0.154578
C18   C     C_R   0.862901 0.209102 0.891180 -0.077938
H4    H     H_    0.855173 0.390698 0.694086 0.088728
H5    H     H_    0.867503 0.329658 0.978779 0.125976
H6    H     H_    0.857440 0.426145 0.796690 0.103835
H7    H     H_    0.862527 0.463028 0.915947 0.120575
C19   C     C_2   0.992476 0.297741 0.281279 -0.184996
C20   C     C_2   0.832673 0.333639 0.314586 0.090293
H8    H     H_    0.130951 0.309591 0.306820 0.191868
C21   C     C_2   0.994038 0.248747 0.209067 0.353577
C22   C     C_2   0.869175 0.173547 0.182931 -0.274347
H9    H     H_    0.761623 0.150128 0.214888 0.172967
C23   C     C_2   0.206565 0.771205 0.788306 -0.119243
C24   C     C_2   0.363441 0.819041 0.818808 -0.276761
H10   H     H_    0.070892 0.778824 0.814635 0.171330
H11   H     H_    0.500835 0.810784 0.793828 0.163530
C25   C     C_2   0.204676 0.707824 0.719183 -0.119773
C26   C     C_2   0.362280 0.679471 0.681813 -0.311368
H12   H     H_    0.063726 0.681994 0.698929 0.140864
H13   H     H_    0.505387 0.700858 0.701365 0.133835
C27   C     C_R   0.371753 0.888909 0.388441 -0.107233
H14   H     H_    0.367391 0.837568 0.480416 0.109029
H15   H     H_    0.379216 0.966308 0.415071 0.168050
C28   C     C_R   0.355862 0.714503 0.394873 -0.035488
C29   C     C_R   0.346277 0.685198 0.071903 -0.182235
C30   C     C_R   0.338528 0.609285 0.107525 -0.093231
C31   C     C_R   0.342130 0.632200 0.177181 -0.114787
C32   C     C_R   0.353514 0.733022 0.213471 0.061965
C33   C     C_R   0.360500 0.810480 0.176480 0.014051
C34   C     C_R   0.358034 0.759356 0.284994 0.032571
C35   C     C_R   0.368197 0.862608 0.318002 0.073441
C36   C     C_R   0.374377 0.937517 0.280143 0.245989
C37   C     C_R   0.370903 0.911249 0.210727 -0.222472
C38   C     C_R   0.352584 0.686478 0.325091 -0.181101
C39   C     C_R   0.365236 0.815509 0.426345 -0.192390
C40   C     C_R   0.357119 0.785532 0.105538 -0.050036
H16   H     H_    0.345169 0.607160 0.303986 0.122253
H17   H     H_    0.343807 0.665656 0.017748 0.101699
H18   H     H_    0.335556 0.568926 0.200801 0.153186
H19   H     H_    0.329839 0.531739 0.080916 0.150422
H20   H     H_    0.376174 0.971317 0.183674 0.158780
O11   O     O_R   0.203230 0.917310 0.915020 -0.525352
O12   O     O_R   0.535500 0.888690 0.048040 -0.548459
O13   O     O_R   0.711080 0.082610 0.085000 -0.535729
C41   C     C_R   0.366619 0.862717 0.065350 0.661226
O14   O     O_R   0.532630 0.905370 0.913230 -0.529276
O15   O     O_R   0.708190 0.099410 0.949230 -0.529084
C42   C     C_R   0.363894 0.883989 0.886633 0.772481
O16   O     O_R   0.206120 0.900510 0.050790 -0.547026
O17   O     O_3   0.375360 0.063570 0.011990 -0.358719
V3    V     V_3+5 0.648170 0.988200 0.997780 1.517179
O18   O     O_R   0.038240 0.111390 0.951940 -0.530949
C43   C     C_R   0.869995 0.135746 0.933623 0.782840
O19   O     O_R   0.041120 0.094710 0.086750 -0.521060
C44   C     C_R   0.873969 0.115644 0.113339 0.762789
V4    V     V_3+5 0.148810 0.011930 0.002180 1.545334
O20   O     O_3   0.871750 0.936430 0.988010 -0.371125
Br1   Br    Br    0.588444 0.333677 0.269044 -0.490903
Br2   Br    Br    0.182518 0.298185 0.155295 -0.500151
Br3   Br    Br    0.387494 0.078656 0.319895 -0.565025
Br4   Br    Br    0.854392 0.961501 0.817735 -0.609306

loop_
_geom_bond_atom_site_label_1
_geom_bond_atom_site_label_2
_ccdc_geom_bond_type
O18   V4    S    
V4    O20   S    
C21   C22   D    
C2    C28   S    
C1    O6    A    
O17   V3    S    
O19   C44   A    
C7    H5    S    
C6    C16   A    
C9    H6    S    
O12   C41   A    
C4    C6    S    
C13   C14   A    
O16   V4    S    
O5    C3    A    
C19   C20   D    
V2    O10   S    
C5    H3    S    
C29   C30   A    
C24   H11   S    
O11   V4    S    
O13   C44   A    
O8    V2    S    
C33   C40   A    
C23   H10   S    
C26   H13   S    
C8    C9    A    
C22   C44   S    
O7    V1    S    
C25   H12   S    
C21   Br2   S    
C32   C33   A    
O9    C4    A    
O12   V3    S    
C28   C38   A    
C27   H15   S    
O14   C42   A    
C6    C17   A    
C32   C34   A    
O19   V4    S    
C12   C16   A    
C9    C10   A    
C19   C21   S    
C15   Br4   S    
O4    C2    A    
C31   H18   S    
C31   C32   A    
C8    H7    S    
O2    C1    A    
C14   C15   A    
O15   C43   A    
O15   V3    S    
C11   C18   A    
O18   C43   A    
C38   H16   S    
C35   C36   A    
O11   C42   A    
C16   H4    S    
C24   C42   S    
C30   H19   S    
H14   C39   S    
O17   V4    S    
O3    C4    A    
O1    V2    S    
C25   C26   D    
C11   C15   A    
O6    V2    S    
O9    V2    S    
H1    C17   S    
C22   H9    S    
O2    V1    S    
C28   C39   A    
C27   C39   A    
C23   C24   D    
C7    C18   A    
O1    C2    A    
C5    C13   A    
C41   O16   A    
O5    V1    S    
O8    C3    A    
O13   V3    S    
C10   C12   A    
C29   C40   A    
C1    C26   S    
C33   C37   A    
C3    C20   S    
C10   C11   A    
O4    V1    S    
O3    V1    S    
V1    O10   S    
C19   H8    S    
C30   C31   A    
O14   V3    S    
V3    O20   S    
C37   H20   S    
O7    V2    S    
C34   C35   A    
C18   C43   S    
C36   C37   A    
C34   C38   A    
C29   H17   S    
C36   Br3   S    
C12   C13   A    
C5    C17   A    
C7    C8    A    
C27   C35   A    
C40   C41   S    
C20   Br1   S    
C23   C25   S    
H2    C14   S    
