data_mof_unit_36966.cif
_audit_creation_date              2012-12-10T17:26:17-0500
_audit_creation_method            fapswitch 2.2
_symmetry_space_group_name_H-M    P1
_symmetry_Int_Tables_number       1
_space_group_crystal_system       triclinic
_cell_length_a                    10.136804
_cell_length_b                    10.210693
_cell_length_c                    27.771902
_cell_angle_alpha                 90.629937
_cell_angle_beta                  79.238517
_cell_angle_gamma                 96.522921
_cell_volume                      2805.50886488

loop_
_atom_site_label
_atom_site_type_symbol
_atom_type_description
_atom_site_fract_x
_atom_site_fract_y
_atom_site_fract_z
_atom_type_partial_charge
C1    C     C_R   0.558369 0.736058 0.490499 0.798080
C2    C     C_R   0.555587 0.662120 0.121331 -0.093067
C3    C     C_R   0.491822 0.496226 0.648034 -0.215503
C4    C     C_R   0.507452 0.518681 0.351686 -0.203069
C5    C     C_R   0.537972 0.655309 0.020779 -0.090093
C6    C     C_R   0.416480 0.421886 0.982220 -0.078659
C7    C     C_R   0.445835 0.420752 0.030086 0.116680
C8    C     C_R   0.511492 0.655436 0.972255 0.087776
C9    C     C_R   0.496220 0.540352 0.050294 -0.043673
C10   C     C_R   0.461873 0.534989 0.952298 -0.048318
C11   C     C_R   0.616467 0.761019 0.039836 0.490970
C12   C     C_R   0.442170 0.261392 0.502082 0.822768
C13   C     C_R   0.329338 0.319588 0.965471 0.554241
C14   C     C_R   0.613251 0.770421 0.090475 0.022526
C15   C     C_R   0.331654 0.308462 0.914166 -0.008341
C16   C     C_R   0.498026 0.499092 0.594390 0.937530
C17   C     C_R   0.502233 0.503078 0.405382 0.919794
C18   C     C_R   0.522022 0.772363 0.943705 0.137261
C19   C     C_R   0.438795 0.301995 0.057111 0.139818
C20   C     C_2   0.596545 0.837714 0.451478 0.228644
C21   C     C_2   0.407517 0.122176 0.487696 0.323133
C22   C     C_2   0.528863 0.943504 0.448857 0.333498
C23   C     C_R   0.453879 0.528475 0.902255 -0.088531
C24   C     C_2   0.492124 0.031448 0.492021 0.282427
C25   C     C_2   0.930358 0.521044 0.499867 0.047170
C26   C     C_2   0.072358 0.487075 0.496665 0.087520
C27   C     C_R   0.493334 0.631594 0.822130 0.590495
C28   C     C_R   0.479642 0.433235 0.178661 0.572981
C29   C     C_R   0.425067 0.400380 0.830719 0.507355
C30   C     C_R   0.551026 0.664349 0.172362 0.556195
C31   C     C_R   0.600595 0.522427 0.719424 0.582258
C32   C     C_R   0.629937 0.520433 0.266848 0.570284
C33   C     C_R   0.610210 0.524952 0.668549 -0.063807
C34   C     C_R   0.508970 0.543515 0.100143 -0.108163
C35   C     C_R   0.625832 0.499700 0.316785 -0.041056
C36   C     C_R   0.364989 0.467327 0.679717 0.071104
C37   C     C_R   0.393229 0.556527 0.334414 0.049228
C38   C     C_R   0.355532 0.475848 0.730519 0.051130
C39   C     C_R   0.397682 0.572424 0.284089 0.030520
C40   C     C_R   0.473560 0.501930 0.750284 0.099695
C41   C     C_R   0.515167 0.552572 0.250681 0.107264
C42   C     C_3   0.306233 0.178974 0.423376 -0.240839
C43   C     C_3   0.808129 0.869675 0.405434 -0.265437
C44   C     C_3   0.156612 0.684432 0.583822 -0.082603
C45   C     C_R   0.492070 0.641795 0.872374 -0.030667
C46   C     C_3   0.853180 0.301492 0.420775 -0.206078
C47   C     C_3   0.839517 0.603807 0.227823 -0.276684
C48   C     C_3   0.770276 0.433607 0.745361 -0.291659
C49   C     C_3   0.821729 0.791228 0.989331 -0.336541
C50   C     C_3   0.182639 0.125378 0.991647 -0.261192
C51   C     C_3   0.699970 0.045989 0.517709 -0.256750
C52   C     C_3   0.451598 0.917190 0.376486 -0.170107
C53   C     C_R   0.475916 0.427432 0.128763 -0.026697
C54   C     C_R   0.519713 0.763667 0.893707 -0.233400
C55   C     C_R   0.447349 0.307052 0.106562 -0.203002
C56   C     C_R   0.406378 0.409068 0.882142 -0.107667
H1    H     H_    0.104711 0.403666 0.475148 0.126775
H2    H     H_    0.248668 0.261798 0.436990 0.177725
H3    H     H_    0.254912 0.128429 0.395230 0.175688
H4    H     H_    0.875706 0.832732 0.373311 0.180736
H5    H     H_    0.852717 0.854076 0.438369 0.149980
H6    H     H_    0.804992 0.976514 0.399159 0.174023
H7    H     H_    0.265945 0.716284 0.580707 0.194148
H8    H     H_    0.124873 0.593592 0.606608 0.135507
H9    H     H_    0.101916 0.763743 0.603046 0.142139
H10   H     H_    0.901495 0.383828 0.395298 0.138660
H11   H     H_    0.743699 0.280394 0.420632 0.196625
H12   H     H_    0.899671 0.609777 0.518403 0.134330
H13   H     H_    0.901129 0.212374 0.407312 0.136594
H14   H     H_    0.216317 0.544651 0.784205 0.194134
H15   H     H_    0.212627 0.377859 0.783165 0.222541
H16   H     H_    0.250027 0.531308 0.244206 0.204950
H17   H     H_    0.306616 0.693487 0.246747 0.209625
H18   H     H_    0.785052 0.522466 0.352133 0.213331
H19   H     H_    0.711850 0.362160 0.347996 0.196062
H20   H     H_    0.737220 0.639902 0.616151 0.203721
H21   H     H_    0.771685 0.479616 0.618359 0.209071
H22   H     H_    0.927043 0.582537 0.199561 0.191908
H23   H     H_    0.534275 0.853757 0.872139 0.190759
H24   H     H_    0.877208 0.625288 0.262523 0.167099
H25   H     H_    0.800300 0.692284 0.215314 0.191821
H26   H     H_    0.799979 0.384530 0.709609 0.164391
H27   H     H_    0.698562 0.365013 0.771315 0.181043
H28   H     H_    0.862890 0.457114 0.761128 0.195331
H29   H     H_    0.780866 0.897147 0.093469 0.205692
H30   H     H_    0.635478 0.968124 0.099527 0.207389
H31   H     H_    0.305092 0.138778 0.876130 0.239710
H32   H     H_    0.187594 0.246398 0.873834 0.214688
H33   H     H_    0.797854 0.710259 0.964130 0.179948
H34   H     H_    0.436207 0.215384 0.127013 0.188713
H35   H     H_    0.870399 0.753738 0.018406 0.157992
H36   H     H_    0.896104 0.866279 0.967536 0.191826
H37   H     H_    0.265375 0.073151 0.971062 0.150419
H38   H     H_    0.094867 0.119580 0.972752 0.194516
H39   H     H_    0.146446 0.072809 0.027219 0.175008
H40   H     H_    0.426182 0.933298 0.960997 0.156424
H41   H     H_    0.595669 0.964257 0.947141 0.222158
H42   H     H_    0.366845 0.109620 0.053847 0.198007
H43   H     H_    0.534371 0.143338 0.034306 0.192106
H44   H     H_    0.738946 0.085652 0.480054 0.174383
H45   H     H_    0.172895 0.490030 0.673664 0.194203
H46   H     H_    0.732196 0.946938 0.521401 0.135841
H47   H     H_    0.747608 0.112322 0.543073 0.229245
H48   H     H_    0.434300 0.974476 0.344984 0.173164
H49   H     H_    0.350726 0.883815 0.399086 0.165703
H50   H     H_    0.501952 0.830781 0.361267 0.200798
H51   H     H_    0.207072 0.331872 0.673850 0.203630
H52   H     H_    0.248353 0.672587 0.362579 0.187120
H53   H     H_    0.192248 0.510342 0.359405 0.196109
H54   H     H_    0.410721 0.216363 0.404853 0.153919
N1    N     N_R   0.464593 0.511327 0.802222 -0.328325
N2    N     N_3   0.741393 0.560615 0.639112 -0.409523
N3    N     N_3   0.678373 0.886501 0.109550 -0.361247
N4    N     N_3   0.245867 0.205717 0.895903 -0.464849
N5    N     N_3   0.515964 0.899292 0.965984 -0.412426
N6    N     N_3   0.441138 0.176740 0.033306 -0.453399
N7    N     N_R   0.513752 0.550854 0.199406 -0.331982
N8    N     N_2   0.842700 0.448890 0.480020 0.069964
N9    N     N_2   0.157300 0.551110 0.519980 0.062008
N10   N     N_3   0.245119 0.426628 0.660422 -0.423824
N11   N     N_3   0.270916 0.576924 0.367728 -0.417630
N12   N     N_3   0.224203 0.462575 0.761438 -0.471261
N13   N     N_3   0.280245 0.605996 0.267207 -0.471812
N14   N     N_3   0.741895 0.452884 0.330078 -0.421144
O1    O     O_R   0.431060 0.692470 0.504020 -0.592889
O2    O     O_2   0.448267 0.322554 0.206558 -0.555424
O3    O     O_2   0.582455 0.777972 0.195048 -0.556341
O4    O     O_2   0.407550 0.282542 0.809020 -0.593232
O5    O     O_3   0.303627 0.088006 0.461651 -0.622989
O6    O     O_3   0.678814 0.799101 0.409228 -0.594195
O7    O     O_3   0.121484 0.668463 0.537436 -0.565392
O8    O     O_3   0.875285 0.326526 0.468480 -0.566494
O9    O     O_3   0.741297 0.492853 0.232784 -0.578478
O10   O     O_3   0.715599 0.551974 0.739333 -0.570689
O11   O     O_3   0.705524 0.851360 0.009602 -0.616461
O12   O     O_R   0.568940 0.307530 0.495980 -0.573785
O13   O     O_3   0.225166 0.257994 0.001146 -0.595931
O14   O     O_3   0.558282 0.040666 0.531960 -0.657468
O15   O     O_3   0.534330 0.999146 0.402925 -0.612948
O16   O     O_R   0.651120 0.659650 0.491200 -0.593957
O17   O     O_R   0.348880 0.340350 0.508800 -0.613981
O18   O     O_R   0.389980 0.516390 0.577660 -0.601727
O19   O     O_R   0.610020 0.483610 0.422340 -0.626323
O20   O     O_R   0.610040 0.483570 0.564830 -0.625161
O21   O     O_R   0.389960 0.516430 0.435170 -0.604491
O22   O     O_2   0.524331 0.740339 0.793212 -0.541269
Zn1   Zn    Zn3+2 0.353060 0.521910 0.508560 0.983909
Zn2   Zn    Zn3+2 0.646940 0.478090 0.491440 0.976995

loop_
_geom_bond_atom_site_label_1
_geom_bond_atom_site_label_2
_ccdc_geom_bond_type
H18   N14   S    
C23   C45   A    
H15   N12   S    
C17   O21   A    
H52   N11   S    
O20   Zn2   S    
H53   N11   S    
C25   N8    D    
O16   Zn2   S    
C50   O13   S    
C23   C56   A    
C39   C41   A    
C44   H8    S    
C44   O7    S    
H30   N3    S    
C3    C36   A    
C48   O10   S    
C35   N14   S    
C16   O20   A    
C1    O1    A    
C5    C11   A    
C55   H34   S    
C28   N7    A    
C46   O8    S    
C32   O9    S    
C11   C14   A    
C50   H39   S    
C3    C33   A    
N9    Zn1   S    
C52   O15   S    
C39   N13   S    
C31   C40   A    
H31   N4    S    
C46   H13   S    
N9    O7    S    
C32   C41   A    
C31   C33   A    
H40   N5    S    
H41   N5    S    
C27   C45   A    
C49   O11   S    
C4    C35   A    
C27   N1    A    
C47   O9    S    
C42   H2    S    
C44   H9    S    
C25   H12   S    
C47   H24   S    
C49   H35   S    
C31   O10   S    
C2    C14   A    
O21   Zn1   S    
C28   O2    S    
C40   N1    S    
C53   C55   A    
C44   H7    S    
O19   Zn2   S    
H19   N14   S    
C32   C35   A    
C26   N9    D    
O1    Zn1   S    
C49   H33   S    
H43   N6    S    
C18   C54   A    
C50   H38   S    
C24   O14   S    
C25   C26   S    
C22   O15   S    
C8    C18   A    
C48   H28   S    
C51   H46   S    
C13   O13   S    
C18   N5    S    
H21   N2    S    
C16   O18   A    
C5    C9    A    
C11   O11   S    
H14   N12   S    
H42   N6    S    
H20   N2    S    
C15   N4    S    
C33   N2    S    
C38   N12   S    
C21   O5    S    
O12   Zn2   S    
C1    O16   A    
C43   H4    S    
C37   N11   S    
C4    C17   S    
C29   C56   A    
C20   C22   D    
C45   C54   A    
C7    C19   A    
C13   C15   A    
H16   N13   S    
C9    C34   A    
C22   C24   S    
C21   C24   D    
C49   H36   S    
H51   N10   S    
C43   H5    S    
C54   H23   S    
C19   C55   A    
C51   H44   S    
C7    C9    A    
C30   O3    S    
C52   H48   S    
C1    C20   S    
H45   N10   S    
O18   Zn1   S    
C29   N1    A    
C43   O6    S    
C20   O6    S    
C42   H3    S    
C52   H49   S    
C5    C8    A    
C28   C53   A    
C50   H37   S    
C46   H10   S    
C6    C7    A    
C30   N7    A    
C10   C23   A    
C14   N3    S    
C48   H27   S    
C17   O19   A    
C2    C30   A    
C15   C56   A    
C36   C38   A    
C12   O17   A    
C42   H54   S    
C46   H11   S    
C37   C39   A    
C6    C13   A    
C38   C40   A    
C2    C34   A    
C19   N6    S    
C27   O22   S    
C12   C21   S    
H29   N3    S    
C48   H26   S    
C42   O5    S    
C47   H25   S    
H32   N4    S    
C36   N10   S    
C26   H1    S    
N8    O8    S    
C6    C10   A    
O17   Zn1   S    
C52   H50   S    
N8    Zn2   S    
C51   O14   S    
C4    C37   A    
C34   C53   A    
C8    C10   A    
C12   O12   A    
C29   O4    S    
C47   H22   S    
C41   N7    S    
C51   H47   S    
C3    C16   S    
C43   H6    S    
H17   N13   S    
