data_mof_unit_51031.cif
_audit_creation_date              2012-12-10T18:13:50-0500
_audit_creation_method            fapswitch 2.2
_symmetry_space_group_name_H-M    P1
_symmetry_Int_Tables_number       1
_space_group_crystal_system       triclinic
_cell_length_a                    10.838813
_cell_length_b                    9.508951
_cell_length_c                    23.578369
_cell_angle_alpha                 90.610255
_cell_angle_beta                  91.848102
_cell_angle_gamma                 90.898978
_cell_volume                      2428.407725

loop_
_atom_site_label
_atom_site_type_symbol
_atom_type_description
_atom_site_fract_x
_atom_site_fract_y
_atom_site_fract_z
_atom_type_partial_charge
C1    C     C_R   0.260232 0.498707 0.496462 0.833287
C2    C     C_R   0.267819 0.502896 0.966581 -0.160936
C3    C     C_R   0.269037 0.502448 0.025618 -0.156539
C4    C     C_R   0.381030 0.493969 0.057029 -0.003897
C5    C     C_R   0.493298 0.484119 0.028643 -0.050645
C6    C     C_R   0.607028 0.478139 0.059966 -0.031372
C7    C     C_R   0.718633 0.463635 0.029932 0.136809
C8    C     C_R   0.713405 0.456795 0.970457 -0.146258
C9    C     C_R   0.382937 0.494450 0.116368 0.546985
C10   C     C_R   0.603365 0.487125 0.119954 0.550694
C11   C     C_R   0.547230 0.384739 0.237956 -0.114754
C12   C     C_R   0.499723 0.499479 0.390916 0.919043
C13   C     C_R   0.555066 0.388027 0.297213 -0.042865
C14   C     C_R   0.497498 0.498172 0.327670 -0.215878
C15   C     C_R   0.436288 0.605727 0.296161 -0.073076
C16   C     C_R   0.439012 0.604188 0.236824 -0.114927
C17   C     C_R   0.492398 0.493513 0.207630 0.284615
C18   C     C_R   0.413022 0.394197 0.755881 -0.093659
C19   C     C_R   0.414723 0.400963 0.696809 -0.210957
C20   C     C_R   0.492768 0.498053 0.670646 -0.022960
C21   C     C_R   0.568968 0.587555 0.704171 -0.239507
C22   C     C_R   0.564669 0.584049 0.763056 -0.094302
C23   C     C_R   0.740182 0.501514 0.501314 0.794087
C24   C     C_R   0.487664 0.486364 0.789466 0.331933
C25   C     C_3   0.074388 0.646975 0.481021 -0.375579
C26   C     C_3   0.080187 0.459338 0.555554 -0.374726
C27   C     C_3   0.934687 0.656114 0.490862 0.006074
C28   C     C_3   0.938190 0.440146 0.556417 0.029132
C29   C     C_3   0.061547 0.391769 0.448116 -0.087434
C30   C     C_3   0.122219 0.496326 0.494731 -0.056662
C31   C     C_3   0.879212 0.504356 0.501245 0.054455
C32   C     C_3   0.917435 0.409132 0.450437 -0.501520
C33   C     C_3   0.610487 0.085935 0.533346 -0.088098
C34   C     C_3   0.602112 0.919574 0.538532 -0.081950
C35   C     C_3   0.386975 0.080914 0.525782 -0.197541
C36   C     C_3   0.380497 0.915555 0.519036 -0.175132
C37   C     C_3   0.506814 0.082043 0.443006 -0.212889
C38   C     C_3   0.517861 0.916054 0.443619 -0.225699
C39   C     C_R   0.498320 0.500123 0.608669 0.792851
C40   C     C_R   0.597167 0.462422 0.880142 0.542723
C41   C     C_R   0.379098 0.494171 0.878082 0.536687
C42   C     C_R   0.378334 0.492115 0.937601 -0.001371
C43   C     C_R   0.491079 0.480741 0.968665 -0.017937
C44   C     C_R   0.601296 0.466353 0.939702 -0.054816
Cu1   Cu    Cu3+1 0.499860 0.642410 0.500030 0.950105
Cu2   Cu    Cu3+1 0.499860 0.357590 0.500030 0.975924
H1    H     H_    0.179907 0.511122 0.943777 0.189410
H2    H     H_    0.356076 0.329605 0.671493 0.167651
H3    H     H_    0.634547 0.656951 0.685065 0.197635
H4    H     H_    0.623152 0.655711 0.788250 0.163822
H5    H     H_    0.092928 0.675285 0.436477 0.204707
H6    H     H_    0.125679 0.363178 0.571769 0.193368
H7    H     H_    0.126011 0.728315 0.506827 0.184230
H8    H     H_    0.111628 0.545446 0.585236 0.173929
H9    H     H_    0.889469 0.697544 0.451472 0.170006
H10   H     H_    0.917479 0.325914 0.554581 0.258246
H11   H     H_    0.877053 0.455857 0.411315 0.237283
H12   H     H_    0.871401 0.303901 0.452859 0.216834
H13   H     H_    0.181846 0.510190 0.046552 0.187183
H14   H     H_    0.693379 0.107732 0.507636 0.112233
H15   H     H_    0.689632 0.880839 0.521949 0.104827
H16   H     H_    0.380311 0.111234 0.571066 0.204954
H17   H     H_    0.347485 0.865124 0.557870 0.200562
H18   H     H_    0.423934 0.111826 0.416987 0.202312
H19   H     H_    0.447224 0.871727 0.413336 0.201371
H20   H     H_    0.587881 0.126696 0.421733 0.183890
H21   H     H_    0.609004 0.884890 0.427501 0.150349
H22   H     H_    0.304326 0.124145 0.504209 0.186796
H23   H     H_    0.306725 0.888537 0.486574 0.152340
H24   H     H_    0.798317 0.445503 0.947911 0.190270
H25   H     H_    0.589131 0.299834 0.214746 0.185202
H26   H     H_    0.395593 0.687415 0.212708 0.191243
H27   H     H_    0.354324 0.316777 0.775496 0.163289
N1    N     N_R   0.487617 0.479532 0.850459 -0.464651
N2    N     N_R   0.492759 0.492120 0.146543 -0.457652
N3    N     N_3   0.500250 0.143650 0.501250 -0.181415
N4    N     N_3   0.500250 0.856350 0.501250 -0.170391
O1    O     O_R   0.317570 0.620260 0.500030 -0.590226
O2    O     O_R   0.317570 0.379740 0.500030 -0.584736
O3    O     O_R   0.499840 0.620290 0.417900 -0.581633
O4    O     O_R   0.499840 0.379710 0.417900 -0.556354
O5    O     O_R   0.682190 0.620260 0.500010 -0.609288
O6    O     O_R   0.682190 0.379740 0.500010 -0.575712
O7    O     O_R   0.499920 0.620230 0.582140 -0.573858
O8    O     O_R   0.499920 0.379770 0.582140 -0.573139
O9    O     O_2   0.701984 0.441086 0.852081 -0.534660
O10   O     O_2   0.272508 0.513051 0.848166 -0.535602
O11   O     O_2   0.275563 0.496024 0.143817 -0.524677
O12   O     O_2   0.708705 0.492881 0.151901 -0.526755
C45   C     C_3   0.913893 0.764733 0.538512 -0.803601
H28   H     H_    0.908207 0.871925 0.520460 0.225001
H29   H     H_    0.829228 0.739992 0.560584 0.282536
H30   H     H_    0.989430 0.767038 0.571442 0.236842
C46   C     C_3   0.886632 0.489631 0.613496 -0.783440
H31   H     H_    0.784359 0.492962 0.611651 0.236011
H32   H     H_    0.914026 0.414140 0.647081 0.261197
H33   H     H_    0.923566 0.593622 0.627637 0.242776
C47   C     C_2   0.108241 0.428814 0.388897 0.885418
O13   O     O_2   0.041319 0.483784 0.352989 -0.561748
O14   O     O_R   0.229251 0.396722 0.375329 -0.730546
H34   H     H_    0.246097 0.414329 0.333963 0.347168
C48   C     C_2   0.090901 0.235663 0.458898 0.821931
O15   O     O_2   0.140664 0.164570 0.422807 -0.582305
O16   O     O_R   0.054989 0.170097 0.508641 -0.809012
H35   H     H_    0.076955 0.066883 0.509834 0.320546
C49   C     C_2   0.641932 0.157831 0.590200 0.925665
O17   O     O_2   0.744171 0.210798 0.598570 -0.632804
O18   O     O_R   0.559860 0.153496 0.634772 -0.751062
H36   H     H_    0.596506 0.196727 0.671153 0.341543
C50   C     C_2   0.600618 0.873867 0.600394 0.901934
O19   O     O_2   0.698006 0.846334 0.624968 -0.654425
O20   O     O_R   0.493136 0.880978 0.631539 -0.746050
H37   H     H_    0.507991 0.862863 0.673444 0.339578
C51   C     C_3   0.844583 0.452929 0.058882 -0.703628
H38   H     H_    0.846480 0.361255 0.087645 0.262154
H39   H     H_    0.918753 0.437424 0.028078 0.192330
H40   H     H_    0.867741 0.551533 0.082786 0.266683
C52   C     C_2   0.631050 0.278270 0.324528 0.858000
O21   O     O_2   0.704920 0.309620 0.362938 -0.630788
O22   O     O_R   0.622875 0.139672 0.304107 -0.745186
H41   H     H_    0.681033 0.074668 0.325321 0.332398
C53   C     C_2   0.362617 0.718132 0.322249 0.853592
O23   O     O_2   0.294298 0.691490 0.361088 -0.597440
O24   O     O_R   0.366957 0.854119 0.300265 -0.743527
H42   H     H_    0.311838 0.921451 0.320928 0.347549

loop_
_geom_bond_atom_site_label_1
_geom_bond_atom_site_label_2
_ccdc_geom_bond_type
C23   O5    A    
C41   C42   A    
C19   C20   A    
C16   H26   S    
C32   H12   S    
Cu2   N3    S    
C13   C52   S    
C28   H10   S    
C7    C8    A    
Cu1   Cu2   S    
O22   H41   S    
C29   C30   S    
C23   O6    A    
C29   C47   S    
C18   C24   A    
C7    C51   S    
C1    C30   S    
C15   C53   S    
C25   H7    S    
C39   O7    A    
C29   C32   S    
C36   N4    S    
C9    O11   S    
C5    C6    A    
C11   H25   S    
C49   O17   D    
C15   C16   A    
O18   H36   S    
C27   C45   S    
C28   C46   S    
C18   C19   A    
C40   O9    S    
C50   O19   D    
O20   H37   S    
C41   N1    A    
C52   O21   D    
Cu1   O5    S    
C10   O12   S    
C16   C17   A    
C29   C48   S    
Cu1   O1    S    
Cu1   O3    S    
C36   H17   S    
C22   H4    S    
Cu2   O8    S    
C5    C43   A    
C21   C22   A    
C1    O1    A    
C48   O15   D    
C32   H11   S    
C26   H8    S    
C21   H3    S    
O16   H35   S    
C51   H38   S    
C50   O20   S    
C41   O10   S    
C35   N3    S    
C27   C31   S    
C20   C39   S    
C19   H2    S    
C46   H33   S    
C34   H15   S    
C35   C36   S    
C23   C31   S    
C48   O16   S    
C43   C44   A    
C25   H5    S    
C37   C38   S    
C26   H6    S    
Cu2   O4    S    
C10   N2    A    
C33   N3    S    
C45   H29   S    
C31   C32   S    
C38   H19   S    
C37   H20   S    
C33   C34   S    
C20   C21   A    
C46   H32   S    
C37   N3    S    
C12   C14   S    
C26   C30   S    
C33   H14   S    
C47   O14   S    
C1    O2    A    
C22   C24   A    
Cu1   O7    S    
C42   C43   A    
C39   O8    A    
C53   O24   S    
C3    C4    A    
C37   H18   S    
C36   H23   S    
C45   H30   S    
C25   C30   S    
C11   C17   A    
C8    H24   S    
C28   C31   S    
C33   C49   S    
C8    C44   A    
C4    C5    A    
C6    C10   A    
C51   H39   S    
C6    C7    A    
C38   N4    S    
C2    H1    S    
C25   C27   S    
C26   C28   S    
C18   H27   S    
C2    C3    A    
C53   O23   D    
C34   N4    S    
C11   C13   A    
C24   N1    S    
C45   H28   S    
Cu2   O2    S    
C49   O18   S    
C35   H22   S    
C2    C42   A    
C34   C50   S    
C12   O3    A    
O14   H34   S    
C40   N1    A    
C12   O4    A    
C35   H16   S    
C27   H9    S    
C46   H31   S    
C52   O22   S    
C51   H40   S    
Cu2   O6    S    
C40   C44   A    
C38   H21   S    
C47   O13   D    
C17   N2    S    
C14   C15   A    
Cu1   N4    S    
C9    N2    A    
C4    C9    A    
C13   C14   A    
O24   H42   S    
C3    H13   S    
