data_mof_unit_33796.cif
_audit_creation_date              2012-12-10T17:59:45-0500
_audit_creation_method            fapswitch 2.2
_symmetry_space_group_name_H-M    P1
_symmetry_Int_Tables_number       1
_space_group_crystal_system       triclinic
_cell_length_a                    10.910246
_cell_length_b                    9.608066
_cell_length_c                    15.891319
_cell_angle_alpha                 89.263353
_cell_angle_beta                  92.872801
_cell_angle_gamma                 90.409733
_cell_volume                      1663.56285522

loop_
_atom_site_label
_atom_site_type_symbol
_atom_type_description
_atom_site_fract_x
_atom_site_fract_y
_atom_site_fract_z
_atom_type_partial_charge
C1    C     C_R   0.262464 0.499485 0.499572 0.831100
C2    C     C_3   0.638044 0.540089 0.956613 0.375619
C3    C     C_3   0.632177 0.539814 0.055061 -0.366073
C4    C     C_1   0.503525 0.497703 0.824227 0.021326
C5    C     C_1   0.500556 0.503147 0.175547 -0.031996
C6    C     C_1   0.500043 0.502582 0.250982 -0.205162
C7    C     C_R   0.061381 0.386020 0.459259 0.099605
C8    C     C_R   0.064928 0.614630 0.527192 0.074756
C9    C     C_R   0.933646 0.381176 0.466017 0.206522
C10   C     C_R   0.938874 0.624560 0.508118 0.212447
C11   C     C_R   0.871531 0.501921 0.489677 -0.205478
C12   C     C_R   0.128155 0.498672 0.496778 -0.135227
C13   C     C_R   0.433208 0.074600 0.440212 -0.091121
C14   C     C_R   0.431654 0.926713 0.441021 -0.088832
C15   C     C_R   0.499650 0.500795 0.340452 0.811040
C16   C     C_R   0.571472 0.924950 0.559169 0.298937
C17   C     C_R   0.567110 0.073777 0.561483 0.274049
C18   C     C_R   0.737444 0.500552 0.496142 0.828549
C19   C     C_R   0.500577 0.499210 0.659489 0.802180
C20   C     C_3   0.407062 0.611421 0.043959 -0.080907
C21   C     C_3   0.463525 0.353660 0.049597 -0.081862
C22   C     C_3   0.461367 0.353687 0.950326 0.048283
C23   C     C_3   0.405276 0.605800 0.944645 0.048791
C24   C     C_1   0.502131 0.497550 0.748841 -0.196564
C25   C     C_3   0.501501 0.502313 0.083120 0.172099
C26   C     C_3   0.505057 0.499961 0.916645 0.152083
Cu1   Cu    Cu3+1 0.500020 0.640660 0.500000 0.936746
Cu2   Cu    Cu3+1 0.500020 0.359340 0.500000 0.935010
H1    H     H_    0.313617 0.560425 0.925833 0.101330
H2    H     H_    0.362326 0.343004 0.929982 0.103522
H3    H     H_    0.314582 0.575784 0.062484 0.130424
H4    H     H_    0.366968 0.335767 0.067284 0.130444
H5    H     H_    0.660891 0.642120 0.081619 0.162655
H6    H     H_    0.699636 0.466358 0.085383 0.160343
H7    H     H_    0.379243 0.130144 0.391913 0.139050
H8    H     H_    0.376078 0.872164 0.393600 0.138340
N1    N     N_R   0.500030 0.852070 0.500020 -0.169190
N2    N     N_R   0.500030 0.147930 0.500020 -0.165359
O1    O     O_R   0.319660 0.618740 0.500000 -0.575875
O2    O     O_R   0.319660 0.381260 0.500000 -0.577297
O3    O     O_R   0.500020 0.618840 0.379440 -0.579265
O4    O     O_R   0.500020 0.381160 0.379440 -0.578584
O5    O     O_R   0.680370 0.618830 0.500010 -0.559813
O6    O     O_R   0.680370 0.381170 0.500010 -0.557171
O7    O     O_R   0.500010 0.618730 0.620560 -0.581990
O8    O     O_R   0.500010 0.381270 0.620560 -0.582152
C27   C     C_3   0.657126 0.852285 0.623730 -0.778293
H9    H     H_    0.672248 0.742118 0.616507 0.280707
H10   H     H_    0.751171 0.895323 0.619972 0.181311
H11   H     H_    0.624026 0.866896 0.687998 0.203866
C28   C     C_3   0.629974 0.147994 0.636156 -0.798103
H12   H     H_    0.677123 0.243711 0.617646 0.270401
H13   H     H_    0.561564 0.167400 0.683862 0.238886
H14   H     H_    0.704739 0.091017 0.670244 0.179966
C29   C     C_3   0.534886 0.232598 0.094056 -0.857443
H15   H     H_    0.520656 0.231344 0.162719 0.240252
H16   H     H_    0.499676 0.131202 0.069822 0.236033
H17   H     H_    0.634785 0.240022 0.085272 0.225521
C30   C     C_3   0.420400 0.758272 0.082389 -0.863895
H18   H     H_    0.346362 0.827007 0.055758 0.231982
H19   H     H_    0.409519 0.753908 0.151427 0.238827
H20   H     H_    0.510689 0.806491 0.071135 0.228165
N3    N     N_2   0.525087 0.237555 0.912689 -0.395284
H21   H     H_    0.595274 0.188659 0.946448 0.273036
C31   C     C_3   0.450683 0.142370 0.861649 -0.746397
H22   H     H_    0.510664 0.066055 0.832040 0.229396
H23   H     H_    0.398483 0.200114 0.810712 0.239479
H24   H     H_    0.385970 0.085241 0.901630 0.228659
N4    N     N_2   0.412864 0.740618 0.900539 -0.399254
H25   H     H_    0.445661 0.826695 0.932162 0.272805
C32   C     C_3   0.315924 0.772989 0.837845 -0.723958
H26   H     H_    0.230106 0.796966 0.869350 0.220390
H27   H     H_    0.299318 0.684427 0.794417 0.234508
H28   H     H_    0.342928 0.864857 0.799779 0.233009
C33   C     C_3   0.681941 0.686037 0.926076 -0.820772
H29   H     H_    0.634765 0.771686 0.956290 0.213542
H30   H     H_    0.780583 0.703704 0.943830 0.210648
H31   H     H_    0.670070 0.697851 0.856563 0.239976
C34   C     C_3   0.738837 0.436694 0.931363 -0.828313
H32   H     H_    0.832402 0.478988 0.946132 0.212393
H33   H     H_    0.736685 0.338226 0.967596 0.208259
H34   H     H_    0.731674 0.414212 0.862952 0.239491
C35   C     C_3   0.124171 0.272611 0.411820 -0.831580
H35   H     H_    0.169994 0.198142 0.456928 0.246245
H36   H     H_    0.060118 0.212626 0.369792 0.211940
H37   H     H_    0.191970 0.319329 0.369715 0.220013
C36   C     C_3   0.127998 0.725553 0.581301 -0.831200
H38   H     H_    0.206268 0.682127 0.620248 0.237885
H39   H     H_    0.159338 0.812990 0.541169 0.244352
H40   H     H_    0.065334 0.765608 0.628159 0.203054
N5    N     N_2   0.866957 0.255972 0.448755 -0.388951
H41   H     H_    0.861483 0.225334 0.386774 0.241758
C37   C     C_3   0.887820 0.144900 0.510002 -0.666100
H42   H     H_    0.808796 0.072220 0.506359 0.231410
H43   H     H_    0.895978 0.186465 0.575025 0.223305
H44   H     H_    0.972283 0.086985 0.497020 0.217694
N6    N     N_2   0.881806 0.757659 0.499976 -0.403936
H45   H     H_    0.918585 0.835265 0.537551 0.247040
C38   C     C_3   0.861792 0.804238 0.413298 -0.644972
H46   H     H_    0.950594 0.834639 0.386783 0.204669
H47   H     H_    0.799600 0.895032 0.410285 0.223367
H48   H     H_    0.817649 0.721270 0.373953 0.228880

loop_
_geom_bond_atom_site_label_1
_geom_bond_atom_site_label_2
_ccdc_geom_bond_type
C7    C35   S    
C29   H15   S    
N3    C31   S    
C11   C18   S    
C37   H42   S    
C23   N4    S    
C36   H38   S    
C17   C28   S    
N6    H45   S    
C19   O8    A    
C27   H10   S    
Cu2   O8    S    
C23   H1    S    
C13   H7    S    
C14   H8    S    
C5    C6    T    
C4    C24   T    
N5    C37   S    
C20   C25   S    
Cu2   O2    S    
C23   C26   S    
N4    C32   S    
C2    C34   S    
C1    O2    A    
C6    C15   S    
C27   H9    S    
Cu1   O1    S    
C16   C17   A    
C31   H23   S    
C16   N1    A    
Cu1   O7    S    
C22   N3    S    
C30   H18   S    
C37   H43   S    
C21   C22   S    
C9    N5    S    
C1    C12   S    
C16   C27   S    
N6    C38   S    
C27   H11   S    
C7    C12   A    
C21   H4    S    
C30   H19   S    
C28   H12   S    
C3    C25   S    
C15   O3    A    
N5    H41   S    
C21   C29   S    
C3    H6    S    
Cu2   O6    S    
N3    H21   S    
C28   H13   S    
C10   N6    S    
C33   H29   S    
C18   O6    A    
C32   H28   S    
C33   H30   S    
Cu1   O3    S    
C35   H35   S    
C20   C23   S    
Cu2   N2    S    
C8    C12   A    
C31   H24   S    
C35   H37   S    
C2    C26   S    
C20   C30   S    
C9    C11   A    
C13   N2    A    
C5    C25   S    
C38   H47   S    
C37   H44   S    
C29   H16   S    
C36   H40   S    
C34   H33   S    
C7    C9    A    
C21   C25   S    
C30   H20   S    
C22   H2    S    
C35   H36   S    
C15   O4    A    
C34   H34   S    
C4    C26   S    
C19   O7    A    
C38   H46   S    
C8    C36   S    
C28   H14   S    
C36   H39   S    
C2    C3    S    
C32   H26   S    
C18   O5    A    
C14   N1    A    
Cu1   N1    S    
Cu2   O4    S    
C19   C24   S    
C17   N2    A    
N4    H25   S    
C33   H31   S    
C10   C11   A    
C1    O1    A    
C34   H32   S    
Cu1   O5    S    
C38   H48   S    
C8    C10   A    
C31   H22   S    
C22   C26   S    
C29   H17   S    
C32   H27   S    
Cu1   Cu2   S    
C3    H5    S    
C13   C14   A    
C2    C33   S    
C20   H3    S    
