data_mof_unit_67793.cif
_audit_creation_date              2013-03-05T15:41:22-0500
_audit_creation_method            fapswitch 2.2
_symmetry_space_group_name_H-M    P1
_symmetry_Int_Tables_number       1
_space_group_crystal_system       triclinic
_cell_length_a                    8.528846
_cell_length_b                    9.349173
_cell_length_c                    11.427139
_cell_angle_alpha                 93.634135
_cell_angle_beta                  79.697486
_cell_angle_gamma                 90.353909
_cell_volume                      894.667565615

loop_
_atom_site_label
_atom_site_type_symbol
_atom_site_description
_atom_site_fract_x
_atom_site_fract_y
_atom_site_fract_z
_atom_type_partial_charge
O1    O     O_R   0.389250 0.738570 0.508370 -0.548840
O2    O     O_R   0.678390 0.711620 0.486510 -0.607127
C1    C     C_R   0.539346 0.790640 0.496315 0.946401
O3    O     O_R   0.355430 0.513500 0.696140 -0.579540
O4    O     O_R   0.644580 0.486550 0.674270 -0.575743
C2    C     C_R   0.497522 0.494154 0.739490 1.066981
Zn1   Zn    Zn3+2 0.306940 0.517990 0.514600 1.202390
Zn2   Zn    Zn3+2 0.693060 0.482010 0.485400 1.175966
O5    O     O_R   0.321610 0.288380 0.513490 -0.510005
O6    O     O_R   0.610750 0.261430 0.491630 -0.563251
O7    O     O_R   0.355420 0.513450 0.325730 -0.525561
O8    O     O_R   0.644570 0.486500 0.303860 -0.556878
C3    C     C_R   0.458537 0.208928 0.502486 0.904326
C4    C     C_R   0.505308 0.500511 0.258466 1.006978
C5    C     C_3   0.377723 0.601520 0.953617 -0.044929
H1    H     H_    0.274087 0.552970 0.932763 0.224882
C6    C     C_3   0.361594 0.601859 0.101695 0.401314
C7    C     C_3   0.483380 0.325825 0.918638 0.394227
C8    C     C_3   0.676657 0.551030 0.895226 0.391894
C9    C     C_3   0.507184 0.491588 0.874922 -0.490412
C10   C     C_3   0.507851 0.498260 0.119289 -0.522895
C11   C     C_3   0.480640 0.330874 0.065596 0.312362
C12   C     C_3   0.675265 0.561689 0.037103 0.414855
C13   C     C_2   0.553747 0.949293 0.484339 0.005726
C14   C     C_2   0.431435 0.050059 0.514662 0.170678
N1    N     N_2   0.950330 0.457950 0.465890 0.063607
N2    N     N_2   0.049670 0.542050 0.534110 -0.109393
H2    H     H_    0.999189 0.639451 0.567058 0.212378
S1    S     S_3+6 0.852548 0.471721 0.046831 0.183166
O9    O     O_2   0.869098 0.445405 0.170001 -0.156299
O10   O     O_2   0.891642 0.329387 0.984318 -0.110000
O11   O     O_3   0.991228 0.572033 0.967430 -0.476092
H3    H     H_    0.042490 0.638261 0.015361 0.424649
S2    S     S_3+6 0.631957 0.189295 0.832802 0.116705
O12   O     O_2   0.687748 0.228742 0.707270 -0.283298
O13   O     O_2   0.775475 0.148043 0.880357 -0.220016
O14   O     O_3   0.543180 0.032236 0.816869 -0.388374
H4    H     H_    0.598208 0.988817 0.739097 0.395739
Br1   Br    Br    0.646281 0.217630 0.123526 -0.177286
Br2   Br    Br    0.760553 0.998224 0.400155 -0.179132
S3    S     S_3+6 0.225721 0.003771 0.572184 0.129676
O15   O     O_2   0.145767 0.952009 0.471094 -0.212014
O16   O     O_2   0.215501 0.890354 0.658874 -0.225870
O17   O     O_3   0.115985 0.141117 0.645789 -0.423375
H5    H     H_    0.011286 0.099022 0.677482 0.415368
Br3   Br    Br    0.001089 0.263811 0.448511 -0.059201
S4    S     S_3+6 0.332534 0.758706 0.877836 0.100182
O18   O     O_2   0.355357 0.888722 0.949909 -0.086116
O19   O     O_2   0.434921 0.771995 0.758376 -0.296435
O20   O     O_3   0.144382 0.764339 0.854303 -0.468317
H6    H     H_    0.138235 0.689577 0.789959 0.413129
S5    S     S_3+6 0.315981 0.775397 0.203941 0.180759
O21   O     O_2   0.228744 0.739257 0.324131 -0.221003
O22   O     O_2   0.444913 0.868184 0.238520 -0.195815
O23   O     O_3   0.184108 0.883997 0.159379 -0.351545
H7    H     H_    0.141197 0.831799 0.095135 0.409283
S6    S     S_3+6 0.172053 0.519921 0.160287 0.086965
O24   O     O_2   0.148658 0.418860 0.062225 -0.222149
O25   O     O_2   0.141056 0.427622 0.262276 -0.190019
O26   O     O_3   0.026454 0.646995 0.203562 -0.501650
H8    H     H_    0.980509 0.636667 0.288636 0.414374
S7    S     S_3+6 0.302415 0.255009 0.861806 0.174885
O27   O     O_2   0.178198 0.361336 0.849016 -0.197484
O28   O     O_2   0.361187 0.201137 0.737036 -0.285039
O29   O     O_3   0.208469 0.116248 0.927969 -0.339988
H9    H     H_    0.123966 0.089202 0.881650 0.433035
S8    S     S_3+6 0.333898 0.205760 0.145955 0.222100
O30   O     O_2   0.159278 0.197035 0.141310 -0.056146
O31   O     O_2   0.393179 0.062526 0.098239 -0.134652
O32   O     O_3   0.345955 0.215209 0.289895 -0.542059
H10   H     H_    0.304444 0.121862 0.317570 0.413232
Br4   Br    Br    0.872848 0.456932 0.783910 -0.193444
Br5   Br    Br    0.736541 0.731549 0.816695 -0.293963
S9    S     S_3+6 0.716717 0.747183 0.089392 0.146717
O33   O     O_2   0.704133 0.754539 0.222048 -0.238232
O34   O     O_2   0.874458 0.811299 0.041122 -0.223905
O35   O     O_3   0.592652 0.857851 0.042727 -0.423459
H11   H     H_    0.656412 0.940449 0.011981 0.452020

loop_
_geom_bond_atom_site_label_1
_geom_bond_atom_site_label_2
_geom_bond_distance
_ccdc_geom_bond_type
C6    S6    1.819614 S    
O4    Zn2   2.121364 S    
C8    C12   1.615911 S    
O23   H7    0.979545 S    
C13   C14   1.391864 D    
C5    C6    1.672785 S    
S7    O27   1.489542 D    
S1    O11   1.676915 S    
S2    O14   1.662607 S    
Zn2   N1    2.177074 S    
S3    O15   1.496810 D    
C7    C9    1.658457 S    
C8    C9    1.595474 S    
S5    O23   1.685135 S    
C5    S4    1.829137 S    
Zn2   O8    2.189613 S    
S8    O32   1.663064 S    
O11   H3    0.955943 S    
C10   C12   1.689058 S    
O20   H6    0.989998 S    
C8    Br4   2.075297 S    
Zn1   N2    2.177074 S    
S4    O19   1.495069 D    
O1    Zn1   2.175679 S    
C10   C11   1.674514 S    
O17   H5    0.990695 S    
O29   H9    0.990325 S    
Zn1   O7    2.121363 S    
S3    O16   1.488084 D    
C3    C14   1.513050 S    
S6    O24   1.460013 D    
S1    O9    1.475416 D    
S9    O34   1.496684 D    
O3    Zn1   2.189614 S    
O4    C2    1.339265 A    
C11   Br1   1.999192 S    
C12   S1    1.758910 S    
C6    S5    1.937440 S    
O3    C2    1.405537 A    
S3    O17   1.681838 S    
O14   H4    0.991104 S    
S5    O22   1.489313 D    
O2    C1    1.384726 A    
S4    O20   1.675534 S    
S2    O13   1.487497 D    
C7    S2    1.901011 S    
N1    N2    1.447096 D    
C5    C9    1.620442 S    
O7    C4    1.370516 A    
O2    Zn2   2.150181 S    
C11   S8    1.866772 S    
S6    O25   1.478926 D    
S8    O31   1.470833 D    
S9    O33   1.497607 D    
N1    Br3   1.858624 S    
C12   S9    1.850983 S    
S8    O30   1.501242 D    
S4    O18   1.456448 D    
C8    Br5   1.982895 S    
O32   H10   0.988991 S    
C2    C9    1.566141 S    
S5    O21   1.498081 D    
C4    C10   1.585467 S    
S1    O10   1.480544 D    
S2    O12   1.496961 D    
C14   S3    1.819832 S    
N2    H2    1.029445 S    
Zn1   O5    2.150181 S    
O5    C3    1.370315 A    
O35   H11   0.988111 S    
C7    S7    1.879806 S    
S6    O26   1.709425 S    
S7    O28   1.481285 D    
S7    O29   1.670755 S    
C13   Br2   1.919545 S    
C7    C11   1.672949 S    
O6    C3    1.372546 A    
Zn2   O6    2.175677 S    
C6    C10   1.632138 S    
C5    H1    1.049167 S    
C1    C13   1.500459 S    
O8    C4    1.388485 A    
O26   H8    0.991521 S    
O1    C1    1.353683 A    
S9    O35   1.661261 S    
