data_mof_unit_48543.cif
_audit_creation_date              2012-12-10T17:29:17-0500
_audit_creation_method            fapswitch 2.2
_symmetry_space_group_name_H-M    P1
_symmetry_Int_Tables_number       1
_space_group_crystal_system       triclinic
_cell_length_a                    12.010249
_cell_length_b                    12.86257
_cell_length_c                    13.098551
_cell_angle_alpha                 87.110599
_cell_angle_beta                  113.750712
_cell_angle_gamma                 94.094014
_cell_volume                      1846.87598016

loop_
_atom_site_label
_atom_site_type_symbol
_atom_type_description
_atom_site_fract_x
_atom_site_fract_y
_atom_site_fract_z
_atom_type_partial_charge
C1    C     C_R   0.476899 0.299551 0.499088 0.887552
C2    C     C_R   0.554488 0.476305 0.988755 0.111462
C3    C     C_R   0.530069 0.447470 0.879394 0.091511
C4    C     C_R   0.459749 0.461018 0.027177 0.071994
C5    C     C_R   0.350635 0.401982 0.964825 0.068890
C6    C     C_R   0.337858 0.360303 0.863644 -0.222713
C7    C     C_R   0.425658 0.383079 0.821363 -0.199272
C8    C     C_R   0.470144 0.506167 0.124686 -0.300433
C9    C     C_R   0.277273 0.421489 0.112051 0.129561
C10   C     C_R   0.610019 0.485118 0.829913 -0.119963
C11   C     C_R   0.541763 0.812573 0.509523 -0.082029
C12   C     C_R   0.566526 0.492112 0.708811 0.859104
C13   C     C_R   0.461109 0.188320 0.497583 -0.099754
C14   C     C_R   0.334232 0.031292 0.431378 0.215277
C15   C     C_R   0.345880 0.138959 0.443697 -0.205414
C16   C     C_R   0.564934 0.131992 0.544545 -0.261344
C17   C     C_R   0.556286 0.025882 0.532855 0.093452
C18   C     C_R   0.441123 0.974580 0.474679 0.159426
C19   C     C_R   0.436316 0.868132 0.461986 -0.314011
C20   C     C_R   0.656875 0.863919 0.567932 0.177681
C21   C     C_R   0.662515 0.971338 0.577939 -0.189247
C22   C     C_R   0.022257 0.619384 0.421362 0.109406
C23   C     C_R   0.524230 0.700678 0.503401 0.900086
C24   C     C_R   0.139819 0.604507 0.426777 0.005172
C25   C     C_R   0.149898 0.445324 0.527969 -0.055859
C26   C     C_R   0.031368 0.455037 0.524929 -0.013605
C27   C     C_R   0.967196 0.544151 0.472136 0.054046
C28   C     C_R   0.849295 0.554259 0.470777 -0.063497
C29   C     C_R   0.858925 0.393969 0.570041 -0.010958
C30   C     C_R   0.974746 0.378518 0.572542 -0.075659
C31   C     C_R   0.432075 0.500259 0.291031 0.894056
C32   C     C_R   0.257661 0.385164 0.005550 0.006179
C33   C     C_R   0.386943 0.480630 0.171823 -0.093917
C34   C     C_R   0.725270 0.529825 0.895635 -0.187424
C35   C     C_R   0.757680 0.543429 0.008743 -0.142697
C36   C     C_R   0.672549 0.519502 0.054900 -0.190242
H1    H     H_    0.749707 0.012645 0.622209 0.148551
H2    H     H_    0.266082 0.184741 0.408170 0.158799
H3    H     H_    0.653545 0.171376 0.588433 0.157677
H4    H     H_    0.796790 0.620381 0.429659 0.143781
H5    H     H_    0.815718 0.335414 0.606465 0.139045
H6    H     H_    0.182769 0.661584 0.388684 0.133271
H7    H     H_    0.259136 0.311251 0.815284 0.174153
H8    H     H_    0.201919 0.378974 0.569450 0.141610
H9    H     H_    0.546342 0.559428 0.168929 0.155599
H10   H     H_    0.788555 0.557285 0.858866 0.157180
H11   H     H_    0.702503 0.533028 0.142869 0.135748
H12   H     H_    0.847213 0.576851 0.059875 0.146953
H13   H     H_    0.411517 0.348765 0.743008 0.159181
H14   H     H_    0.349760 0.826977 0.416200 0.174363
N1    N     N_R   0.798200 0.480260 0.519790 -0.107193
N2    N     N_R   0.201820 0.519740 0.480210 -0.115751
O1    O     O_R   0.579910 0.341070 0.505280 -0.620406
O2    O     O_R   0.388440 0.353740 0.492580 -0.637011
O3    O     O_R   0.643280 0.490550 0.663120 -0.613366
O4    O     O_R   0.451810 0.503220 0.650420 -0.601179
O5    O     O_R   0.611560 0.646260 0.507420 -0.619072
O6    O     O_R   0.420090 0.658930 0.494720 -0.623377
O7    O     O_R   0.548190 0.496780 0.349580 -0.608889
O8    O     O_R   0.356720 0.509450 0.336880 -0.615051
Zn1   Zn    Zn3+2 0.627850 0.491540 0.508480 0.939269
Zn2   Zn    Zn3+2 0.372150 0.508460 0.491520 0.933901
C37   C     C_3   0.185509 0.394652 0.163434 -0.850845
H15   H     H_    0.228685 0.348623 0.242100 0.243846
H16   H     H_    0.152285 0.467394 0.180660 0.246565
H17   H     H_    0.104124 0.347404 0.109560 0.236460
C38   C     C_3   0.772887 0.807068 0.623305 -0.860318
H18   H     H_    0.762390 0.746235 0.682537 0.242287
H19   H     H_    0.795289 0.770982 0.559215 0.247079
H20   H     H_    0.851631 0.860478 0.671391 0.229793
C39   C     C_3   0.208779 0.979872 0.371627 -0.943546
H21   H     H_    0.136771 0.037121 0.345276 0.249569
H22   H     H_    0.203657 0.941562 0.295652 0.239632
H23   H     H_    0.188903 0.920961 0.427863 0.248519
C40   C     C_3   0.958410 0.715136 0.361599 -0.968734
H24   H     H_    0.014890 0.765055 0.326989 0.246242
H25   H     H_    0.871805 0.691758 0.291202 0.242589
H26   H     H_    0.938830 0.762401 0.420458 0.251961
C41   C     C_1   0.029768 0.281437 0.619245 0.123162
N3    N     N_1   0.073204 0.203232 0.655971 -0.208974
C42   C     C_1   0.143875 0.329108 0.939342 0.147973
N4    N     N_1   0.053015 0.284534 0.886662 -0.207863

loop_
_geom_bond_atom_site_label_1
_geom_bond_atom_site_label_2
_ccdc_geom_bond_type
O6    Zn2   S    
C23   O6    A    
C37   H16   S    
C24   N2    A    
C24   H6    S    
C14   C39   S    
C14   C18   A    
C20   C38   S    
C35   C36   A    
N1    Zn1   S    
C4    C8    A    
C42   N4    T    
C32   C42   S    
C11   C19   A    
C26   C27   A    
C18   C19   A    
C3    C7    A    
C5    C6    A    
C28   N1    A    
C28   H4    S    
C36   H11   S    
O8    Zn2   S    
C34   C35   A    
C31   O7    A    
C1    O1    A    
C8    H9    S    
C9    C32   A    
O1    Zn1   S    
C16   C17   A    
C31   C33   S    
C34   H10   S    
C5    C32   A    
C37   H17   S    
C9    C33   A    
C22   C40   S    
C35   H12   S    
C25   H8    S    
C11   C20   A    
O7    Zn1   S    
C38   H18   S    
C7    H13   S    
C39   H22   S    
O2    Zn2   S    
C25   C26   A    
C17   C21   A    
C37   H15   S    
C38   H19   S    
C31   O8    A    
C2    C4    A    
C40   H24   S    
C15   H2    S    
C29   C30   A    
C17   C18   A    
C10   C34   A    
C40   H25   S    
C12   O4    A    
C10   C12   S    
C1    O2    A    
C30   C41   S    
C26   C30   A    
C22   C27   A    
C13   C15   A    
C22   C24   A    
C1    C13   S    
C29   N1    A    
C2    C36   A    
C23   O5    A    
C29   H5    S    
C9    C37   S    
C4    C5    A    
C39   H23   S    
O5    Zn1   S    
C6    C7    A    
C6    H7    S    
C38   H20   S    
C2    C3    A    
C25   N2    A    
C39   H21   S    
C3    C10   A    
N2    Zn2   S    
C19   H14   S    
O3    Zn1   S    
C11   C23   S    
O4    Zn2   S    
C8    C33   A    
C40   H26   S    
C12   O3    A    
C16   H3    S    
C41   N3    T    
C21   H1    S    
C20   C21   A    
C13   C16   A    
C27   C28   A    
C14   C15   A    
