data_mof_unit_17511.cif
_audit_creation_date              2012-12-10T19:00:10-0500
_audit_creation_method            fapswitch 2.2
_symmetry_space_group_name_H-M    P1
_symmetry_Int_Tables_number       1
_space_group_crystal_system       triclinic
_cell_length_a                    9.653234
_cell_length_b                    10.849751
_cell_length_c                    13.446015
_cell_angle_alpha                 92.600318
_cell_angle_beta                  74.538868
_cell_angle_gamma                 90.906241
_cell_volume                      1355.89996356

loop_
_atom_site_label
_atom_site_type_symbol
_atom_type_description
_atom_site_fract_x
_atom_site_fract_y
_atom_site_fract_z
_atom_type_partial_charge
C1    C     C_R   0.500559 0.737373 0.500720 0.808138
C2    C     C_R   0.442868 0.490907 0.973975 0.069524
C3    C     C_R   0.487398 0.457289 0.866899 -0.002559
C4    C     C_R   0.548402 0.511579 0.028962 0.085865
C5    C     C_R   0.695018 0.508827 0.974801 0.122729
C6    C     C_R   0.735802 0.462288 0.873026 -0.241808
C7    C     C_R   0.633155 0.423405 0.823106 0.166094
C8    C     C_R   0.513601 0.527101 0.136747 -0.268122
C9    C     C_R   0.762760 0.561235 0.133349 0.008825
C10   C     C_R   0.383735 0.457840 0.809064 -0.118631
C11   C     C_R   0.373937 0.934259 0.507993 0.122901
C12   C     C_R   0.424686 0.484668 0.697684 0.795667
C13   C     C_R   0.498835 0.871101 0.507752 -0.106968
C14   C     C_R   0.619231 0.938911 0.518887 -0.168046
C15   C     C_R   0.617530 0.067429 0.520857 -0.211599
C16   C     C_R   0.495897 0.129686 0.510064 -0.102900
C17   C     C_R   0.372240 0.061582 0.509650 0.142113
C18   C     C_3   0.283347 0.062381 0.434502 -0.480180
C19   C     C_3   0.286590 0.922987 0.431468 -0.439564
C20   C     C_R   0.937411 0.399439 0.463873 0.163892
C21   C     C_R   0.908264 0.589691 0.554579 0.018161
C22   C     C_R   0.057380 0.586925 0.556381 0.233800
C23   C     C_R   0.498906 0.262662 0.501365 0.781140
C24   C     C_R   0.083723 0.400016 0.462234 0.198070
C25   C     C_3   0.119360 0.336149 0.357182 -0.077785
C26   C     C_3   0.959587 0.332877 0.362333 -0.495155
C27   C     C_R   0.576441 0.513689 0.301923 0.829112
C28   C     C_R   0.799299 0.544128 0.025584 -0.277160
C29   C     C_R   0.619598 0.535923 0.189872 -0.074786
C30   C     C_R   0.237484 0.446450 0.862122 0.179445
C31   C     C_R   0.194991 0.464017 0.968928 -0.211428
C32   C     C_R   0.294407 0.499228 0.022214 -0.216060
Cu1   Cu    Cu3+1 0.359330 0.500020 0.500010 0.989392
Cu2   Cu    Cu3+1 0.640670 0.499980 0.499990 0.954634
H1    H     H_    0.713833 0.117174 0.525749 0.173684
H2    H     H_    0.174342 0.099998 0.471098 0.198566
H3    H     H_    0.341857 0.101827 0.359932 0.198185
H4    H     H_    0.178829 0.881811 0.463321 0.214096
H5    H     H_    0.347875 0.881683 0.355555 0.202459
H6    H     H_    0.166632 0.243714 0.353937 0.158964
H7    H     H_    0.928555 0.388070 0.304075 0.217623
H8    H     H_    0.846699 0.442778 0.835671 0.144366
H9    H     H_    0.913106 0.238312 0.370163 0.180499
H10   H     H_    0.908240 0.559721 0.980653 0.123512
H11   H     H_    0.404831 0.526259 0.181611 0.184188
H12   H     H_    0.251353 0.531242 0.100864 0.130485
H13   H     H_    0.083672 0.454942 0.010568 0.127307
H14   H     H_    0.716847 0.893310 0.520970 0.218520
N1    N     N_R   0.852320 0.499070 0.499340 -0.225845
N2    N     N_R   0.148230 0.499110 0.499340 -0.183837
O1    O     O_R   0.381190 0.680360 0.500000 -0.564974
O2    O     O_R   0.618780 0.680320 0.499990 -0.576603
O3    O     O_R   0.323230 0.500000 0.650990 -0.520683
O4    O     O_R   0.560820 0.499960 0.650980 -0.638361
O5    O     O_R   0.381220 0.319680 0.500010 -0.573369
O6    O     O_R   0.618810 0.319640 0.500000 -0.597059
O7    O     O_R   0.439180 0.500040 0.349020 -0.562142
O8    O     O_R   0.676770 0.500000 0.349010 -0.545636
C33   C     C_2   0.874074 0.612198 0.181520 0.354732
H15   H     H_    0.986826 0.597292 0.143907 0.043006
O9    O     O_2   0.841820 0.678647 0.259909 -0.523026
C34   C     C_2   0.814276 0.687526 0.617153 0.347982
H16   H     H_    0.704255 0.669197 0.656799 0.138547
O10   O     O_2   0.859299 0.792020 0.626052 -0.606927
N3    N     N_3   0.111187 0.668710 0.624182 -0.503699
H17   H     H_    0.045028 0.662887 0.699284 0.203640
H18   H     H_    0.111018 0.758968 0.600926 0.249259
N4    N     N_3   0.201090 0.413180 0.276372 -0.557848
H19   H     H_    0.203332 0.366915 0.206077 0.219928
H20   H     H_    0.148620 0.497469 0.278802 0.226652
N5    N     N_3   0.131182 0.421520 0.807558 -0.569217
H21   H     H_    0.066770 0.348274 0.841623 0.215892
H22   H     H_    0.068728 0.500837 0.816094 0.204326
N6    N     N_3   0.675989 0.330213 0.741343 -0.570407
H23   H     H_    0.748029 0.368388 0.677855 0.240178
H24   H     H_    0.587949 0.291884 0.719572 0.226285

loop_
_geom_bond_atom_site_label_1
_geom_bond_atom_site_label_2
_ccdc_geom_bond_type
Cu1   O5    S    
Cu2   O6    S    
C27   C29   S    
C4    C8    A    
C21   N1    A    
C30   N5    S    
C23   O6    A    
C11   C19   S    
C34   H16   S    
N6    H24   S    
C8    C29   A    
C19   H5    S    
C18   H3    S    
C3    C7    A    
C25   H6    S    
C5    C6    A    
C15   C16   A    
C2    C32   A    
C18   C19   S    
C8    H11   S    
C34   O10   D    
C20   C24   A    
C16   C17   A    
N3    H18   S    
C12   O3    A    
C9    C29   A    
C22   N2    A    
C33   H15   S    
C31   H13   S    
C13   C14   A    
C24   N2    A    
C25   N4    S    
C15   H1    S    
C26   H9    S    
C17   C18   S    
C7    N6    S    
Cu1   O3    S    
C33   O9    D    
N6    H23   S    
C24   C25   S    
C27   O7    A    
N5    H22   S    
N4    H19   S    
C14   H14   S    
C25   C26   S    
C28   H10   S    
C9    C33   S    
C2    C4    A    
C22   N3    S    
C20   N1    A    
C19   H4    S    
C5    C28   A    
C10   C30   A    
C31   C32   A    
Cu1   Cu2   S    
C1    O1    A    
C21   C34   S    
C10   C12   S    
Cu2   O4    S    
C16   C23   S    
C1    C13   S    
C11   C17   A    
Cu2   N1    S    
Cu1   O7    S    
C32   H12   S    
C4    C5    A    
C27   O8    A    
C23   O5    A    
C6    C7    A    
Cu1   O1    S    
Cu2   O2    S    
C2    C3    A    
Cu1   N2    S    
N5    H21   S    
C3    C10   A    
C11   C13   A    
C30   C31   A    
C20   C26   S    
C1    O2    A    
C9    C28   A    
N4    H20   S    
N3    H17   S    
C6    H8    S    
Cu2   O8    S    
C14   C15   A    
C21   C22   A    
C18   H2    S    
C12   O4    A    
C26   H7    S    
