data_mof_unit_15431.cif
_audit_creation_date              2012-12-10T18:37:17-0500
_audit_creation_method            fapswitch 2.2
_symmetry_space_group_name_H-M    P1
_symmetry_Int_Tables_number       1
_space_group_crystal_system       triclinic
_cell_length_a                    15.176258
_cell_length_b                    13.84779
_cell_length_c                    10.767062
_cell_angle_alpha                 90.757747
_cell_angle_beta                  90.71756
_cell_angle_gamma                 89.378259
_cell_volume                      2262.27574455

loop_
_atom_site_label
_atom_site_type_symbol
_atom_type_description
_atom_site_fract_x
_atom_site_fract_y
_atom_site_fract_z
_atom_type_partial_charge
C1    C     C_R   0.330309 0.500587 0.499848 0.776995
C2    C     C_3   0.582456 0.568205 0.935433 0.239406
C3    C     C_R   0.097193 0.569759 0.423791 -0.170837
C4    C     C_R   0.097697 0.439785 0.573044 -0.169638
C5    C     C_R   0.188801 0.569340 0.426343 -0.207598
C6    C     C_R   0.189184 0.437625 0.572737 -0.207269
C7    C     C_R   0.234787 0.502393 0.499501 -0.018734
C8    C     C_R   0.050794 0.504823 0.497029 0.168851
C9    C     C_R   0.909481 0.416663 0.503406 -0.274107
C10   C     C_R   0.905319 0.589905 0.483981 -0.277388
C11   C     C_R   0.817860 0.414793 0.514470 0.407926
C12   C     C_R   0.813258 0.588834 0.480286 0.389045
C13   C     C_R   0.768236 0.500835 0.498305 -0.244313
C14   C     C_R   0.953823 0.503957 0.493836 -0.025755
C15   C     C_R   0.571833 0.107578 0.548150 -0.281308
C16   C     C_R   0.552891 0.892109 0.583802 -0.292809
C17   C     C_R   0.500487 0.499228 0.260094 0.785513
C18   C     C_R   0.569744 0.209009 0.549173 0.094245
C19   C     C_R   0.552398 0.790709 0.581795 0.102505
C20   C     C_R   0.430332 0.209650 0.450116 0.068963
C21   C     C_R   0.449053 0.789960 0.416103 0.064400
C22   C     C_R   0.428714 0.108179 0.449952 -0.289685
C23   C     C_R   0.449045 0.891362 0.413004 -0.285326
C24   C     C_R   0.500442 0.054528 0.498761 0.135243
C25   C     C_R   0.500720 0.945065 0.498585 0.134072
C26   C     C_R   0.670664 0.499847 0.500162 0.833139
C27   C     C_R   0.501519 0.500443 0.740575 0.725146
C28   C     C_3   0.417650 0.549643 0.072940 -0.403211
C29   C     C_3   0.502072 0.392710 0.072215 -0.411831
C30   C     C_3   0.410238 0.535331 0.930391 -0.115023
C31   C     C_3   0.512992 0.392284 0.929606 -0.082769
C32   C     C_3   0.587704 0.545762 0.077831 -0.390132
C33   C     C_3   0.501737 0.497582 0.122981 0.065373
C34   C     C_3   0.503901 0.501345 0.879468 0.012566
Cu1   Cu    Cu3+1 0.499990 0.596430 0.500000 0.926558
Cu2   Cu    Cu3+1 0.499990 0.403570 0.500000 0.933325
H1    H     H_    0.417809 0.627044 0.100709 0.168639
H2    H     H_    0.556195 0.351440 0.118753 0.190921
H3    H     H_    0.629870 0.071662 0.584753 0.124164
H4    H     H_    0.593649 0.927957 0.652818 0.130084
H5    H     H_    0.624377 0.247949 0.589110 0.158556
H6    H     H_    0.594715 0.751452 0.645306 0.130570
H7    H     H_    0.375143 0.248952 0.410376 0.123988
H8    H     H_    0.408659 0.750037 0.350242 0.114705
H9    H     H_    0.370744 0.072832 0.412915 0.125489
H10   H     H_    0.409457 0.926620 0.342478 0.124069
H11   H     H_    0.358250 0.518624 0.116524 0.137061
H12   H     H_    0.439389 0.356599 0.096198 0.155039
H13   H     H_    0.365012 0.473211 0.915572 0.143286
H14   H     H_    0.455778 0.351825 0.890076 0.155442
H15   H     H_    0.600865 0.611822 0.134275 0.159986
H16   H     H_    0.643279 0.495994 0.099736 0.140067
H17   H     H_    0.062896 0.619663 0.363037 0.120043
H18   H     H_    0.063793 0.390844 0.633281 0.121488
H19   H     H_    0.223798 0.619521 0.368948 0.131397
H20   H     H_    0.224386 0.386692 0.631206 0.135741
H21   H     H_    0.946003 0.349092 0.506317 0.156944
H22   H     H_    0.938563 0.658545 0.479696 0.149643
N1    N     N_R   0.500020 0.258690 0.500000 -0.174834
N2    N     N_R   0.500020 0.741310 0.500000 -0.175344
O1    O     O_R   0.371450 0.581430 0.500010 -0.588446
O2    O     O_R   0.371450 0.418570 0.500010 -0.592911
O3    O     O_R   0.499980 0.581440 0.317690 -0.600028
O4    O     O_R   0.499980 0.418560 0.317690 -0.587550
O5    O     O_R   0.628540 0.581440 0.499990 -0.538865
O6    O     O_R   0.628540 0.418560 0.499990 -0.553600
O7    O     O_R   0.500010 0.581440 0.682310 -0.607580
O8    O     O_R   0.500010 0.418560 0.682310 -0.594646
O9    O     O_3   0.776762 0.327887 0.535502 -0.566707
C35   C     C_3   0.805018 0.288781 0.650730 0.040804
H23   H     H_    0.749593 0.293699 0.716278 0.148919
H24   H     H_    0.861109 0.326588 0.697639 0.126265
C36   C     C_3   0.831133 0.183295 0.631884 -0.823954
H25   H     H_    0.889520 0.177779 0.570976 0.244283
H26   H     H_    0.847739 0.150471 0.722880 0.206798
H27   H     H_    0.776009 0.142870 0.587964 0.246372
O10   O     O_3   0.767526 0.675314 0.468175 -0.558752
C37   C     C_3   0.773233 0.706610 0.344165 0.078068
H28   H     H_    0.755085 0.648081 0.276613 0.114995
H29   H     H_    0.841038 0.731653 0.324675 0.132031
C38   C     C_3   0.709697 0.790956 0.324681 -0.768760
H30   H     H_    0.719626 0.822316 0.231633 0.190158
H31   H     H_    0.640730 0.765742 0.330592 0.258653
H32   H     H_    0.721298 0.847940 0.396423 0.252669
C39   C     C_3   0.358638 0.618014 0.863513 -0.387978
C40   C     C_3   0.265131 0.632321 0.914728 -0.381364
C41   C     C_3   0.211661 0.703502 0.836234 -0.831034
H33   H     H_    0.244710 0.774672 0.834893 0.250800
H34   H     H_    0.204119 0.675464 0.739515 0.263225
H35   H     H_    0.145099 0.713456 0.876407 0.238380
H36   H     H_    0.230079 0.562210 0.914626 0.216626
H37   H     H_    0.268651 0.660518 0.011752 0.217749
H38   H     H_    0.392516 0.687990 0.869320 0.204767
H39   H     H_    0.350799 0.598410 0.763782 0.224520
C42   C     C_3   0.594630 0.328997 0.893349 -0.397480
C43   C     C_3   0.578020 0.220746 0.915294 -0.355064
C44   C     C_3   0.659035 0.158546 0.887084 -0.875412
H40   H     H_    0.673030 0.159387 0.786484 0.247805
H41   H     H_    0.717283 0.184878 0.940453 0.255749
H42   H     H_    0.646417 0.082747 0.913333 0.248005
H43   H     H_    0.559572 0.208312 0.013153 0.223062
H44   H     H_    0.522627 0.195956 0.854712 0.221151
H45   H     H_    0.610087 0.335828 0.793993 0.209535
H46   H     H_    0.653327 0.351764 0.948541 0.201908
C45   C     C_3   0.562089 0.680383 0.924144 -0.388744
C46   C     C_3   0.638673 0.749801 0.955034 -0.377763
C47   C     C_3   0.606699 0.854763 0.958554 -0.886609
H47   H     H_    0.574941 0.874267 0.868805 0.253065
H48   H     H_    0.558678 0.866075 0.034554 0.257715
H49   H     H_    0.663603 0.903058 0.975782 0.245174
H50   H     H_    0.668346 0.733885 0.047000 0.216524
H51   H     H_    0.690744 0.743571 0.883849 0.232712
H52   H     H_    0.539105 0.698066 0.829740 0.203331
H53   H     H_    0.508915 0.701827 0.987858 0.203194
C48   C     C_3   0.671068 0.546945 0.862604 -0.364345
C49   C     C_3   0.758282 0.548152 0.937941 -0.391643
C50   C     C_3   0.837307 0.558013 0.852669 -0.845415
H54   H     H_    0.838681 0.498025 0.783242 0.246366
H55   H     H_    0.833929 0.627943 0.803350 0.260660
H56   H     H_    0.899242 0.555465 0.908581 0.240217
H57   H     H_    0.759584 0.607946 0.007088 0.214855
H58   H     H_    0.766380 0.479210 0.988593 0.206995
H59   H     H_    0.669741 0.477681 0.811848 0.154453
H60   H     H_    0.675524 0.598643 0.784799 0.203413

loop_
_geom_bond_atom_site_label_1
_geom_bond_atom_site_label_2
_ccdc_geom_bond_type
C15   C18   A    
C41   H33   S    
C28   H11   S    
C43   H44   S    
C36   H26   S    
C36   H25   S    
C42   C43   S    
C4    C8    A    
Cu2   N1    S    
C1    O2    A    
C20   H7    S    
C44   H40   S    
C46   H51   S    
O10   C37   S    
C49   H58   S    
C45   H52   S    
C10   H22   S    
C40   H36   S    
C50   H55   S    
C17   O4    A    
Cu2   O6    S    
C46   C47   S    
Cu1   O5    S    
C48   C49   S    
C29   C33   S    
C11   C13   A    
C49   C50   S    
C2    C32   S    
C2    C48   S    
C32   H16   S    
C27   O8    A    
C38   H31   S    
C39   H38   S    
Cu1   Cu2   S    
C29   H2    S    
C47   H47   S    
C35   H23   S    
C48   H60   S    
C9    H21   S    
C19   H6    S    
C2    C34   S    
C23   H10   S    
C1    C7    S    
C43   H43   S    
C43   C44   S    
C47   H48   S    
C17   C33   S    
Cu2   O2    S    
C44   H41   S    
C42   H45   S    
C38   H30   S    
C46   H50   S    
C27   C34   S    
C48   H59   S    
C49   H57   S    
C30   C34   S    
C29   H12   S    
C26   O6    A    
C45   H53   S    
C24   C25   S    
C21   N2    A    
C4    C6    A    
C3    C8    A    
C10   C14   A    
C50   H56   S    
C5    C7    A    
C37   H28   S    
C39   C40   S    
Cu1   N2    S    
C30   C39   S    
C9    C14   A    
C32   H15   S    
C21   H8    S    
C39   H39   S    
Cu1   O7    S    
C12   O10   S    
C35   C36   S    
Cu2   O8    S    
C31   C34   S    
Cu1   O1    S    
C20   N1    A    
C9    C11   A    
C15   H3    S    
C10   C12   A    
C16   H4    S    
C15   C24   A    
C30   H13   S    
C20   C22   A    
C28   C33   S    
C21   C23   A    
C36   H27   S    
C22   C24   A    
C13   C26   S    
C18   H5    S    
C31   H14   S    
C38   H32   S    
C42   H46   S    
C16   C25   A    
C8    C14   S    
C44   H42   S    
C4    H18   S    
C40   C41   S    
C26   O5    A    
C5    H19   S    
C6    H20   S    
C3    C5    A    
C1    O1    A    
C35   H24   S    
C11   O9    S    
C6    C7    A    
C19   N2    A    
C45   C46   S    
C2    C45   S    
C32   C33   S    
C41   H34   S    
C29   C31   S    
C40   H37   S    
C50   H54   S    
C17   O3    A    
C3    H17   S    
C37   C38   S    
C28   H1    S    
C16   C19   A    
C31   C42   S    
C28   C30   S    
C47   H49   S    
C37   H29   S    
C23   C25   A    
O9    C35   S    
C27   O7    A    
C18   N1    A    
C22   H9    S    
C12   C13   A    
C41   H35   S    
Cu1   O3    S    
Cu2   O4    S    
