data_mof_unit_28208.cif
_audit_creation_date              2012-12-10T18:53:02-0500
_audit_creation_method            fapswitch 2.2
_symmetry_space_group_name_H-M    P1
_symmetry_Int_Tables_number       1
_space_group_crystal_system       triclinic
_cell_length_a                    9.838129
_cell_length_b                    10.695044
_cell_length_c                    16.677663
_cell_angle_alpha                 90.219818
_cell_angle_beta                  83.448778
_cell_angle_gamma                 90.718441
_cell_volume                      1743.21010421

loop_
_atom_site_label
_atom_site_type_symbol
_atom_type_description
_atom_site_fract_x
_atom_site_fract_y
_atom_site_fract_z
_atom_type_partial_charge
C1    C     C_R   0.501268 0.739953 0.499232 0.901512
C2    C     C_R   0.062908 0.574793 0.552082 -0.076197
C3    C     C_R   0.080987 0.425303 0.447900 -0.071654
C4    C     C_R   0.919011 0.574690 0.552099 -0.070646
C5    C     C_R   0.478742 0.497413 0.653219 0.844473
C6    C     C_R   0.521029 0.498101 0.346725 0.851727
C7    C     C_R   0.458604 0.467681 0.737923 -0.004234
C8    C     C_R   0.537704 0.472515 0.261313 -0.009740
C9    C     C_R   0.518634 0.541270 0.793605 -0.233991
C10   C     C_R   0.464550 0.541042 0.210252 -0.214455
C11   C     C_R   0.498515 0.509263 0.874628 -0.156122
C12   C     C_R   0.498729 0.260066 0.500786 0.896854
C13   C     C_R   0.466884 0.505190 0.130277 -0.175107
C14   C     C_R   0.422944 0.400913 0.899493 0.179526
C15   C     C_R   0.536182 0.396380 0.102100 0.154559
C16   C     C_R   0.363657 0.327036 0.843411 -0.196479
C17   C     C_R   0.614679 0.331356 0.152559 -0.158665
C18   C     C_R   0.379787 0.361576 0.762734 -0.195731
C19   C     C_R   0.616129 0.369953 0.232139 -0.217576
C20   C     C_2   0.412427 0.364629 0.984720 0.074699
C21   C     C_2   0.531080 0.355377 0.018181 0.082545
C22   C     C_3   0.773550 0.399347 0.968401 -0.795914
C23   C     C_R   0.612700 0.939200 0.457558 0.213035
C24   C     C_3   0.158936 0.391218 0.999555 -0.797886
C25   C     C_3   0.848427 0.878032 0.451514 -0.743945
C26   C     C_3   0.151704 0.122572 0.549215 -0.745436
C27   C     C_R   0.387376 0.060887 0.542553 0.213815
C28   C     C_R   0.607453 0.067712 0.457666 -0.306993
C29   C     C_R   0.392499 0.932369 0.542318 -0.306078
C30   C     C_R   0.496597 0.127707 0.500350 -0.092525
C31   C     C_R   0.503398 0.872354 0.499676 -0.097780
C32   C     C_R   0.937084 0.425203 0.447912 -0.073551
H1    H     H_    0.579321 0.623337 0.774510 0.131753
H2    H     H_    0.309993 0.879435 0.575706 0.160495
H3    H     H_    0.889748 0.365386 0.406304 0.118543
H4    H     H_    0.110232 0.634629 0.593677 0.122197
H5    H     H_    0.142754 0.365629 0.406208 0.125928
H6    H     H_    0.857245 0.634367 0.593789 0.121401
H7    H     H_    0.644838 0.269227 0.917897 0.232565
H8    H     H_    0.799315 0.437149 0.906520 0.238466
H9    H     H_    0.861296 0.344576 0.984598 0.244905
H10   H     H_    0.757020 0.479523 0.010799 0.247061
H11   H     H_    0.274156 0.309017 0.083644 0.231273
H12   H     H_    0.404958 0.621064 0.232498 0.140332
H13   H     H_    0.074512 0.407790 0.048377 0.237175
H14   H     H_    0.131687 0.308333 0.964217 0.233754
H15   H     H_    0.169668 0.475666 0.960686 0.257279
H16   H     H_    0.742166 0.908798 0.353703 0.211936
H17   H     H_    0.890904 0.974572 0.454214 0.217265
H18   H     H_    0.925641 0.818187 0.416682 0.237086
H19   H     H_    0.828002 0.840142 0.513706 0.246604
H20   H     H_    0.258530 0.091082 0.646682 0.206591
H21   H     H_    0.108887 0.026162 0.546508 0.218458
H22   H     H_    0.171845 0.160595 0.487047 0.248435
H23   H     H_    0.672581 0.316248 0.271973 0.133780
H24   H     H_    0.074898 0.182541 0.584284 0.236529
H25   H     H_    0.334287 0.303707 0.719203 0.149777
H26   H     H_    0.307419 0.242288 0.861759 0.136642
H27   H     H_    0.671550 0.249469 0.131001 0.150047
H28   H     H_    0.412057 0.560956 0.090761 0.154802
H29   H     H_    0.544026 0.567392 0.918016 0.139581
H30   H     H_    0.689912 0.120662 0.424236 0.157163
N1    N     N_R   0.142790 0.500030 0.500020 -0.073880
N2    N     N_R   0.857210 0.499970 0.499980 -0.072629
N3    N     N_2   0.654425 0.317810 0.970563 -0.311831
N4    N     N_2   0.283949 0.369154 0.035043 -0.311893
N5    N     N_2   0.724305 0.877864 0.412522 -0.289395
N6    N     N_2   0.276117 0.122249 0.587904 -0.298088
O1    O     O_R   0.385380 0.683250 0.500010 -0.628041
O2    O     O_R   0.614620 0.316750 0.499990 -0.628815
O3    O     O_R   0.614710 0.683220 0.500000 -0.593262
O4    O     O_R   0.385290 0.316780 0.500000 -0.595124
O5    O     O_R   0.371780 0.500040 0.615800 -0.614650
O6    O     O_R   0.628220 0.499960 0.384200 -0.613434
O7    O     O_R   0.601110 0.500010 0.615800 -0.614291
O8    O     O_R   0.398890 0.499990 0.384200 -0.615194
Zn1   Zn    Zn3+2 0.346870 0.500020 0.500000 0.949557
Zn2   Zn    Zn3+2 0.653130 0.499980 0.500000 0.951111

loop_
_geom_bond_atom_site_label_1
_geom_bond_atom_site_label_2
_ccdc_geom_bond_type
C27   C29   A    
O1    Zn1   S    
C25   N5    S    
C13   H28   S    
C1    O3    A    
C24   H13   S    
C20   N4    S    
C11   C14   A    
C22   H9    S    
O2    Zn2   S    
C2    H4    S    
C1    C31   S    
C15   C17   A    
C23   N5    S    
C25   H18   S    
C27   N6    S    
H20   N6    S    
C24   N4    S    
C21   N3    S    
C12   O4    A    
C27   C30   A    
C9    H1    S    
H7    N3    S    
C26   H22   S    
C6    O6    A    
C8    C19   A    
C10   H12   S    
C32   H3    S    
C14   C20   S    
O8    Zn1   S    
C32   N2    A    
C5    C7    S    
C6    C8    S    
C29   H2    S    
C1    O1    A    
C23   C31   A    
C5    O7    A    
C2    C4    A    
C25   H19   S    
C22   N3    S    
O4    Zn1   S    
C18   H25   S    
C7    C18   A    
C22   H8    S    
C16   H26   S    
C23   C28   A    
C9    C11   A    
C17   H27   S    
C8    C10   A    
C4    H6    S    
C13   C15   A    
C14   C16   A    
C26   H21   S    
C2    N1    A    
N1    Zn1   S    
C19   H23   S    
C7    C9    A    
C12   O2    A    
C12   C30   S    
C24   H15   S    
N2    Zn2   S    
C11   H29   S    
C10   C13   A    
C26   H24   S    
C6    O8    A    
C3    N1    A    
C4    N2    A    
C24   H14   S    
C28   C30   A    
C26   N6    S    
C29   C31   A    
C22   H10   S    
H11   N4    S    
C17   C19   A    
H16   N5    S    
C5    O5    A    
C3    C32   A    
O7    Zn2   S    
C25   H17   S    
C15   C21   S    
C20   C21   D    
C3    H5    S    
C16   C18   A    
O6    Zn2   S    
O5    Zn1   S    
O3    Zn2   S    
C28   H30   S    
