data_mof_unit_68471.cif
_audit_creation_date              2012-12-10T16:53:31-0500
_audit_creation_method            fapswitch 2.2
_symmetry_space_group_name_H-M    P1
_symmetry_Int_Tables_number       1
_space_group_crystal_system       triclinic
_cell_length_a                    7.903853
_cell_length_b                    8.569744
_cell_length_c                    13.632672
_cell_angle_alpha                 93.87784
_cell_angle_beta                  78.755431
_cell_angle_gamma                 92.749099
_cell_volume                      903.025388215

loop_
_atom_site_label
_atom_site_type_symbol
_atom_type_description
_atom_site_fract_x
_atom_site_fract_y
_atom_site_fract_z
_atom_type_partial_charge
C1    C     C_R   0.544086 0.793376 0.496161 0.916638
C2    C     C_1   0.554342 0.466500 0.121366 -0.043421
C3    C     C_2   0.561626 0.952287 0.475972 0.001388
C4    C     C_2   0.436762 0.047043 0.524679 0.000857
C5    C     C_R   0.322721 0.656926 0.046094 0.151306
C6    C     C_R   0.322202 0.813065 0.020383 -0.161638
C7    C     C_R   0.205801 0.916987 0.077689 -0.147980
C8    C     C_R   0.088192 0.865632 0.160462 -0.118142
C9    C     C_R   0.085873 0.710359 0.185879 -0.127930
C10   C     C_R   0.201769 0.605898 0.128570 -0.138268
C11   C     C_R   0.670553 0.346375 0.953129 0.158753
C12   C     C_R   0.455487 0.206545 0.504769 0.901420
C13   C     C_R   0.817539 0.403972 0.888689 -0.147880
C14   C     C_R   0.929593 0.300304 0.827501 -0.129591
C15   C     C_R   0.895768 0.138916 0.830814 -0.115217
C16   C     C_R   0.750916 0.080807 0.895854 -0.146914
C17   C     C_R   0.638812 0.184159 0.957260 -0.158802
C18   C     C_3   0.610118 0.987864 0.298255 -0.835563
C19   C     C_3   0.374073 0.003590 0.701913 -0.818299
C20   C     C_3   0.968005 0.292617 0.326026 -0.722110
C21   C     C_3   0.964877 0.697782 0.674898 -0.693634
C22   C     C_R   0.471138 0.505406 0.686659 0.888894
C23   C     C_R   0.528996 0.494744 0.313305 0.878700
C24   C     C_1   0.546480 0.479755 0.209161 -0.184729
C25   C     C_1   0.453963 0.520972 0.790719 -0.196239
C26   C     C_2   0.551170 0.455874 0.017889 -0.034746
C27   C     C_2   0.443495 0.545951 0.982678 -0.030116
C28   C     C_1   0.444589 0.534871 0.878575 -0.045603
H1    H     H_    0.411939 0.854210 0.956021 0.124048
H2    H     H_    0.527049 0.138232 0.007520 0.125408
H3    H     H_    0.797484 0.940361 0.378077 0.235612
H4    H     H_    0.706924 0.033902 0.235686 0.239083
H5    H     H_    0.494336 0.060269 0.308718 0.240631
H6    H     H_    0.574419 0.864632 0.277656 0.245592
H7    H     H_    0.195605 0.057141 0.617638 0.235619
H8    H     H_    0.272415 0.955939 0.761520 0.233331
H9    H     H_    0.409230 0.125625 0.725538 0.239245
H10   H     H_    0.488612 0.930002 0.693270 0.239667
H11   H     H_    0.161269 0.335330 0.401425 0.281419
H12   H     H_    0.206251 0.037155 0.057716 0.131283
H13   H     H_    0.043356 0.196433 0.282333 0.187056
H14   H     H_    0.982740 0.395461 0.279715 0.221758
H15   H     H_    0.832110 0.252503 0.342229 0.305937
H16   H     H_    0.022890 0.774335 0.531766 0.223838
H17   H     H_    0.906972 0.591553 0.712192 0.236354
H18   H     H_    0.884317 0.798506 0.706529 0.194634
H19   H     H_    0.097119 0.721067 0.689776 0.249230
H20   H     H_    0.997972 0.945733 0.204486 0.126549
H21   H     H_    0.993322 0.671101 0.249593 0.146261
H22   H     H_    0.196350 0.484988 0.147548 0.127143
H23   H     H_    0.845157 0.528817 0.886415 0.126151
H24   H     H_    0.042630 0.344938 0.777644 0.153857
H25   H     H_    0.981951 0.058846 0.783279 0.126563
H26   H     H_    0.725711 0.955742 0.898662 0.128124
N1    N     N_2   0.954190 0.457600 0.473930 0.044792
N2    N     N_2   0.045810 0.542400 0.526070 0.010179
N3    N     N_2   0.681778 0.995848 0.388662 -0.318044
N4    N     N_2   0.310471 0.000821 0.609037 -0.309437
N5    N     N_2   0.031037 0.331078 0.417273 -0.229020
N6    N     N_2   0.969007 0.677432 0.568655 -0.180725
O1    O     O_R   0.388300 0.738660 0.506400 -0.596470
O2    O     O_R   0.611700 0.261340 0.493600 -0.586392
O3    O     O_R   0.679920 0.711490 0.489690 -0.626848
O4    O     O_R   0.320080 0.288510 0.510310 -0.665549
O5    O     O_R   0.333200 0.515510 0.649910 -0.621932
O6    O     O_R   0.666800 0.484490 0.350090 -0.625158
O7    O     O_R   0.624820 0.488340 0.633200 -0.589041
O8    O     O_R   0.375180 0.511660 0.366800 -0.645134
Zn1   Zn    Zn3+2 0.305280 0.518140 0.511160 0.939365
Zn2   Zn    Zn3+2 0.694720 0.481860 0.488840 0.973883

loop_
_geom_bond_atom_site_label_1
_geom_bond_atom_site_label_2
_ccdc_geom_bond_type
C23   O8    A    
C8    C9    A    
C20   H14   S    
N1    N2    D    
C8    H20   S    
C22   O5    A    
C6    C7    A    
C19   H10   S    
N1    N5    S    
C4    C12   S    
C18   H6    S    
C9    C10   A    
C18   N3    S    
O3    Zn2   S    
C23   C24   S    
O7    Zn2   S    
H11   N5    S    
H3    N3    S    
C20   H13   S    
C9    H21   S    
C5    C10   A    
C2    C26   S    
C13   H23   S    
O4    Zn1   S    
C20   N5    S    
C17   H2    S    
C11   C13   A    
C26   C27   D    
O6    Zn2   S    
H16   N6    S    
H7    N4    S    
O5    Zn1   S    
C3    N3    S    
C23   O6    A    
C21   H18   S    
C21   H17   S    
C19   H8    S    
C19   N4    S    
C2    C24   T    
C5    C6    A    
C12   O4    A    
C18   H5    S    
C16   H26   S    
C22   O7    A    
N1    Zn2   S    
C18   H4    S    
C25   C28   T    
C4    N4    S    
C15   C16   A    
C10   H22   S    
C15   H25   S    
C7    C8    A    
C20   H15   S    
C12   O2    A    
C6    H1    S    
O2    Zn2   S    
C21   N6    S    
N2    Zn1   S    
O1    Zn1   S    
C27   C28   S    
C14   C15   A    
C1    O3    A    
C19   H9    S    
C11   C26   S    
C1    C3    S    
C5    C27   S    
C7    H12   S    
O8    Zn1   S    
C14   H24   S    
C3    C4    D    
N2    N6    S    
C16   C17   A    
C1    O1    A    
C13   C14   A    
C21   H19   S    
C22   C25   S    
C11   C17   A    
