data_mof_unit_20418.cif
_audit_creation_date              2012-12-10T19:00:16-0500
_audit_creation_method            fapswitch 2.2
_symmetry_space_group_name_H-M    P1
_symmetry_Int_Tables_number       1
_space_group_crystal_system       triclinic
_cell_length_a                    9.649645
_cell_length_b                    10.820819
_cell_length_c                    13.581331
_cell_angle_alpha                 90.199585
_cell_angle_beta                  73.663364
_cell_angle_gamma                 91.232918
_cell_volume                      1360.54693765

loop_
_atom_site_label
_atom_site_type_symbol
_atom_type_description
_atom_site_fract_x
_atom_site_fract_y
_atom_site_fract_z
_atom_type_partial_charge
C1    C     C_R   0.501950 0.737059 0.499245 0.790861
C2    C     C_R   0.441569 0.494250 0.974993 0.092133
C3    C     C_R   0.473054 0.464448 0.869610 0.051759
C4    C     C_R   0.544225 0.469510 0.028962 -0.004422
C5    C     C_R   0.684035 0.433422 0.974495 0.076818
C6    C     C_R   0.709118 0.391541 0.873991 -0.240133
C7    C     C_R   0.600883 0.398710 0.824811 -0.218589
C8    C     C_R   0.510794 0.475716 0.136088 0.523161
C9    C     C_R   0.763955 0.472126 0.125901 -0.086092
C10   C     C_R   0.380433 0.507291 0.811783 -0.145300
C11   C     C_R   0.486418 0.934249 0.413613 0.031832
C12   C     C_R   0.423284 0.498738 0.699025 0.769878
C13   C     C_R   0.509666 0.870156 0.496040 -0.062343
C14   C     C_R   0.552770 0.936712 0.571744 -0.170431
C15   C     C_R   0.548774 0.066049 0.572553 -0.227201
C16   C     C_R   0.500949 0.128828 0.498054 -0.080508
C17   C     C_R   0.481525 0.061724 0.414696 0.035863
C18   C     C_3   0.364498 0.061147 0.361818 -0.248108
C19   C     C_3   0.372683 0.918683 0.358843 -0.246207
C20   C     C_R   0.912648 0.397964 0.529371 0.139626
C21   C     C_R   0.934792 0.606533 0.486483 0.650745
C22   C     C_R   0.081913 0.606343 0.487569 -0.185711
C23   C     C_R   0.499488 0.262595 0.498831 0.776529
C24   C     C_R   0.058686 0.398378 0.530106 0.240433
C25   C     C_3   0.079336 0.272515 0.485733 -0.505213
C26   C     C_3   0.922814 0.271851 0.483948 -0.462063
C27   C     C_R   0.577150 0.496785 0.300135 0.824580
C28   C     C_R   0.794027 0.435876 0.023120 -0.271173
C29   C     C_R   0.619350 0.483889 0.186054 -0.194564
C30   C     C_R   0.256010 0.575460 0.861566 -0.018430
C31   C     C_R   0.223510 0.597132 0.966172 -0.237117
C32   C     C_R   0.316157 0.559977 0.021073 -0.131241
Cu1   Cu    Cu3+1 0.359330 0.500020 0.500010 0.967336
Cu2   Cu    Cu3+1 0.640670 0.499980 0.499990 0.988249
H1    H     H_    0.576845 0.116549 0.633523 0.131817
H2    H     H_    0.260685 0.090542 0.413850 0.144881
H3    H     H_    0.273031 0.873057 0.407842 0.147276
H4    H     H_    0.143116 0.692035 0.473166 0.165030
H5    H     H_    0.157785 0.273906 0.408573 0.210729
H6    H     H_    0.100028 0.204807 0.541051 0.190365
H7    H     H_    0.909600 0.270885 0.405257 0.207919
H8    H     H_    0.811060 0.350691 0.834130 0.136227
H9    H     H_    0.854449 0.202912 0.537638 0.203211
H10   H     H_    0.903708 0.414290 0.980768 0.150145
H11   H     H_    0.296795 0.596077 0.097032 0.207782
H12   H     H_    0.132580 0.653645 0.003665 0.153431
H13   H     H_    0.621745 0.354966 0.750732 0.168540
H14   H     H_    0.581994 0.888871 0.632722 0.140716
N1    N     N_R   0.852320 0.499070 0.499340 -0.227065
N2    N     N_R   0.148230 0.499110 0.499340 -0.208156
O1    O     O_R   0.381190 0.680360 0.500000 -0.598772
O2    O     O_R   0.618780 0.680320 0.499990 -0.499320
O3    O     O_R   0.323230 0.500000 0.650990 -0.564349
O4    O     O_R   0.560820 0.499960 0.650980 -0.593203
O5    O     O_R   0.381220 0.319680 0.500010 -0.581336
O6    O     O_R   0.618810 0.319640 0.500000 -0.589496
O7    O     O_R   0.439180 0.500040 0.349020 -0.519573
O8    O     O_R   0.676770 0.500000 0.349010 -0.567017
C33   C     C_R   0.884634 0.501096 0.167430 0.181347
C34   C     C_R   0.912371 0.624481 0.188867 -0.123403
C35   C     C_R   0.019674 0.653250 0.235526 -0.150159
C36   C     C_R   0.099402 0.559040 0.260898 -0.078996
C37   C     C_R   0.070563 0.435753 0.241113 -0.062637
C38   C     C_R   0.964251 0.406393 0.193303 -0.177744
H15   H     H_    0.850228 0.698092 0.170657 0.103041
H16   H     H_    0.039663 0.748180 0.252910 0.147248
H17   H     H_    0.186118 0.582544 0.293675 0.193507
H18   H     H_    0.131039 0.363106 0.262198 0.176210
H19   H     H_    0.941732 0.310605 0.178766 0.109927
C39   C     C_R   0.403865 0.124310 0.257409 0.194429
C40   C     C_R   0.547784 0.132873 0.194874 -0.110496
C41   C     C_R   0.576798 0.160063 0.090479 -0.129789
C42   C     C_R   0.463505 0.181805 0.047978 -0.088170
C43   C     C_R   0.321386 0.181153 0.110370 -0.080971
C44   C     C_R   0.291568 0.152014 0.214432 -0.139549
H20   H     H_    0.637009 0.110496 0.224755 0.114886
H21   H     H_    0.687076 0.161683 0.042025 0.129533
H22   H     H_    0.485825 0.199931 0.966735 0.129306
H23   H     H_    0.233853 0.199139 0.077443 0.115957
H24   H     H_    0.179996 0.142479 0.259840 0.092942
C45   C     C_R   0.421658 0.863112 0.251590 0.186916
C46   C     C_R   0.325684 0.865807 0.190740 -0.145787
C47   C     C_R   0.372807 0.839090 0.086172 -0.153494
C48   C     C_R   0.514547 0.802800 0.042001 -0.104378
C49   C     C_R   0.609060 0.792960 0.102522 -0.166672
C50   C     C_R   0.563413 0.822644 0.207033 -0.150299
H25   H     H_    0.216942 0.897837 0.222971 0.114134
H26   H     H_    0.299381 0.846939 0.039305 0.127836
H27   H     H_    0.550842 0.781423 0.960980 0.130751
H28   H     H_    0.718563 0.764734 0.067286 0.129281
H29   H     H_    0.640221 0.818587 0.251479 0.121635
F1    F     F_    0.881061 0.714965 0.466494 -0.680258
F2    F     F_    0.373378 0.454375 0.191645 -0.716699
C51   C     C_R   0.170880 0.643704 0.805142 0.141728
C52   C     C_R   0.041292 0.593134 0.793859 -0.104284
C53   C     C_R   0.959207 0.659739 0.743204 -0.145230
C54   C     C_R   0.007238 0.776580 0.702385 -0.125724
C55   C     C_R   0.137641 0.826676 0.711857 -0.134043
C56   C     C_R   0.219056 0.760789 0.763543 -0.143207
H30   H     H_    0.005588 0.501743 0.822764 0.109205
H31   H     H_    0.859212 0.620278 0.734629 0.144064
H32   H     H_    0.944186 0.827667 0.662476 0.149715
H33   H     H_    0.175502 0.916591 0.679337 0.128699
H34   H     H_    0.319443 0.800688 0.771146 0.104952

loop_
_geom_bond_atom_site_label_1
_geom_bond_atom_site_label_2
_ccdc_geom_bond_type
C18   C39   S    
Cu2   O6    S    
C27   C29   S    
C42   C43   A    
C52   C53   A    
C4    C8    A    
C21   N1    A    
C45   C46   A    
C23   O6    A    
C49   C50   A    
C11   C19   S    
C33   C38   A    
C20   N1    A    
C36   H17   S    
C8    C29   A    
C3    C7    A    
C50   H29   S    
C25   H6    S    
C40   H20   S    
C46   H25   S    
C22   H4    S    
C54   C55   A    
C2    C32   A    
C18   C19   S    
C32   H11   S    
C19   H3    S    
C35   H16   S    
C20   C24   A    
C16   C17   A    
C31   H12   S    
C55   H33   S    
C54   H32   S    
C42   H22   S    
C39   C40   A    
C13   C14   A    
C44   H24   S    
C12   O3    A    
C9    C29   A    
C22   N2    A    
C47   H26   S    
C33   C34   A    
C21   C22   A    
C24   N2    A    
C35   C36   A    
C15   H1    S    
C26   H9    S    
C17   C18   S    
Cu1   O3    S    
C43   C44   A    
C24   C25   S    
C27   O7    A    
C52   H30   S    
C41   C42   A    
C14   H14   S    
C25   C26   S    
C28   H10   S    
C34   C35   A    
C9    C33   S    
C7    H13   S    
C2    C4    A    
C41   H21   S    
C5    C28   A    
C10   C30   A    
C47   C48   A    
C30   C31   A    
C53   C54   A    
C36   C37   A    
Cu1   Cu2   S    
Cu1   O5    S    
C38   H19   S    
C48   C49   A    
C1    O1    A    
C10   C12   S    
C34   H15   S    
Cu2   O4    S    
C16   C23   S    
C43   H23   S    
C1    C13   S    
C48   H27   S    
C37   H18   S    
C11   C17   A    
Cu2   N1    S    
Cu1   O7    S    
C31   C32   A    
C8    F2    S    
C45   C50   A    
C4    C5    A    
C27   O8    A    
C49   H28   S    
C23   O5    A    
C6    C7    A    
Cu1   O1    S    
Cu2   O2    S    
C2    C3    A    
Cu1   N2    S    
C40   C41   A    
C30   C51   S    
C3    C10   A    
C19   C45   S    
C25   H5    S    
C11   C13   A    
C5    C6    A    
C20   C26   S    
C51   C56   A    
C56   H34   S    
C51   C52   A    
C1    O2    A    
C37   C38   A    
C9    C28   A    
C55   C56   A    
C6    H8    S    
C39   C44   A    
Cu2   O8    S    
C14   C15   A    
C46   C47   A    
C53   H31   S    
C18   H2    S    
C12   O4    A    
C15   C16   A    
C26   H7    S    
C21   F1    S    
