data_mof_unit_52808.cif
_audit_creation_date              2012-12-11T15:10:46-0500
_audit_creation_method            fapswitch 2.2
_symmetry_space_group_name_H-M    P1
_symmetry_Int_Tables_number       1
_space_group_crystal_system       triclinic
_cell_length_a                    21.225614
_cell_length_b                    7.230958
_cell_length_c                    18.255192
_cell_angle_alpha                 89.999845
_cell_angle_beta                  93.15214
_cell_angle_gamma                 90.0
_cell_volume                      2797.59562578

loop_
_atom_site_label
_atom_site_type_symbol
_atom_type_description
_atom_site_fract_x
_atom_site_fract_y
_atom_site_fract_z
_atom_type_partial_charge
O1    O     O_R   0.448880 0.506250 0.415280 -0.523365
O2    O     O_R   0.551120 0.006250 0.584720 -0.523363
O3    O     O_R   0.434830 0.174000 0.557310 -0.528669
O4    O     O_R   0.565170 0.674000 0.442690 -0.528670
C1    C     C_R   0.416998 0.344571 0.579689 0.756873
C2    C     C_R   0.583002 0.844571 0.420311 0.756873
O5    O     O_R   0.441680 0.176440 0.414130 -0.542501
O6    O     O_R   0.558320 0.676440 0.585870 -0.542501
O7    O     O_R   0.558020 0.007570 0.440520 -0.519315
O8    O     O_R   0.441980 0.507570 0.559480 -0.519315
C3    C     C_R   0.427140 0.345216 0.389159 0.775588
C4    C     C_R   0.572859 0.845216 0.610841 0.775587
O9    O     O_3   0.538160 0.339670 0.508820 -0.381076
O10   O     O_3   0.461840 0.839670 0.491180 -0.381076
V1    V     V_3+5 0.492920 0.064260 0.498360 1.392773
V2    V     V_3+5 0.507080 0.564260 0.501640 1.392771
C5    C     C_R   0.880607 0.922320 0.687241 -0.182317
C6    C     C_R   0.119393 0.422307 0.312759 -0.182316
H1    H     H_    0.904704 0.920325 0.636458 0.180182
H2    H     H_    0.095296 0.420306 0.363542 0.180182
C7    C     C_R   0.887819 0.938188 0.819813 -0.194651
C8    C     C_R   0.112181 0.438186 0.180186 -0.194652
C9    C     C_R   0.586044 0.795704 0.742930 -0.183620
C10   C     C_R   0.413957 0.295713 0.257069 -0.183620
C11   C     C_R   0.622047 0.767788 0.807657 -0.116153
C12   C     C_R   0.377953 0.267800 0.192342 -0.116152
C13   C     C_R   0.686677 0.799815 0.810672 -0.029854
C14   C     C_R   0.313323 0.299824 0.189327 -0.029854
C15   C     C_R   0.717007 0.871197 0.749854 0.050398
C16   C     C_R   0.282993 0.371201 0.250146 0.050399
C17   C     C_R   0.680695 0.888337 0.681440 -0.094105
C18   C     C_R   0.319305 0.388336 0.318560 -0.094107
C19   C     C_R   0.783567 0.908498 0.753545 -0.053369
C20   C     C_R   0.216433 0.408498 0.246455 -0.053368
C21   C     C_R   0.814396 0.916967 0.686543 -0.130435
C22   C     C_R   0.185604 0.416960 0.313457 -0.130438
C23   C     C_R   0.778981 0.923579 0.619183 0.392136
C24   C     C_R   0.221018 0.423569 0.380817 0.392138
C25   C     C_R   0.712736 0.932733 0.617747 0.295646
C26   C     C_R   0.287264 0.432728 0.382253 0.295648
C27   C     C_R   0.821182 0.936974 0.820448 0.281982
C28   C     C_R   0.178818 0.436978 0.179552 0.281984
C29   C     C_R   0.917197 0.930103 0.753036 0.372074
C30   C     C_R   0.082803 0.430092 0.246964 0.372076
C31   C     C_R   0.614158 0.851346 0.678999 -0.061903
C32   C     C_R   0.385842 0.351348 0.321000 -0.061903
H3    H     H_    0.536022 0.764736 0.741775 0.108497
H4    H     H_    0.463979 0.264747 0.258224 0.108496
H5    H     H_    0.712759 0.756013 0.859929 0.175445
H6    H     H_    0.287241 0.256026 0.140070 0.175445
H7    H     H_    0.599975 0.714549 0.855400 0.133836
H8    H     H_    0.400026 0.214566 0.144598 0.133836
C33   C     C_1   0.864846 0.938831 0.132512 -0.154439
C34   C     C_1   0.135154 0.438831 0.867488 -0.154441
C35   C     C_1   0.822158 0.924722 0.176483 0.016870
C36   C     C_1   0.177842 0.424722 0.823516 0.016870
C37   C     C_1   0.771721 0.905612 0.228769 0.009362
C38   C     C_1   0.228279 0.405612 0.771231 0.009362
C39   C     C_1   0.729167 0.889034 0.272793 0.006068
C40   C     C_1   0.270833 0.389034 0.727207 0.006068
C41   C     C_1   0.678514 0.869990 0.324795 0.000942
C42   C     C_1   0.321485 0.369990 0.675205 0.000944
C43   C     C_1   0.635493 0.855960 0.368324 -0.191762
C44   C     C_1   0.364507 0.355959 0.631676 -0.191760
O11   O     O_R   0.058070 0.289240 0.940580 -0.529876
O12   O     O_R   0.941930 0.789240 0.059420 -0.529878
O13   O     O_R   0.058330 0.616740 0.085880 -0.531162
O14   O     O_R   0.941670 0.116740 0.914120 -0.531162
C45   C     C_R   0.071917 0.448408 0.111557 0.828362
C46   C     C_R   0.928083 0.948409 0.888444 0.828369
O15   O     O_R   0.065180 0.619040 0.942700 -0.514020
O16   O     O_R   0.934820 0.119040 0.057300 -0.514020
O17   O     O_R   0.948870 0.787780 0.915270 -0.532781
O18   O     O_R   0.051130 0.287780 0.084730 -0.532780
C47   C     C_R   0.083103 0.450300 0.920068 0.727527
C48   C     C_R   0.916897 0.950300 0.079932 0.727528
O19   O     O_3   0.961870 0.453310 0.991210 -0.370920
O20   O     O_3   0.038130 0.953310 0.008790 -0.370919
V3    V     V_3+5 0.007070 0.728770 0.001630 1.512288
V4    V     V_3+5 0.992930 0.228770 0.998370 1.512290
O21   O     O_3   0.982332 0.925885 0.752239 -0.556885
C49   C     C_3   0.004048 0.104627 0.735670 -0.239704
H9    H     H_    0.988439 0.209002 0.775715 0.132170
H10   H     H_    0.988540 0.145971 0.678810 0.140910
H11   H     H_    0.056392 0.103465 0.739309 0.164528
O22   O     O_3   0.017668 0.425865 0.247761 -0.556884
C50   C     C_3   0.995949 0.604607 0.264327 -0.239709
H12   H     H_    0.011551 0.708974 0.224274 0.132173
H13   H     H_    0.011461 0.645969 0.321184 0.140907
H14   H     H_    0.943605 0.603432 0.260695 0.164529
O23   O     O_3   0.809318 0.941325 0.554308 -0.549613
C51   C     C_3   0.808493 0.768116 0.518750 -0.215796
H15   H     H_    0.759551 0.724554 0.501871 0.158149
H16   H     H_    0.832211 0.660062 0.553923 0.121853
H17   H     H_    0.834941 0.780342 0.468231 0.163117
O24   O     O_3   0.190682 0.441312 0.445693 -0.549611
C52   C     C_3   0.191506 0.268099 0.481247 -0.215793
H18   H     H_    0.240448 0.224525 0.498121 0.158140
H19   H     H_    0.167782 0.160054 0.446076 0.121855
H20   H     H_    0.165062 0.280326 0.531771 0.163118
Cl1   Cl    Cl    0.788114 0.009212 0.902848 -0.688527
Cl2   Cl    Cl    0.211886 0.509225 0.097153 -0.688526
O25   O     O_3   0.680093 0.973578 0.552162 -0.566983
C53   C     C_3   0.682612 0.166792 0.541189 -0.139598
H21   H     H_    0.731863 0.217679 0.538243 0.140489
H22   H     H_    0.658563 0.242023 0.584951 0.126322
H23   H     H_    0.657751 0.200501 0.487912 0.159006
O26   O     O_3   0.319906 0.473571 0.447838 -0.566982
C54   C     C_3   0.317387 0.666786 0.458811 -0.139599
H24   H     H_    0.268136 0.717673 0.461756 0.140488
H25   H     H_    0.341437 0.742017 0.415049 0.126322
H26   H     H_    0.342247 0.700495 0.512088 0.159005

loop_
_geom_bond_atom_site_label_1
_geom_bond_atom_site_label_2
_ccdc_geom_bond_type
O14   V4    S    
C16   C18   A    
C50   H12   S    
C9    C31   A    
C13   C15   A    
O1    C3    A    
O16   C48   A    
O2    C4    A    
C2    O7    A    
C53   H22   S    
C52   H18   S    
O5    C3    A    
O12   V3    S    
C21   C23   A    
C10   C12   A    
C6    C30   A    
C54   H25   S    
C37   C39   T    
C38   C40   T    
C15   C19   A    
O26   C54   S    
C40   C42   S    
C41   C43   T    
C42   C44   T    
C19   C21   A    
C7    C29   A    
C14   H6    S    
C8    C30   A    
C17   C25   A    
C14   C16   A    
C20   C28   A    
C36   C38   S    
C8    C45   S    
C20   C22   A    
C26   O26   S    
O5    V1    S    
O6    V2    S    
O11   V4    S    
O18   V4    S    
C30   O22   S    
C28   Cl2   S    
O15   V3    S    
C53   H21   S    
C52   H19   S    
O21   C49   S    
C33   C35   T    
C23   C25   A    
C34   C36   T    
C39   C41   S    
C9    H3    S    
C23   O23   S    
C10   H4    S    
O13   V3    S    
O4    C2    A    
C54   H26   S    
O23   C51   S    
C16   C20   A    
O22   C50   S    
C51   H17   S    
O16   V4    S    
C1    C44   S    
O13   C45   A    
C2    C43   S    
O4    V2    S    
C11   H7    S    
C12   H8    S    
O6    C4    A    
O12   C48   A    
O24   C52   S    
C46   O17   A    
C51   H16   S    
O17   V3    S    
C45   O18   A    
O1    V2    S    
O2    V1    S    
C7    C27   A    
C49   H10   S    
C35   C37   S    
C29   O21   S    
C50   H14   S    
C33   C48   S    
O25   C53   S    
C52   H20   S    
O3    V1    S    
O19   V4    S    
O20   V3    S    
C18   C32   A    
C4    C31   S    
O3    C1    A    
C25   O25   S    
C11   C13   A    
C49   H11   S    
C12   C14   A    
O11   C47   A    
C7    C46   S    
C10   C32   A    
C50   H13   S    
O7    V1    S    
C19   C27   A    
C1    O8    A    
C15   C17   A    
O8    V2    S    
C54   H24   S    
O15   C47   A    
C8    C28   A    
C24   C26   A    
C22   C24   A    
C51   H15   S    
C5    H1    S    
C27   Cl1   S    
C6    H2    S    
C18   C26   A    
C34   C47   S    
C9    C11   A    
O14   C46   A    
C49   H9    S    
C17   C31   A    
O9    V2    S    
C24   O24   S    
C5    C29   A    
O10   V1    S    
C3    C32   S    
C5    C21   A    
C6    C22   A    
C53   H23   S    
C13   H5    S    
