data_mof_unit_62140.cif
_audit_creation_date              2013-03-05T16:41:06-0500
_audit_creation_method            fapswitch 2.2
_symmetry_space_group_name_H-M    P1
_symmetry_Int_Tables_number       1
_space_group_crystal_system       triclinic
_cell_length_a                    28.177715
_cell_length_b                    28.132397
_cell_length_c                    27.745213
_cell_angle_alpha                 90.008772
_cell_angle_beta                  90.030103
_cell_angle_gamma                 90.031914
_cell_volume                      21993.8085589

loop_
_atom_site_label
_atom_site_type_symbol
_atom_site_description
_atom_site_fract_x
_atom_site_fract_y
_atom_site_fract_z
_atom_type_partial_charge
Zn1   Zn    Zn3+2 0.500000 0.943960 0.789960 1.112768
Zn2   Zn    Zn3+2 0.500000 0.056040 0.210040 1.099857
Zn3   Zn    Zn3+2 0.943960 0.500000 0.789960 1.120950
Zn4   Zn    Zn3+2 0.056040 0.500000 0.210040 1.110813
Zn5   Zn    Zn3+2 0.500000 0.056040 0.789960 1.107893
Zn6   Zn    Zn3+2 0.500000 0.943960 0.210040 1.118360
Zn7   Zn    Zn3+2 0.056040 0.500000 0.789960 1.118982
Zn8   Zn    Zn3+2 0.943960 0.500000 0.210040 1.122990
Zn9   Zn    Zn3+2 0.000000 0.443960 0.289960 1.099833
Zn10  Zn    Zn3+2 0.000000 0.556040 0.710040 1.112750
Zn11  Zn    Zn3+2 0.443960 0.000000 0.289960 1.110834
Zn12  Zn    Zn3+2 0.556040 0.000000 0.710040 1.120920
Zn13  Zn    Zn3+2 0.000000 0.556040 0.289960 1.118350
Zn14  Zn    Zn3+2 1.000000 0.443960 0.710040 1.107910
Zn15  Zn    Zn3+2 0.556040 0.000000 0.289960 1.123056
Zn16  Zn    Zn3+2 0.443960 0.000000 0.710040 1.118911
C1    C     C_R   0.195751 0.701762 0.750008 -0.205952
C2    C     C_R   0.801591 0.301011 0.254234 -0.207360
C3    C     C_R   0.698689 0.801201 0.754289 -0.208124
C4    C     C_R   0.300964 0.198586 0.253929 -0.209146
C5    C     C_R   0.804288 0.298213 0.749960 -0.207721
C6    C     C_R   0.201728 0.695746 0.250001 -0.207256
C7    C     C_R   0.301251 0.198751 0.754287 -0.210500
C8    C     C_R   0.695812 0.798317 0.249939 -0.209160
C9    C     C_R   0.199031 0.301404 0.246062 -0.209139
C10   C     C_R   0.801311 0.698799 0.745711 -0.208125
C11   C     C_R   0.698375 0.199021 0.245801 -0.207386
C12   C     C_R   0.304264 0.798216 0.749927 -0.205918
C13   C     C_R   0.804196 0.701693 0.250034 -0.209145
C14   C     C_R   0.198701 0.301207 0.745743 -0.210522
C15   C     C_R   0.298276 0.804251 0.250010 -0.207263
C16   C     C_R   0.695711 0.201789 0.750035 -0.207718
C17   C     C_1   0.233944 0.735890 0.749964 0.219237
C18   C     C_1   0.765124 0.265065 0.251397 0.215139
C19   C     C_1   0.734892 0.765059 0.751395 0.217285
C20   C     C_1   0.264917 0.234779 0.251287 0.211943
C21   C     C_1   0.766072 0.264094 0.749975 0.220391
C22   C     C_1   0.235890 0.733937 0.250001 0.216460
C23   C     C_1   0.265067 0.234905 0.751407 0.214061
C24   C     C_1   0.733965 0.764131 0.249956 0.219503
C25   C     C_1   0.235076 0.265209 0.248701 0.211950
C26   C     C_1   0.765107 0.734941 0.748605 0.217286
C27   C     C_1   0.734832 0.234974 0.248642 0.215128
C28   C     C_1   0.266072 0.764086 0.749954 0.219246
C29   C     C_1   0.766043 0.735881 0.250011 0.219510
C30   C     C_1   0.234874 0.265042 0.748626 0.214044
C31   C     C_1   0.264115 0.766059 0.250012 0.216458
C32   C     C_1   0.733927 0.235908 0.750019 0.220392
O1    O     O_3   0.500000 0.000000 0.750000 -0.560713
O2    O     O_3   0.500000 0.000000 0.250000 -0.558861
O3    O     O_3   1.000000 0.500000 0.750000 -0.560710
O4    O     O_3   0.000000 0.500000 0.250000 -0.558860
O5    O     O_R   0.460660 0.000000 0.643900 -0.608363
O6    O     O_R   0.539340 0.000000 0.356100 -0.608190
O7    O     O_R   1.000000 0.539340 0.643900 -0.608093
O8    O     O_R   1.000000 0.460660 0.356100 -0.628229
O9    O     O_R   0.539340 0.000000 0.643900 -0.607022
O10   O     O_R   0.460660 0.000000 0.356100 -0.610581
O11   O     O_R   0.000000 0.460660 0.643900 -0.612926
O12   O     O_R   1.000000 0.539340 0.356100 -0.589794
O13   O     O_R   0.960660 0.500000 0.143900 -0.608186
O14   O     O_R   0.039340 0.500000 0.856100 -0.608375
O15   O     O_R   0.500000 0.039340 0.143900 -0.628241
O16   O     O_R   0.500000 0.960660 0.856100 -0.608074
O17   O     O_R   0.039340 0.500000 0.143900 -0.610575
O18   O     O_R   0.960660 0.500000 0.856100 -0.607017
O19   O     O_R   0.500000 0.960660 0.143900 -0.589802
O20   O     O_R   0.500000 0.039340 0.856100 -0.612915
O21   O     O_R   0.594350 0.944820 0.722300 -0.596192
O22   O     O_R   0.405650 0.055180 0.277700 -0.607660
O23   O     O_R   0.944820 0.405650 0.722300 -0.595094
O24   O     O_R   0.055180 0.594350 0.277700 -0.604108
O25   O     O_R   0.405650 0.055180 0.722300 -0.597274
O26   O     O_R   0.594350 0.944820 0.277700 -0.584135
O27   O     O_R   0.055180 0.594350 0.722300 -0.594411
O28   O     O_R   0.944820 0.405650 0.277700 -0.606687
O29   O     O_R   0.594350 0.055180 0.277700 -0.592857
O30   O     O_R   0.405650 0.944820 0.722300 -0.589763
O31   O     O_R   0.944820 0.594350 0.277700 -0.608370
O32   O     O_R   0.055180 0.405650 0.722300 -0.608909
O33   O     O_R   0.405650 0.944820 0.277700 -0.590106
O34   O     O_R   0.594350 0.055180 0.722300 -0.589241
O35   O     O_R   0.055180 0.405650 0.277700 -0.594870
O36   O     O_R   0.944820 0.594350 0.722300 -0.607919
O37   O     O_R   0.094350 0.444820 0.222300 -0.607641
O38   O     O_R   0.905650 0.555180 0.777700 -0.596194
O39   O     O_R   0.444820 0.905650 0.222300 -0.604105
O40   O     O_R   0.555180 0.094350 0.777700 -0.595068
O41   O     O_R   0.905650 0.555180 0.222300 -0.584160
O42   O     O_R   0.094350 0.444820 0.777700 -0.597225
O43   O     O_R   0.555180 0.094350 0.222300 -0.606738
O44   O     O_R   0.444820 0.905650 0.777700 -0.594337
O45   O     O_R   0.094350 0.555180 0.777700 -0.589701
O46   O     O_R   0.905650 0.444820 0.222300 -0.592910
O47   O     O_R   0.444820 0.094350 0.777700 -0.608848
O48   O     O_R   0.555180 0.905650 0.222300 -0.608408
O49   O     O_R   0.905650 0.444820 0.777700 -0.589234
O50   O     O_R   0.094350 0.555180 0.222300 -0.590081
O51   O     O_R   0.555180 0.905650 0.777700 -0.607899
O52   O     O_R   0.444820 0.094350 0.222300 -0.594886
C33   C     C_1   0.500003 0.000001 0.930968 -0.047603
C34   C     C_1   0.500007 0.999979 0.069032 -0.047405
C35   C     C_1   0.000024 0.500030 0.930958 -0.044824
C36   C     C_1   0.999976 0.500055 0.069042 -0.045929
C37   C     C_1   0.999993 0.500021 0.430968 -0.047403
C38   C     C_1   0.999997 0.499999 0.569032 -0.047612
C39   C     C_1   0.500024 0.999945 0.430958 -0.045924
C40   C     C_1   0.499976 0.999970 0.569042 -0.044821
C41   C     C_1   0.500006 0.999989 0.974495 0.083587
C42   C     C_1   0.500008 0.999977 0.025505 0.084010
C43   C     C_1   0.000012 0.500051 0.974491 0.084740
C44   C     C_1   0.999988 0.500063 0.025510 0.084323
C45   C     C_1   0.999992 0.500023 0.474495 0.084010
C46   C     C_1   0.999994 0.500011 0.525505 0.083588
C47   C     C_1   0.500012 0.999937 0.474490 0.084329
C48   C     C_1   0.499988 0.999949 0.525509 0.084744
C49   C     C_R   0.499990 0.999995 0.620899 0.837454
C50   C     C_R   0.500010 0.999972 0.379101 0.844874
C51   C     C_R   0.000000 0.499998 0.620880 0.850840
C52   C     C_R   0.999995 0.500006 0.379120 0.847013
C53   C     C_R   0.999990 0.500027 0.120899 0.844823
C54   C     C_R   0.000010 0.500005 0.879101 0.837485
C55   C     C_R   0.500005 0.999993 0.120880 0.847049
C56   C     C_R   0.500000 0.000002 0.879120 0.850783
C57   C     C_R   0.590992 0.909000 0.749977 0.929890
C58   C     C_R   0.408954 0.091002 0.249867 0.931478
C59   C     C_R   0.908996 0.409020 0.749995 0.948142
C60   C     C_R   0.090956 0.591027 0.250042 0.942895
C61   C     C_R   0.409003 0.091011 0.749961 0.928407
C62   C     C_R   0.591031 0.909031 0.249992 0.938117
C63   C     C_R   0.091029 0.590967 0.749987 0.946635
C64   C     C_R   0.908845 0.409218 0.250204 0.942180
C65   C     C_R   0.591155 0.090780 0.249795 0.942370
C66   C     C_R   0.408970 0.909032 0.750013 0.946493
C67   C     C_R   0.908968 0.590969 0.250008 0.938041
C68   C     C_R   0.090996 0.408990 0.750038 0.928584
C69   C     C_R   0.409044 0.908973 0.249958 0.942935
C70   C     C_R   0.591004 0.090980 0.750005 0.948087
C71   C     C_R   0.091046 0.408997 0.250134 0.931376
C72   C     C_R   0.909008 0.591000 0.750023 0.929884
C73   C     C_R   0.177532 0.684910 0.705913 0.210333
C74   C     C_R   0.849122 0.288404 0.245336 0.207446
C75   C     C_R   0.711763 0.849506 0.753123 0.216858
C76   C     C_R   0.287898 0.150289 0.255697 0.206452
C77   C     C_R   0.821976 0.315541 0.705852 0.212559
C78   C     C_R   0.183171 0.679216 0.294033 0.217114
C79   C     C_R   0.288193 0.150460 0.752565 0.214480
C80   C     C_R   0.679410 0.817022 0.293957 0.219124
C81   C     C_R   0.151043 0.288197 0.249505 0.212644
C82   C     C_R   0.849528 0.712068 0.745887 0.207843
C83   C     C_R   0.710945 0.151151 0.238099 0.219830
C84   C     C_R   0.320099 0.817484 0.705950 0.218584
C85   C     C_R   0.821932 0.684368 0.294142 0.209778
C86   C     C_R   0.150485 0.287943 0.745479 0.205523
C87   C     C_R   0.315773 0.821839 0.294113 0.209100
C88   C     C_R   0.679258 0.183080 0.706017 0.220750
C89   C     C_R   0.650852 0.211599 0.254779 0.207424
C90   C     C_R   0.322537 0.814990 0.794030 0.210366
C91   C     C_R   0.212098 0.349699 0.244255 0.206473
C92   C     C_R   0.788237 0.650494 0.746878 0.216855
C93   C     C_R   0.316820 0.820791 0.205976 0.217132
C94   C     C_R   0.678018 0.184467 0.794144 0.212555
C95   C     C_R   0.820574 0.682954 0.206022 0.219082
C96   C     C_R   0.211781 0.349497 0.747364 0.214583
C97   C     C_R   0.650472 0.787932 0.754113 0.207841
C98   C     C_R   0.348954 0.211797 0.250532 0.212687
C99   C     C_R   0.179859 0.682575 0.794000 0.218690
C100  C     C_R   0.789025 0.348896 0.261845 0.219750
C101  C     C_R   0.349461 0.212034 0.754644 0.205562
C102  C     C_R   0.678098 0.815674 0.205836 0.209765
C103  C     C_R   0.820746 0.316914 0.793980 0.220758
C104  C     C_R   0.184244 0.678148 0.205897 0.209104
C105  C     C_R   0.143838 0.647858 0.705724 0.198758
C106  C     C_R   0.884336 0.323960 0.243225 0.176975
C107  C     C_R   0.676405 0.884720 0.750305 0.182571
C108  C     C_R   0.323175 0.114831 0.253225 0.189693
C109  C     C_R   0.855698 0.352575 0.705695 0.200170
C110  C     C_R   0.145882 0.645913 0.293919 0.190482
C111  C     C_R   0.323575 0.115277 0.749740 0.180824
C112  C     C_R   0.646091 0.854278 0.293833 0.189671
C113  C     C_R   0.115843 0.323484 0.252255 0.167867
C114  C     C_R   0.884989 0.676800 0.748237 0.190718
C115  C     C_R   0.675884 0.115510 0.240745 0.179000
C116  C     C_R   0.353405 0.854769 0.706141 0.194442
C117  C     C_R   0.855653 0.647356 0.294302 0.196374
C118  C     C_R   0.115018 0.323198 0.747850 0.188823
C119  C     C_R   0.352816 0.855535 0.294251 0.194415
C120  C     C_R   0.645941 0.145800 0.706151 0.196013
C121  C     C_R   0.615650 0.176032 0.256879 0.176991
C122  C     C_R   0.356228 0.852044 0.794243 0.198737
C123  C     C_R   0.176823 0.385160 0.246730 0.189688
C124  C     C_R   0.823595 0.615280 0.749695 0.182572
C125  C     C_R   0.354107 0.854095 0.206086 0.190480
C126  C     C_R   0.644296 0.147433 0.794302 0.200177
C127  C     C_R   0.853888 0.645695 0.206157 0.189714
C128  C     C_R   0.176415 0.384698 0.750179 0.180733
C129  C     C_R   0.615010 0.823200 0.751763 0.190719
C130  C     C_R   0.384157 0.176512 0.247789 0.167857
C131  C     C_R   0.146545 0.645296 0.793833 0.194375
C132  C     C_R   0.824098 0.384524 0.259181 0.179077
C133  C     C_R   0.384944 0.176795 0.752268 0.188806
C134  C     C_R   0.644374 0.852684 0.205685 0.196395
C135  C     C_R   0.854064 0.354194 0.793847 0.196017
C136  C     C_R   0.147200 0.644454 0.205754 0.194421
C137  C     C_R   0.128304 0.627922 0.749781 -0.305544
C138  C     C_R   0.871784 0.372131 0.249924 -0.308496
C139  C     C_R   0.627963 0.871747 0.749761 -0.315694
C140  C     C_R   0.371541 0.127901 0.249343 -0.319614
C141  C     C_R   0.871749 0.372046 0.749790 -0.306338
C142  C     C_R   0.127864 0.628339 0.249862 -0.311295
C143  C     C_R   0.372021 0.128258 0.749738 -0.318091
C144  C     C_R   0.628330 0.872111 0.249781 -0.309744
C145  C     C_R   0.128459 0.372095 0.250655 -0.319629
C146  C     C_R   0.872037 0.628253 0.750239 -0.315694
C147  C     C_R   0.628206 0.127876 0.250086 -0.308438
C148  C     C_R   0.371702 0.872066 0.750203 -0.305609
C149  C     C_R   0.871673 0.627893 0.250212 -0.309772
C150  C     C_R   0.127965 0.371733 0.750276 -0.318029
C151  C     C_R   0.372137 0.871660 0.250141 -0.311286
C152  C     C_R   0.628251 0.127954 0.750209 -0.306335
N1    N     N_R   0.194339 0.704375 0.661167 0.262210
O53   O     O_R   0.209891 0.676473 0.627271 -0.211102
O54   O     O_R   0.193785 0.750083 0.654033 -0.258883
N2    N     N_R   0.861424 0.239584 0.236665 0.261932
O55   O     O_R   0.884410 0.227688 0.197831 -0.214384
O56   O     O_R   0.849794 0.206900 0.267669 -0.262269
N3    N     N_R   0.760990 0.862973 0.754741 0.260714
O57   O     O_R   0.777735 0.894161 0.724581 -0.210540
O58   O     O_R   0.788900 0.845288 0.787523 -0.267316
N4    N     N_R   0.238681 0.137152 0.258501 0.261822
O59   O     O_R   0.220801 0.106927 0.227972 -0.219943
O60   O     O_R   0.211655 0.155131 0.291850 -0.268469
N5    N     N_R   0.804592 0.296588 0.661085 0.261322
O61   O     O_R   0.788642 0.324881 0.627711 -0.220493
O62   O     O_R   0.805001 0.250961 0.653412 -0.265296
N6    N     N_R   0.202074 0.696235 0.339009 0.261362
O63   O     O_R   0.173793 0.710252 0.373227 -0.207540
O64   O     O_R   0.247659 0.696202 0.346525 -0.262963
N7    N     N_R   0.238958 0.136975 0.753643 0.260557
O65   O     O_R   0.222424 0.106078 0.723030 -0.213230
O66   O     O_R   0.210820 0.154346 0.786372 -0.271758
N8    N     N_R   0.696578 0.798302 0.338940 0.260321
O67   O     O_R   0.710728 0.826792 0.372989 -0.214333
O68   O     O_R   0.696566 0.752677 0.346629 -0.269984
N9    N     N_R   0.137856 0.238809 0.250460 0.261089
O69   O     O_R   0.108916 0.222914 0.283248 -0.209379
O70   O     O_R   0.153479 0.209892 0.217488 -0.268382
N10   N     N_R   0.862547 0.761469 0.745213 0.261937
O71   O     O_R   0.891722 0.778392 0.777288 -0.216698
O72   O     O_R   0.845543 0.789620 0.712257 -0.264839
N11   N     N_R   0.759393 0.138522 0.228091 0.261846
O73   O     O_R   0.779552 0.103612 0.251043 -0.211604
O74   O     O_R   0.783022 0.160859 0.194775 -0.265291
N12   N     N_R   0.302387 0.799287 0.660947 0.261078
O75   O     O_R   0.287801 0.828164 0.627446 -0.204099
O76   O     O_R   0.302305 0.753758 0.652677 -0.261537
N13   N     N_R   0.804603 0.703310 0.338908 0.261445
O77   O     O_R   0.788639 0.675007 0.372265 -0.219519
O78   O     O_R   0.805077 0.748933 0.346597 -0.267918
N14   N     N_R   0.137464 0.238549 0.744331 0.261851
O79   O     O_R   0.108103 0.221395 0.776069 -0.220774
O80   O     O_R   0.154643 0.210639 0.711267 -0.269645
N15   N     N_R   0.296964 0.804389 0.338889 0.262382
O81   O     O_R   0.325289 0.788284 0.372140 -0.214423
O82   O     O_R   0.251441 0.804919 0.346706 -0.260223
N16   N     N_R   0.696374 0.201823 0.661032 0.260209
O83   O     O_R   0.710426 0.173352 0.626954 -0.215058
O84   O     O_R   0.696422 0.247454 0.653375 -0.266898
N17   N     N_R   0.638549 0.260402 0.263537 0.261909
O85   O     O_R   0.615637 0.272240 0.302433 -0.214500
O86   O     O_R   0.650088 0.293125 0.232540 -0.262057
N18   N     N_R   0.305786 0.795443 0.838763 0.262238
O87   O     O_R   0.290309 0.823287 0.872745 -0.211031
O88   O     O_R   0.306302 0.749720 0.845796 -0.259098
N19   N     N_R   0.261315 0.362832 0.241412 0.261839
O89   O     O_R   0.279210 0.393085 0.271901 -0.219899
O90   O     O_R   0.288326 0.344813 0.208073 -0.268582
N20   N     N_R   0.739010 0.637027 0.745261 0.260713
O91   O     O_R   0.722265 0.605840 0.775422 -0.210537
O92   O     O_R   0.711100 0.654711 0.712479 -0.267319
N21   N     N_R   0.297905 0.803779 0.161002 0.261371
O93   O     O_R   0.326178 0.789775 0.126772 -0.207536
O94   O     O_R   0.252318 0.803804 0.153501 -0.263003
N22   N     N_R   0.695397 0.203427 0.838910 0.261324
O95   O     O_R   0.711341 0.175139 0.872291 -0.220480
O96   O     O_R   0.694991 0.249055 0.846574 -0.265307
N23   N     N_R   0.803388 0.701646 0.161035 0.260295
O97   O     O_R   0.789207 0.673136 0.127016 -0.214344
O98   O     O_R   0.803418 0.747265 0.153308 -0.269907
N24   N     N_R   0.261021 0.362962 0.746206 0.260613
O99   O     O_R   0.277598 0.393922 0.776730 -0.213140
O100  O     O_R   0.289125 0.345496 0.713498 -0.271976
N25   N     N_R   0.637453 0.738531 0.754785 0.261937
O101  O     O_R   0.608278 0.721608 0.722710 -0.216711
O102  O     O_R   0.654456 0.710380 0.787742 -0.264829
N26   N     N_R   0.362141 0.261187 0.249617 0.261103
O103  O     O_R   0.391124 0.277097 0.216876 -0.209345
O104  O     O_R   0.346469 0.290092 0.282577 -0.268483
N27   N     N_R   0.197527 0.700842 0.838993 0.261140
O105  O     O_R   0.212038 0.672014 0.872570 -0.204037
O106  O     O_R   0.197652 0.746387 0.847170 -0.261749
N28   N     N_R   0.740571 0.361552 0.271787 0.261792
O107  O     O_R   0.720435 0.396422 0.248750 -0.211651
O108  O     O_R   0.716916 0.339290 0.305137 -0.265116
N29   N     N_R   0.362463 0.261431 0.755893 0.261883
O109  O     O_R   0.391893 0.278637 0.724251 -0.220664
O110  O     O_R   0.345186 0.289295 0.788943 -0.269890
N30   N     N_R   0.695449 0.796765 0.161066 0.261432
O111  O     O_R   0.711442 0.825091 0.127743 -0.219537
O112  O     O_R   0.694962 0.751149 0.153335 -0.267831
N31   N     N_R   0.803634 0.298166 0.838963 0.260213
O113  O     O_R   0.789589 0.326633 0.873048 -0.215056
O114  O     O_R   0.803581 0.252534 0.846613 -0.266906
N32   N     N_R   0.203067 0.695589 0.161121 0.262386
O115  O     O_R   0.174752 0.711684 0.127857 -0.214411
O116  O     O_R   0.248593 0.695065 0.153321 -0.260262
N33   N     N_R   0.125632 0.630449 0.660660 0.256530
O117  O     O_R   0.107656 0.659760 0.629312 -0.240150
O118  O     O_R   0.128013 0.585386 0.650346 -0.335653
N34   N     N_R   0.932829 0.310979 0.234254 0.261811
O119  O     O_R   0.952192 0.276100 0.257942 -0.198397
O120  O     O_R   0.957162 0.332698 0.201034 -0.336826
N35   N     N_R   0.689826 0.933850 0.751535 0.238450
O121  O     O_R   0.707465 0.951909 0.790814 -0.279302
O122  O     O_R   0.691189 0.958334 0.711788 -0.253795
N36   N     N_R   0.309677 0.065580 0.254483 0.257405
O123  O     O_R   0.282790 0.049628 0.289000 -0.248150
O124  O     O_R   0.323218 0.036804 0.220441 -0.335525
N37   N     N_R   0.873422 0.370428 0.660635 0.255673
O125  O     O_R   0.890876 0.341406 0.628723 -0.251898
O126  O     O_R   0.871180 0.415625 0.650923 -0.337273
N38   N     N_R   0.128756 0.627423 0.338786 0.237878
O127  O     O_R   0.155889 0.600147 0.364733 -0.275850
O128  O     O_R   0.089383 0.643527 0.356987 -0.265213
N39   N     N_R   0.310141 0.066141 0.750397 0.239331
O129  O     O_R   0.292393 0.047695 0.789415 -0.282981
O130  O     O_R   0.308872 0.042061 0.710385 -0.254460
N40   N     N_R   0.627830 0.871593 0.338716 0.235532
O131  O     O_R   0.600684 0.844505 0.364853 -0.289375
O132  O     O_R   0.644066 0.911071 0.356754 -0.257642
N41   N     N_R   0.066995 0.309535 0.253223 0.251245
O133  O     O_R   0.049255 0.286485 0.216775 -0.230899
O134  O     O_R   0.043862 0.310527 0.293771 -0.248440
N42   N     N_R   0.934140 0.690476 0.748737 0.256961
O135  O     O_R   0.950798 0.718725 0.715685 -0.244344
O136  O     O_R   0.962142 0.675595 0.782854 -0.335135
N43   N     N_R   0.688292 0.067110 0.230518 0.231700
O137  O     O_R   0.704696 0.055746 0.188241 -0.269954
O138  O     O_R   0.689244 0.035871 0.265063 -0.270807
N44   N     N_R   0.371100 0.872663 0.661256 0.237193
O139  O     O_R   0.398324 0.846116 0.634659 -0.276193
O140  O     O_R   0.354318 0.912109 0.643719 -0.252525
N45   N     N_R   0.873403 0.629507 0.339366 0.256339
O141  O     O_R   0.890845 0.658539 0.371312 -0.251369
O142  O     O_R   0.871189 0.584300 0.349049 -0.330315
N46   N     N_R   0.065869 0.309517 0.747951 0.257117
O143  O     O_R   0.049353 0.281558 0.714545 -0.249296
O144  O     O_R   0.037729 0.324068 0.782073 -0.337767
N47   N     N_R   0.370797 0.873198 0.339311 0.256572
O145  O     O_R   0.341938 0.890659 0.371335 -0.239746
O146  O     O_R   0.415954 0.870932 0.348892 -0.341041
N48   N     N_R   0.627596 0.128480 0.661278 0.235741
O147  O     O_R   0.600266 0.155485 0.635255 -0.285055
O148  O     O_R   0.643867 0.089079 0.643157 -0.257838
N49   N     N_R   0.567163 0.188988 0.265925 0.261766
O149  O     O_R   0.547777 0.223921 0.242338 -0.198310
O150  O     O_R   0.542861 0.167194 0.299117 -0.337004
N50   N     N_R   0.374490 0.869371 0.839316 0.256590
O151  O     O_R   0.392543 0.840007 0.870568 -0.240100
O152  O     O_R   0.372082 0.914408 0.849737 -0.335537
N51   N     N_R   0.190324 0.434408 0.245431 0.257429
O153  O     O_R   0.217178 0.450340 0.210877 -0.248168
O154  O     O_R   0.176823 0.463203 0.279474 -0.335446
N52   N     N_R   0.810174 0.566150 0.748467 0.238451
O155  O     O_R   0.792535 0.548090 0.709188 -0.279303
O156  O     O_R   0.808811 0.541667 0.788214 -0.253796
N53   N     N_R   0.371218 0.872597 0.161217 0.237867
O157  O     O_R   0.344072 0.899871 0.135282 -0.275811
O158  O     O_R   0.410591 0.856506 0.143005 -0.265255
N54   N     N_R   0.626567 0.129587 0.839364 0.255684
O159  O     O_R   0.609107 0.158613 0.871267 -0.251858
O160  O     O_R   0.628812 0.084392 0.849085 -0.337250
N55   N     N_R   0.872120 0.628344 0.161275 0.235571
O161  O     O_R   0.899273 0.655400 0.135112 -0.289445
O162  O     O_R   0.855851 0.588866 0.143267 -0.257514
N56   N     N_R   0.189862 0.433830 0.749415 0.239238
O163  O     O_R   0.207618 0.452188 0.710357 -0.282802
O164  O     O_R   0.191135 0.457997 0.789373 -0.254624
N57   N     N_R   0.565860 0.809524 0.751262 0.256963
O165  O     O_R   0.549201 0.781274 0.784312 -0.244302
O166  O     O_R   0.537858 0.824406 0.717144 -0.335169
N58   N     N_R   0.433006 0.190460 0.246877 0.251207
O167  O     O_R   0.450721 0.213462 0.283370 -0.230976
O168  O     O_R   0.456179 0.189500 0.206352 -0.248480
N59   N     N_R   0.128782 0.627488 0.838726 0.237102
O169  O     O_R   0.101582 0.654114 0.865267 -0.276004
O170  O     O_R   0.145487 0.588038 0.856329 -0.252770
N60   N     N_R   0.811686 0.432944 0.269305 0.231727
O171  O     O_R   0.795285 0.444395 0.311558 -0.270102
O172  O     O_R   0.810710 0.464105 0.234687 -0.270574
N61   N     N_R   0.434088 0.190495 0.752265 0.257177
O173  O     O_R   0.450549 0.218377 0.785764 -0.249323
O174  O     O_R   0.462272 0.176046 0.718137 -0.337582
N62   N     N_R   0.626647 0.870566 0.160626 0.256315
O175  O     O_R   0.609236 0.841556 0.128641 -0.251383
O176  O     O_R   0.628849 0.915782 0.150986 -0.330331
N63   N     N_R   0.872415 0.371506 0.838721 0.235742
O177  O     O_R   0.899745 0.344494 0.864737 -0.284973
O178  O     O_R   0.856152 0.410907 0.856848 -0.257862
N64   N     N_R   0.129232 0.626781 0.160692 0.256585
O179  O     O_R   0.158101 0.609308 0.128683 -0.239734
O180  O     O_R   0.084079 0.629052 0.151094 -0.341020

loop_
_geom_bond_atom_site_label_1
_geom_bond_atom_site_label_2
_geom_bond_distance
_ccdc_geom_bond_type
C128  N56   1.433139 S    
Zn12  O21   1.921566 S    
C15   C93   1.408105 A    
Zn14  O23   1.921874 S    
C13   C95   1.408088 A    
C126  C152  1.414328 A    
C75   C107  1.407553 A    
C85   N13   1.437272 S    
Zn1   O51   1.922785 S    
Zn13  O31   1.922556 S    
Zn12  O1    1.929909 S    
C118  N46   1.437211 S    
Zn13  O12   1.894324 S    
O7    C51   1.277771 A    
C114  N42   1.437238 S    
Zn14  O11   1.894324 S    
O48   C62   1.272364 A    
N22   O95   1.301201 A    
C67   C149  1.478061 S    
C131  C137  1.412746 A    
C74   N2    1.436965 S    
C19   C26   1.203980 T    
C4    C76   1.408365 A    
N12   O76   1.301194 A    
Zn5   O40   1.921872 S    
C59   C141  1.477260 S    
N7    O65   1.301112 A    
C133  N61   1.437184 S    
N18   O87   1.301252 A    
C9    C91   1.408360 A    
N8    O68   1.301192 A    
O18   C54   1.279039 A    
C10   C92   1.408169 A    
N36   O123  1.301193 A    
C107  C139  1.412815 A    
C87   N15   1.437325 S    
O22   C58   1.273116 A    
N9    O69   1.301145 A    
C100  N28   1.438017 S    
C38   C46   1.207669 T    
Zn5   O1    1.927214 S    
Zn9   O4    1.927494 S    
Zn10  O3    1.927493 S    
O35   C71   1.271193 A    
N50   O151  1.301245 A    
Zn5   O47   1.922556 S    
N10   O72   1.301148 A    
C120  C152  1.412567 A    
C115  C147  1.412055 A    
Zn7   O45   1.920793 S    
N35   O121  1.300699 A    
C65   C147  1.475764 S    
Zn15  O6    1.894682 S    
N11   O73   1.301197 A    
C92   N20   1.438378 S    
Zn16  O1    1.928958 S    
N58   O168  1.300810 A    
C9    C25   1.440441 S    
N39   O130  1.300893 A    
N32   O115  1.301210 A    
O16   C56   1.277771 A    
C12   C28   1.441828 S    
O46   C64   1.269194 A    
C13   C29   1.442876 S    
N56   O164  1.300902 A    
C98   C130  1.405790 A    
Zn7   O14   1.894682 S    
O38   C72   1.270559 A    
C122  N50   1.437044 S    
C128  C150  1.412919 A    
N3    O57   1.301099 A    
C12   C90   1.408571 A    
N62   O175  1.301188 A    
N4    O60   1.301128 A    
O30   C66   1.270389 A    
O40   C70   1.272509 A    
Zn9   O35   1.922785 S    
C101  N29   1.437360 S    
N26   O103  1.301148 A    
N17   O86   1.301137 A    
C8    C80   1.408097 A    
N57   O165  1.301194 A    
C15   C87   1.408575 A    
N55   O161  1.300700 A    
C86   N14   1.437340 S    
C76   N4    1.437182 S    
N15   O82   1.301148 A    
C4    C98   1.405408 A    
C75   N3    1.438375 S    
O19   C55   1.277730 A    
C115  N43   1.434314 S    
Zn4   O37   1.921566 S    
Zn13  O24   1.921872 S    
C110  N38   1.433067 S    
C117  N45   1.437137 S    
C108  C140  1.415526 A    
O34   C70   1.270448 A    
C3    C19   1.442965 S    
N49   O149  1.301099 A    
C96   N24   1.438424 S    
C134  N62   1.437142 S    
C111  N39   1.433121 S    
N44   O139  1.300701 A    
C109  N37   1.437116 S    
C102  C134  1.410018 A    
N39   O129  1.300695 A    
C79   C111  1.407456 A    
C14   C86   1.408745 A    
C88   N16   1.438385 S    
N47   O145  1.301195 A    
C106  C138  1.413005 A    
C87   C119  1.409606 A    
C3    C97   1.408805 A    
C33   C41   1.207669 T    
C73   N1    1.437355 S    
N54   O159  1.301184 A    
C6    C22   1.442148 S    
C132  N60   1.434308 S    
C43   C44   1.415536 S    
N61   O173  1.301206 A    
Zn11  O22   1.921564 S    
C66   C148  1.477504 S    
C82   N10   1.437298 S    
C86   C118  1.409923 A    
N1    O53   1.301238 A    
O52   C58   1.271188 A    
C37   C45   1.207671 T    
C90   C122  1.409549 A    
N48   O147  1.300696 A    
C47   C48   1.415536 S    
N6    O63   1.301112 A    
C78   C110  1.407355 A    
C9    C81   1.405387 A    
N13   O77   1.301204 A    
C112  C144  1.412727 A    
N52   O155  1.300700 A    
Zn2   O2    1.927493 S    
C16   C88   1.407996 A    
C14   C96   1.408143 A    
C6    C78   1.408104 A    
C102  N30   1.437256 S    
N29   O110  1.301156 A    
C16   C94   1.408649 A    
C113  N41   1.431325 S    
C37   C52   1.438517 S    
C61   C143  1.478236 S    
Zn11  O10   1.894203 S    
C8    C102  1.408783 A    
N5    O61   1.301197 A    
Zn8   O4    1.928958 S    
C39   C50   1.438775 S    
C80   N8    1.438358 S    
N37   O126  1.301356 A    
C69   C151  1.477222 S    
N45   O142  1.301363 A    
N46   O144  1.301382 A    
N30   O112  1.301143 A    
N41   O134  1.300809 A    
N28   O108  1.301166 A    
C33   C56   1.438514 S    
N38   O127  1.300710 A    
C36   C44   1.207822 T    
C129  N57   1.437237 S    
O33   C69   1.272206 A    
Zn7   O42   1.921683 S    
C57   C139  1.478108 S    
C104  N32   1.437334 S    
N35   O122  1.300870 A    
N34   O120  1.301285 A    
N25   O101  1.301202 A    
C2    C18   1.443379 S    
Zn10  O27   1.921524 S    
C7    C101  1.408743 A    
C89   N17   1.436922 S    
C76   C108  1.410330 A    
N23   O98   1.301191 A    
N53   O157  1.300708 A    
C93   C125  1.407361 A    
N7    O66   1.301197 A    
Zn9   O8    1.894185 S    
Zn6   O2    1.927218 S    
Zn10  O7    1.894185 S    
N64   O179  1.301198 A    
N16   O84   1.301196 A    
Zn12  O9    1.894203 S    
Zn6   O19   1.894324 S    
N3    O58   1.301195 A    
N40   O132  1.300853 A    
N31   O114  1.301192 A    
N60   O172  1.300770 A    
N26   O104  1.301191 A    
C63   C137  1.477444 S    
Zn1   O16   1.894185 S    
O14   C54   1.279129 A    
Zn2   O15   1.894185 S    
C10   C26   1.442965 S    
O47   C61   1.272294 A    
C136  N64   1.437186 S    
C125  C151  1.412519 A    
C17   C28   1.203300 T    
C40   C49   1.438781 S    
C14   C30   1.442759 S    
O44   C66   1.272375 A    
C18   C27   1.204206 T    
C11   C83   1.408975 A    
N14   O79   1.301232 A    
C96   C128  1.407481 A    
C83   C115  1.409182 A    
C79   N7    1.438386 S    
C11   C89   1.407565 A    
N22   O96   1.301144 A    
O28   C64   1.272402 A    
Zn15  O29   1.920793 S    
C104  C136  1.409607 A    
C103  N31   1.438384 S    
N63   O178  1.300855 A    
Zn2   O43   1.921524 S    
N53   O158  1.300842 A    
N42   O135  1.301195 A    
N18   O88   1.301148 A    
C108  N36   1.437018 S    
C99   C131  1.407114 A    
N20   O91   1.301102 A    
C135  C141  1.412561 A    
N36   O124  1.301372 A    
Zn8   O41   1.921681 S    
C133  C143  1.414689 A    
C120  N48   1.433010 S    
C116  N44   1.432998 S    
O41   C67   1.270070 A    
C77   N5    1.437302 S    
C38   C51   1.438514 S    
N19   O89   1.301197 A    
C127  C149  1.412740 A    
C119  N47   1.437188 S    
N2    O55   1.301245 A    
N50   O152  1.301355 A    
N45   O141  1.301193 A    
N15   O81   1.301203 A    
C82   C114  1.410029 A    
C97   N25   1.437296 S    
C130  N58   1.431321 S    
C105  N33   1.437061 S    
C93   N21   1.438396 S    
C116  C148  1.412783 A    
C68   C150  1.478155 S    
N32   O116  1.301146 A    
N51   O153  1.301186 A    
C90   N18   1.437397 S    
C35   C43   1.207822 T    
N24   O99   1.301133 A    
N33   O118  1.301357 A    
C121  C147  1.412988 A    
C60   C142  1.477233 S    
C58   C140  1.479982 S    
C132  C138  1.412063 A    
Zn9   O28   1.921526 S    
O17   C53   1.279037 A    
C121  N49   1.436445 S    
O50   C60   1.272211 A    
O21   C57   1.270557 A    
C80   C112  1.407496 A    
C15   C31   1.442147 S    
N17   O85   1.301228 A    
Zn3   O38   1.921564 S    
C81   C113  1.405783 A    
C16   C32   1.442136 S    
O23   C59   1.272504 A    
C20   C25   1.202421 T    
C1    C17   1.441827 S    
Zn5   O20   1.894324 S    
O25   C61   1.270277 A    
C88   C120  1.407210 A    
C24   C29   1.203930 T    
C95   N23   1.438350 S    
C91   C123  1.410339 A    
C10   C82   1.408809 A    
Zn8   O46   1.920795 S    
C92   C124  1.407553 A    
C74   C106  1.409799 A    
N43   O137  1.300894 A    
Zn3   O3    1.929910 S    
C83   N11   1.438021 S    
C5    C103  1.407995 A    
C7    C79   1.408090 A    
C5    C77   1.408643 A    
N27   O105  1.301143 A    
C81   N9    1.438296 S    
N12   O75   1.301165 A    
C125  N53   1.433066 S    
Zn13  O4    1.927214 S    
C118  C150  1.414680 A    
Zn3   O49   1.920510 S    
C131  N59   1.432996 S    
N23   O97   1.301107 A    
C95   C127  1.407485 A    
N8    O67   1.301097 A    
C124  N52   1.433139 S    
N44   O140  1.300899 A    
Zn4   O4    1.929909 S    
Zn1   O44   1.921526 S    
N9    O70   1.301185 A    
C129  C139  1.414570 A    
Zn3   O18   1.894203 S    
N21   O94   1.301191 A    
N10   O71   1.301203 A    
N54   O160  1.301356 A    
C45   C46   1.415292 S    
O11   C51   1.277840 A    
C100  C132  1.409163 A    
C134  C144  1.414422 A    
N58   O167  1.300747 A    
O15   C55   1.277880 A    
N59   O169  1.300696 A    
C94   N22   1.437308 S    
O31   C67   1.272374 A    
O32   C68   1.272279 A    
C106  N34   1.436424 S    
C40   C48   1.207822 T    
N56   O163  1.300706 A    
Zn7   O3    1.928954 S    
Zn11  O2    1.929910 S    
C41   C42   1.415292 S    
C123  C145  1.415548 A    
C112  N40   1.433032 S    
N48   O148  1.300858 A    
C71   C145  1.480031 S    
N6    O64   1.301194 A    
O12   C52   1.277730 A    
C103  C135  1.407213 A    
N4    O59   1.301199 A    
N52   O156  1.300873 A    
C101  C133  1.409935 A    
C4    C20   1.440444 S    
C11   C27   1.443373 S    
Zn15  O26   1.921683 S    
C5    C21   1.442136 S    
N1    O54   1.301144 A    
N29   O109  1.301215 A    
N5    O62   1.301145 A    
N57   O166  1.301374 A    
C105  C137  1.414509 A    
O45   C63   1.270368 A    
C35   C54   1.438781 S    
C122  C148  1.414548 A    
C135  N63   1.433009 S    
N31   O113  1.301093 A    
C64   C138  1.475786 S    
Zn4   O50   1.920508 S    
N37   O125  1.301182 A    
C62   C144  1.478037 S    
O49   C59   1.270445 A    
O20   C56   1.277840 A    
O51   C57   1.272617 A    
C119  C151  1.414424 A    
N41   O133  1.300749 A    
Zn11  O33   1.920510 S    
C110  C142  1.412526 A    
C117  C149  1.414437 A    
O24   C60   1.270734 A    
O13   C53   1.279126 A    
N19   O90   1.301129 A    
N62   O176  1.301363 A    
C97   C129  1.410028 A    
N49   O150  1.301282 A    
Zn4   O17   1.894203 S    
O5    C49   1.279129 A    
N11   O74   1.301160 A    
C111  C143  1.412927 A    
O10   C50   1.279037 A    
Zn15  O2    1.928954 S    
C109  C141  1.414322 A    
Zn16  O5    1.894682 S    
Zn14  O3    1.927218 S    
N51   O154  1.301372 A    
N63   O177  1.300692 A    
Zn14  O32   1.922554 S    
C84   C116  1.407088 A    
O37   C71   1.273135 A    
N64   O180  1.301351 A    
C72   C146  1.478108 S    
Zn8   O13   1.894682 S    
C70   C152  1.477264 S    
C73   C105  1.409533 A    
O8    C52   1.277880 A    
C98   N26   1.438311 S    
O29   C65   1.269183 A    
O39   C69   1.270728 A    
C124  C146  1.412815 A    
N61   O174  1.301370 A    
O27   C63   1.272345 A    
C126  N54   1.437118 S    
C78   N6    1.438394 S    
C130  C140  1.413489 A    
Zn16  O25   1.921681 S    
C2    C74   1.407605 A    
N14   O80   1.301154 A    
C1    C99   1.407921 A    
C2    C100  1.408984 A    
C36   C53   1.438775 S    
N21   O93   1.301108 A    
Zn6   O39   1.921874 S    
N13   O78   1.301142 A    
N55   O162  1.300855 A    
C99   N27   1.438438 S    
N43   O138  1.300753 A    
O42   C68   1.270268 A    
O43   C65   1.272379 A    
C123  N51   1.437009 S    
C94   C126  1.409692 A    
Zn12  O34   1.920508 S    
N47   O146  1.301349 A    
C21   C32   1.203487 T    
N27   O106  1.301197 A    
C39   C47   1.207822 T    
C22   C31   1.203493 T    
C23   C30   1.203861 T    
C107  N35   1.433139 S    
N42   O136  1.301370 A    
C12   C84   1.407908 A    
Zn6   O48   1.922554 S    
O26   C62   1.270059 A    
N20   O92   1.301196 A    
O9    C49   1.279039 A    
C136  C142  1.414432 A    
O6    C50   1.279126 A    
N30   O111  1.301196 A    
Zn16  O30   1.920795 S    
C13   C85   1.408796 A    
N28   O107  1.301211 A    
C3    C75   1.408169 A    
N2    O56   1.301143 A    
C113  C145  1.413515 A    
C127  N55   1.433034 S    
C91   N19   1.437199 S    
N34   O119  1.301112 A    
N25   O102  1.301148 A    
C84   N12   1.438420 S    
N59   O170  1.300887 A    
C85   C117  1.410024 A    
C7    C23   1.442749 S    
Zn10  O36   1.922787 S    
N46   O143  1.301222 A    
C8    C24   1.442874 S    
N24   O100  1.301207 A    
N33   O117  1.301226 A    
C1    C73   1.408541 A    
C89   C121  1.409789 A    
C34   C42   1.207671 T    
N16   O83   1.301094 A    
Zn2   O52   1.922787 S    
N38   O128  1.300843 A    
O36   C72   1.272617 A    
N40   O131  1.300699 A    
C77   C109  1.409693 A    
C114  C146  1.414570 A    
N60   O171  1.300893 A    
Zn1   O1    1.927494 S    
C6    C104  1.408583 A    
C34   C55   1.438517 S    
