data_mof_unit_17971.cif
_audit_creation_date              2012-12-11T16:58:26-0500
_audit_creation_method            fapswitch 2.2
_symmetry_space_group_name_H-M    P1
_symmetry_Int_Tables_number       1
_space_group_crystal_system       triclinic
_cell_length_a                    16.949396
_cell_length_b                    7.297944
_cell_length_c                    16.726409
_cell_angle_alpha                 89.887829
_cell_angle_beta                  100.316074
_cell_angle_gamma                 90.000379
_cell_volume                      2035.53607236

loop_
_atom_site_label
_atom_site_type_symbol
_atom_type_description
_atom_site_fract_x
_atom_site_fract_y
_atom_site_fract_z
_atom_type_partial_charge
O1    O     O_R   0.413450 0.494370 0.415710 -0.535685
O2    O     O_R   0.586550 0.994370 0.584290 -0.537172
O3    O     O_R   0.578420 0.819350 0.429360 -0.540968
O4    O     O_R   0.421580 0.319350 0.570640 -0.538995
C1    C     C_R   0.605075 0.657058 0.414271 0.693589
C2    C     C_R   0.394965 0.156819 0.585742 0.701287
O5    O     O_R   0.413570 0.823780 0.406240 -0.539127
O6    O     O_R   0.586430 0.323780 0.593760 -0.540465
O7    O     O_R   0.420530 0.998740 0.561000 -0.534458
O8    O     O_R   0.579470 0.498740 0.439000 -0.535961
C3    C     C_R   0.386113 0.655788 0.384057 0.690258
C4    C     C_R   0.613580 0.155268 0.616353 0.689668
O9    O     O_3   0.502480 0.662320 0.550800 -0.377676
O10   O     O_3   0.497520 0.162320 0.449200 -0.378293
V1    V     V_3+5 0.499540 0.935370 0.490580 1.386478
V2    V     V_3+5 0.500460 0.435370 0.509420 1.385908
C5    C     C_R   0.692746 0.998897 0.739952 0.021750
C6    C     C_R   0.248542 0.542198 0.323557 0.026975
C7    C     C_R   0.681997 0.146677 0.685414 -0.086019
C8    C     C_R   0.315652 0.649185 0.317410 -0.081048
C9    C     C_R   0.741435 0.283702 0.695968 -0.191183
C10   C     C_R   0.311993 0.755170 0.246320 -0.186157
H1    H     H_    0.735234 0.398271 0.654425 0.125268
H2    H     H_    0.361504 0.843983 0.239355 0.128940
C11   C     C_R   0.810469 0.269164 0.757445 -0.222879
C12   C     C_R   0.246302 0.739050 0.181331 -0.191698
H3    H     H_    0.855722 0.374504 0.763643 0.144211
H4    H     H_    0.247465 0.812691 0.125436 0.124071
C13   C     C_R   0.821800 0.117925 0.810204 -0.115591
C14   C     C_R   0.181429 0.621122 0.186129 -0.115998
C15   C     C_R   0.763854 0.980451 0.796385 0.129103
C16   C     C_R   0.183673 0.525862 0.259756 0.108405
C17   C     C_3   0.772288 0.782478 0.774677 0.254160
C18   C     C_3   0.171628 0.327465 0.281298 0.250511
C19   C     C_3   0.688942 0.799081 0.721495 -0.454053
C20   C     C_3   0.242113 0.351157 0.352754 -0.456914
H5    H     H_    0.639779 0.731855 0.746620 0.168169
H6    H     H_    0.296066 0.267046 0.349551 0.185595
H7    H     H_    0.686594 0.768060 0.656018 0.167573
H8    H     H_    0.225567 0.349121 0.414152 0.139453
C21   C     C_R   0.331269 0.160375 0.636347 -0.061808
C22   C     C_R   0.668669 0.661450 0.363508 -0.062995
C23   C     C_R   0.167663 0.109126 0.863269 -0.059665
C24   C     C_R   0.832791 0.607746 0.137277 -0.059822
C25   C     C_R   0.276183 0.937634 0.819113 -0.192014
C26   C     C_R   0.726660 0.432333 0.184058 -0.193186
C27   C     C_R   0.222512 0.962021 0.872618 -0.158757
C28   C     C_R   0.779902 0.457005 0.130173 -0.164878
C29   C     C_R   0.168850 0.234797 0.799775 -0.241573
C30   C     C_R   0.830129 0.736395 0.199057 -0.241459
C31   C     C_R   0.222393 0.209808 0.744949 0.156317
C32   C     C_R   0.776992 0.711162 0.254291 0.157316
C33   C     C_R   0.276229 0.059323 0.754380 0.155401
C34   C     C_R   0.725064 0.557338 0.247003 0.155878
C35   C     C_R   0.329812 0.034350 0.699619 -0.239336
C36   C     C_R   0.671745 0.532327 0.302037 -0.240978
C37   C     C_R   0.276502 0.307625 0.626978 -0.165144
C38   C     C_R   0.721720 0.811901 0.370889 -0.163533
C39   C     C_R   0.222570 0.331671 0.680276 -0.191318
C40   C     C_R   0.775320 0.836187 0.317256 -0.192627
H9    H     H_    0.372346 0.921975 0.708214 0.120647
H10   H     H_    0.630642 0.417261 0.294992 0.121730
H11   H     H_    0.276349 0.406957 0.578716 0.121103
H12   H     H_    0.720776 0.913589 0.417822 0.123264
H13   H     H_    0.317008 0.822104 0.827871 0.120061
H14   H     H_    0.687351 0.314117 0.176965 0.120868
H15   H     H_    0.181782 0.447270 0.671522 0.118239
H16   H     H_    0.814664 0.954355 0.324401 0.118591
H17   H     H_    0.222981 0.863040 0.921074 0.123365
H18   H     H_    0.780532 0.355504 0.083104 0.128341
H19   H     H_    0.126273 0.347099 0.791173 0.120197
H20   H     H_    0.871223 0.851489 0.206026 0.121037
O11   O     O_R   0.920630 0.775410 0.061150 -0.530655
O12   O     O_R   0.079370 0.275410 0.938850 -0.530630
O13   O     O_R   0.086500 0.441450 0.093690 -0.536389
O14   O     O_R   0.913500 0.941450 0.906310 -0.531725
C41   C     C_R   0.113246 0.609621 0.116782 0.685721
C42   C     C_R   0.888167 0.109957 0.881766 0.684223
O15   O     O_R   0.921670 0.445960 0.070740 -0.539765
O16   O     O_R   0.078330 0.945960 0.929260 -0.538311
O17   O     O_R   0.913380 0.271130 0.915780 -0.540925
O18   O     O_R   0.086620 0.771130 0.084220 -0.535729
C43   C     C_R   0.895819 0.612657 0.085859 0.691660
C44   C     C_R   0.104239 0.112914 0.914225 0.689078
O19   O     O_3   0.997500 0.603030 0.949220 -0.386109
O20   O     O_3   0.002500 0.103030 0.050780 -0.385860
V3    V     V_3+5 0.000470 0.329940 0.009420 1.351160
V4    V     V_3+5 0.999530 0.829940 0.990580 1.360890
C45   C     C_3   0.773831 0.647240 0.847172 -0.309801
C46   C     C_3   0.733362 0.717818 0.916179 -0.780788
H21   H     H_    0.767168 0.835276 0.947528 0.229990
H22   H     H_    0.670597 0.760290 0.892749 0.220953
H23   H     H_    0.732309 0.606802 0.961412 0.211199
H24   H     H_    0.741661 0.520705 0.824574 0.188283
H25   H     H_    0.836165 0.609854 0.874158 0.209942
C47   C     C_3   0.190272 0.181585 0.219349 -0.283948
C48   C     C_3   0.260819 0.227832 0.176110 -0.746428
H26   H     H_    0.243930 0.335257 0.129422 0.226282
H27   H     H_    0.314802 0.272295 0.219246 0.224316
H28   H     H_    0.277670 0.106710 0.143509 0.197422
H29   H     H_    0.203753 0.050973 0.253019 0.176277
H30   H     H_    0.136757 0.155482 0.172220 0.206082
C49   C     C_3   0.834633 0.750547 0.716898 -0.391311
C50   C     C_3   0.923537 0.745227 0.754519 -0.697930
H31   H     H_    0.946265 0.883989 0.772504 0.222638
H32   H     H_    0.935675 0.648475 0.805896 0.236445
H33   H     H_    0.957912 0.696674 0.708011 0.189791
H34   H     H_    0.820429 0.622162 0.682893 0.164783
H35   H     H_    0.827430 0.859745 0.669534 0.185022
C51   C     C_3   0.092256 0.292449 0.313067 -0.420409
C52   C     C_3   0.016573 0.327962 0.250356 -0.697657
H36   H     H_    0.015130 0.472057 0.228925 0.207620
H37   H     H_    0.012788 0.232964 0.198337 0.241915
H38   H     H_    0.962981 0.304940 0.278760 0.204914
H39   H     H_    0.091395 0.148383 0.334615 0.180286
H40   H     H_    0.089065 0.382522 0.366008 0.183182

loop_
_geom_bond_atom_site_label_1
_geom_bond_atom_site_label_2
_ccdc_geom_bond_type
C14   C16   A    
C1    C22   S    
C45   H25   S    
C47   H30   S    
C52   H36   S    
O1    C3    A    
O16   C44   A    
C24   C43   S    
O2    C4    A    
C22   C38   A    
C2    O7    A    
O15   V3    S    
C48   H26   S    
O5    C3    A    
O14   C42   A    
C10   H2    S    
C19   H5    S    
C18   C47   S    
C26   H14   S    
C17   C19   S    
C37   C39   A    
C38   C40   A    
C25   C27   A    
C45   H24   S    
C30   H20   S    
C51   C52   S    
C27   H17   S    
C32   C40   A    
C22   C36   A    
C14   C41   S    
C21   C35   A    
C13   C42   S    
C29   C31   A    
C2    C21   S    
C30   C32   A    
C15   C17   S    
C49   H34   S    
O12   V3    S    
O14   V4    S    
C18   C20   S    
C39   H15   S    
O5    V1    S    
C25   C33   A    
O6    V2    S    
C47   H29   S    
C38   H12   S    
C23   C44   S    
C50   H32   S    
C50   H31   S    
C48   H27   S    
C32   C34   A    
C37   H11   S    
C26   C28   A    
C33   C35   A    
C11   C13   A    
C34   C36   A    
C3    C8    S    
C20   H8    S    
O4    C2    A    
O12   C44   A    
O20   V3    S    
C23   C29   A    
C31   C33   A    
C16   C18   S    
O4    V2    S    
C19   H7    S    
O11   V4    S    
C17   C45   S    
C46   H22   S    
O6    C4    A    
C47   C48   S    
C26   C34   A    
C52   H37   S    
O1    V2    S    
O2    V1    S    
O13   C41   A    
O17   V3    S    
O13   V3    S    
C8    C10   A    
C12   C14   A    
C9    H1    S    
C25   H13   S    
C5    C15   A    
C36   H10   S    
C6    C16   A    
C51   H40   S    
C48   H28   S    
O3    V1    S    
C46   H23   S    
O19   V4    S    
C24   C30   A    
C9    C11   A    
C7    C9    A    
C17   C49   S    
C28   H18   S    
O3    C1    A    
C11   H3    S    
C12   H4    S    
C49   H35   S    
C20   H6    S    
O7    V1    S    
C21   C37   A    
C1    O8    A    
C13   C15   A    
O8    V2    S    
O15   C43   A    
C42   O17   A    
C46   H21   S    
C23   C27   A    
C41   O18   A    
O18   V4    S    
C35   H9    S    
C4    C7    S    
C5    C7    A    
C52   H38   S    
C6    C8    A    
C10   C12   A    
C31   C39   A    
C40   H16   S    
O16   V4    S    
C29   H19   S    
O9    V2    S    
C49   C50   S    
O10   V1    S    
C5    C19   S    
C18   C51   S    
C45   C46   S    
C6    C20   S    
C51   H39   S    
O11   C43   A    
C50   H33   S    
C24   C28   A    
