data_mof_unit_64389.cif
_audit_creation_date              2012-10-26T21:09:53-0400
_audit_creation_method            fapswitch 2.2
_symmetry_space_group_name_H-M    P1
_symmetry_Int_Tables_number       1
_space_group_crystal_system       triclinic
_cell_length_a                    16.022283
_cell_length_b                    14.787694
_cell_length_c                    19.295892
_cell_angle_alpha                 90.00868
_cell_angle_beta                  89.974403
_cell_angle_gamma                 90.050768
_cell_volume                      4571.82390864

loop_
_atom_site_label
_atom_site_type_symbol
_atom_type_description
_atom_site_fract_x
_atom_site_fract_y
_atom_site_fract_z
_atom_type_partial_charge
C1    C     C_R   0.341024 0.500002 0.500034 0.533520
C2    C     C_R   0.500687 0.048470 0.563405 0.018468
C3    C     C_R   0.501398 0.902921 0.499993 -0.090989
C4    C     C_R   0.498602 0.097079 0.500007 -0.090988
C5    C     C_1   0.500471 0.802457 0.499998 0.109489
C6    C     C_1   0.499529 0.197543 0.500002 0.109493
C7    C     C_R   0.499976 0.499994 0.367255 0.500049
C8    C     C_R   0.500024 0.500006 0.632745 0.500049
C9    C     C_R   0.436872 0.547363 0.254714 -0.009816
C10   C     C_R   0.563128 0.452637 0.745286 -0.009818
C11   C     C_R   0.436987 0.547417 0.745354 -0.010107
C12   C     C_R   0.658976 0.499997 0.499967 0.533519
C13   C     C_R   0.563014 0.452583 0.254646 -0.010109
C14   C     C_R   0.436178 0.545624 0.181680 0.103615
C15   C     C_R   0.563823 0.454376 0.818319 0.103614
C16   C     C_R   0.436300 0.545671 0.818385 0.103518
C17   C     C_R   0.563700 0.454328 0.181615 0.103518
C18   C     C_R   0.499940 0.499982 0.145710 -0.007252
C19   C     C_R   0.500060 0.500018 0.854290 -0.007252
C20   C     C_R   0.499953 0.499980 0.290982 -0.085871
C21   C     C_R   0.500048 0.500020 0.709018 -0.085871
C22   C     C_R   0.500048 0.500004 0.930060 0.358320
C23   C     C_1   0.822604 0.498954 0.499843 -0.077008
C24   C     C_R   0.499953 0.499996 0.069940 0.358320
C25   C     C_R   0.955919 0.507023 0.436413 0.031300
C26   C     C_R   0.044081 0.492969 0.563591 0.031305
C27   C     C_R   0.044262 0.507583 0.436493 0.030543
C28   C     C_R   0.955737 0.492409 0.563511 0.030540
C29   C     C_R   0.912588 0.497698 0.499802 -0.056319
C30   C     C_R   0.087412 0.502298 0.500202 -0.056315
C31   C     C_2   0.370081 0.594796 0.294001 0.296552
C32   C     C_2   0.629919 0.405204 0.705998 0.296552
C33   C     C_2   0.370208 0.594882 0.706142 0.295707
C34   C     C_1   0.177396 0.501044 0.500161 -0.076991
C35   C     C_2   0.629792 0.405118 0.293858 0.295710
C36   C     C_2   0.092992 0.509192 0.370604 0.317885
C37   C     C_2   0.907008 0.490792 0.629401 0.317869
C38   C     C_2   0.907376 0.520476 0.371281 0.318427
C39   C     C_2   0.092625 0.479505 0.628720 0.318447
C40   C     C_2   0.507639 0.100766 0.629157 0.325188
C41   C     C_2   0.492361 0.899234 0.370843 0.325186
C42   C     C_2   0.505766 0.100707 0.370769 0.325096
C43   C     C_2   0.494235 0.899293 0.629231 0.325093
C44   C     C_1   0.252240 0.500236 0.500103 -0.016750
C45   C     C_1   0.747760 0.499764 0.499899 -0.016761
C46   C     C_R   0.500232 0.951559 0.563409 0.018548
C47   C     C_R   0.499768 0.048441 0.436591 0.018548
C48   C     C_R   0.499313 0.951530 0.436595 0.018468
Cu1   Cu    Cu3+1 0.500000 0.589220 0.500000 1.025797
Cu2   Cu    Cu3+1 0.500000 0.410780 0.500000 1.025804
H1    H     H_    0.345250 0.565144 0.341157 0.098365
H2    H     H_    0.523426 0.834400 0.365645 0.122492
H3    H     H_    0.474630 0.165540 0.365905 0.122146
H4    H     H_    0.525368 0.834459 0.634094 0.122146
H5    H     H_    0.654750 0.434857 0.658842 0.098361
H6    H     H_    0.345330 0.565226 0.659016 0.098561
H7    H     H_    0.654670 0.434774 0.340984 0.098560
H8    H     H_    0.152292 0.544583 0.368131 0.115195
H9    H     H_    0.847692 0.455431 0.631865 0.115194
H10   H     H_    0.848166 0.486063 0.363984 0.112391
H11   H     H_    0.151820 0.513942 0.636029 0.112391
H12   H     H_    0.476573 0.165599 0.634355 0.122493
I1    I     I_    0.334294 0.602835 0.124148 -0.059088
I2    I     I_    0.665706 0.397165 0.875852 -0.059085
I3    I     I_    0.334419 0.602886 0.876011 -0.062955
I4    I     I_    0.665582 0.397114 0.123990 -0.062949
N1    N     N_R   0.483072 0.422963 0.034455 -0.160488
N2    N     N_R   0.516929 0.577037 0.965545 -0.160488
N3    N     N_R   0.483116 0.422968 0.965518 -0.160628
N4    N     N_R   0.516884 0.577032 0.034482 -0.160628
N5    N     N_1   0.500000 0.276710 0.500000 -0.179743
N6    N     N_1   0.500000 0.723290 0.500000 -0.179745
O1    O     O_R   0.380310 0.575320 0.500010 -0.487979
O2    O     O_2   0.655079 0.330923 0.723890 -0.418500
O3    O     O_2   0.345116 0.669195 0.724060 -0.418156
O4    O     O_2   0.654884 0.330805 0.275940 -0.418151
O5    O     O_2   0.069456 0.467508 0.319590 -0.411918
O6    O     O_2   0.930563 0.532434 0.680429 -0.411930
O7    O     O_2   0.930960 0.573299 0.326744 -0.412443
O8    O     O_2   0.069058 0.426647 0.673238 -0.412430
O9    O     O_2   0.551359 0.074250 0.676801 -0.396442
O10   O     O_2   0.448644 0.925752 0.323198 -0.396443
O11   O     O_2   0.548787 0.074166 0.322658 -0.396334
O12   O     O_R   0.619690 0.424680 0.499990 -0.487976
O13   O     O_2   0.451217 0.925836 0.677343 -0.396336
O14   O     O_R   0.619690 0.575320 0.499990 -0.483303
O15   O     O_R   0.380310 0.424680 0.500010 -0.483299
O16   O     O_R   0.499990 0.575370 0.400140 -0.489749
O17   O     O_R   0.500010 0.424630 0.599860 -0.489749
O18   O     O_R   0.500010 0.575370 0.599860 -0.489347
O19   O     O_R   0.499990 0.424630 0.400140 -0.489345
O20   O     O_2   0.344922 0.669077 0.276110 -0.418505

loop_
_geom_bond_atom_site_label_1
_geom_bond_atom_site_label_2
_ccdc_geom_bond_type
C1    O15   A    
C23   C45   T    
C7    C20   S    
C14   C18   A    
Cu1   O18   S    
Cu2   N5    S    
Cu2   O12   S    
C2    C46   A    
C15   C19   A    
C17   I4    S    
C18   C24   S    
C23   C29   S    
C28   C29   A    
C13   C35   S    
C5    N6    T    
C36   H8    S    
C36   O5    D    
C42   H3    S    
C32   O2    D    
C26   C39   S    
C38   O7    D    
C41   O10   D    
C3    C48   A    
C40   H12   S    
C12   O12   A    
Cu1   Cu2   S    
C1    C44   S    
C24   N1    A    
C33   O3    D    
C47   C48   A    
Cu1   N6    S    
C15   I2    S    
C41   H2    S    
C33   H6    S    
C27   C30   A    
Cu1   O16   S    
C40   O9    D    
C8    C21   S    
C10   C21   A    
C25   C29   A    
C6    N5    T    
C39   H11   S    
C9    C20   A    
C35   O4    D    
C30   C34   S    
C24   N4    A    
C43   O13   D    
C11   C33   S    
C19   C22   S    
C34   C44   T    
C4    C6    S    
C11   C21   A    
N1    N3    A    
C2    C4    A    
C9    C14   A    
C2    C40   S    
C25   C38   S    
C11   C16   A    
Cu2   O17   S    
C7    O16   A    
C7    O19   A    
C17   C18   A    
C43   H4    S    
C22   N2    A    
C37   H9    S    
Cu2   O15   S    
C38   H10   S    
C26   C30   A    
Cu1   O1    S    
C8    O18   A    
C32   H5    S    
C13   C20   A    
C10   C15   A    
Cu1   O14   S    
C42   O11   D    
C31   H1    S    
C12   C45   S    
C3    C5    S    
C16   I3    S    
C12   O14   A    
C27   C36   S    
C25   C27   A    
C37   O6    D    
C3    C46   A    
C26   C28   A    
C13   C17   A    
C35   H7    S    
C1    O1    A    
C39   O8    D    
C28   C37   S    
C16   C19   A    
C14   I1    S    
C41   C48   S    
C42   C47   S    
C43   C46   S    
C9    C31   S    
C10   C32   S    
Cu2   O19   S    
N2    N4    A    
C31   O20   D    
C22   N3    A    
C8    O17   A    
C4    C47   A    
