data_mof_unit_46332.cif
_audit_creation_date              2012-10-26T19:07:26-0400
_audit_creation_method            fapswitch 2.2
_symmetry_space_group_name_H-M    P1
_symmetry_Int_Tables_number       1
_space_group_crystal_system       triclinic
_cell_length_a                    15.037564
_cell_length_b                    13.888772
_cell_length_c                    10.602269
_cell_angle_alpha                 89.795177
_cell_angle_beta                  87.735601
_cell_angle_gamma                 89.930948
_cell_volume                      2212.5743763

loop_
_atom_site_label
_atom_site_type_symbol
_atom_type_description
_atom_site_fract_x
_atom_site_fract_y
_atom_site_fract_z
_atom_type_partial_charge
C1    C     C_R   0.329129 0.500248 0.497063 0.564133
C2    C     C_R   0.952875 0.568618 0.291744 -0.082834
C3    C     C_R   0.442045 0.794236 0.579430 0.189552
C4    C     C_R   0.558430 0.205340 0.421779 0.186445
C5    C     C_R   0.557498 0.794829 0.420085 0.184705
C6    C     C_R   0.442770 0.205476 0.580817 0.187732
C7    C     C_R   0.549781 0.897257 0.407204 -0.045130
C8    C     C_R   0.449757 0.102781 0.593495 -0.048425
C9    C     C_R   0.449512 0.896517 0.592534 -0.045528
C10   C     C_R   0.550177 0.103211 0.408076 -0.046447
C11   C     C_R   0.499566 0.948510 0.499963 -0.000894
C12   C     C_R   0.670553 0.499694 0.502793 0.543799
C13   C     C_R   0.499630 0.051405 0.500342 -0.004482
C14   C     C_R   0.590320 0.949644 0.304386 0.038274
C15   C     C_R   0.409013 0.050044 0.696083 0.040814
C16   C     C_R   0.409332 0.947945 0.695822 0.036582
C17   C     C_R   0.590970 0.051778 0.305149 0.035937
C18   C     C_R   0.500972 0.500216 0.259432 0.602080
C19   C     C_R   0.500186 0.499817 0.740397 0.588728
C20   C     C_3   0.490555 0.591051 0.040532 -0.089544
C21   C     C_3   0.511645 0.409260 0.958850 -0.076757
C22   C     C_3   0.568074 0.555132 0.953138 -0.079083
C23   C     C_R   0.952432 0.493788 0.499961 0.035298
C24   C     C_3   0.433941 0.445194 0.046198 -0.113423
C25   C     C_3   0.423078 0.535378 0.962276 -0.114130
C26   C     C_3   0.579056 0.465012 0.037105 -0.084858
C27   C     C_3   0.500678 0.499474 0.877227 0.044568
C28   C     C_3   0.501389 0.500791 0.122300 0.035632
C29   C     C_R   0.814402 0.532540 0.401180 -0.130622
C30   C     C_R   0.184922 0.451846 0.587532 -0.105799
C31   C     C_R   0.766799 0.497820 0.506285 -0.007335
C32   C     C_R   0.232380 0.500515 0.492071 -0.015224
C33   C     C_R   0.810248 0.459745 0.610981 0.006804
C34   C     C_R   0.046287 0.495646 0.494286 0.023092
C35   C     C_R   0.187456 0.550255 0.397015 0.038643
C36   C     C_R   0.904688 0.452924 0.606483 0.017216
C37   C     C_R   0.093803 0.540258 0.390743 0.009683
C38   C     C_2   0.755923 0.441178 0.728208 0.590306
C39   C     C_2   0.237205 0.620643 0.316744 0.623447
C40   C     C_2   0.362013 0.746094 0.634745 0.634487
C41   C     C_2   0.640952 0.251844 0.371955 0.639378
C42   C     C_2   0.637580 0.747420 0.363978 0.628810
C43   C     C_2   0.365057 0.254480 0.641043 0.637102
C44   C     C_2   0.618801 0.899212 0.186248 0.611339
C45   C     C_R   0.906537 0.532812 0.398244 -0.002779
C46   C     C_2   0.379515 0.099677 0.814185 0.615524
C47   C     C_2   0.380757 0.896411 0.813653 0.609256
C48   C     C_2   0.621457 0.103977 0.188683 0.617078
C49   C     C_R   0.092633 0.452387 0.592219 -0.002232
C50   C     C_R   0.954204 0.406544 0.701509 0.108736
C51   C     C_R   0.045359 0.570830 0.285100 0.118333
C52   C     C_R   0.046777 0.407778 0.692975 -0.074093
Cu1   Cu    Cu3+1 0.500000 0.597420 0.500000 1.086762
Cu2   Cu    Cu3+1 0.500000 0.402580 0.500000 1.073197
H1    H     H_    0.359037 0.563809 0.929096 0.181821
H2    H     H_    0.916649 0.593054 0.211164 0.153608
H3    H     H_    0.708397 0.314664 0.666774 0.344762
H4    H     H_    0.336695 0.645672 0.189136 0.344614
H5    H     H_    0.229016 0.729416 0.629627 0.352024
H6    H     H_    0.701476 0.339323 0.243533 0.333687
H7    H     H_    0.771506 0.737647 0.361866 0.345187
H8    H     H_    0.313939 0.329621 0.789814 0.322648
H9    H     H_    0.719439 0.861214 0.065288 0.362195
H10   H     H_    0.414437 0.177584 0.964305 0.363415
H11   H     H_    0.280509 0.860406 0.936581 0.366678
H12   H     H_    0.643536 0.437112 0.069058 0.177007
H13   H     H_    0.589988 0.194850 0.048651 0.366535
H14   H     H_    0.482679 0.665816 0.075938 0.203121
H15   H     H_    0.520562 0.334923 0.922460 0.202793
H16   H     H_    0.622272 0.601120 0.912301 0.191237
H17   H     H_    0.379036 0.400226 0.087308 0.166478
H18   H     H_    0.779003 0.559852 0.321220 0.135669
H19   H     H_    0.220330 0.417266 0.662218 0.138649
H20   H     H_    0.083689 0.372267 0.765696 0.155499
I1    I     I_    0.904201 0.319934 0.855574 -0.166702
I2    I     I_    0.099468 0.602332 0.100022 -0.253499
N1    N     N_R   0.500000 0.743810 0.500000 -0.294664
N2    N     N_R   0.500000 0.256190 0.500000 -0.295532
O1    O     O_R   0.370260 0.582280 0.500030 -0.480060
O2    O     O_R   0.701188 0.360162 0.740929 -0.642854
O3    O     O_2   0.215169 0.705447 0.318733 -0.431683
O4    O     O_R   0.309064 0.590457 0.239503 -0.700851
O5    O     O_2   0.366744 0.693639 0.726862 -0.501418
O6    O     O_R   0.279434 0.765495 0.584207 -0.638827
O7    O     O_2   0.711417 0.232275 0.419858 -0.502086
O8    O     O_R   0.640082 0.313655 0.268031 -0.665757
O9    O     O_2   0.632594 0.694239 0.273093 -0.506758
O10   O     O_R   0.720565 0.769839 0.410956 -0.659828
O11   O     O_2   0.291975 0.243941 0.596447 -0.491893
O12   O     O_R   0.629740 0.417720 0.499970 -0.500700
O13   O     O_R   0.373064 0.305492 0.753282 -0.682485
O14   O     O_2   0.563536 0.857436 0.125000 -0.467178
O15   O     O_R   0.708506 0.898576 0.146406 -0.607165
O16   O     O_2   0.300869 0.099646 0.848215 -0.421572
O17   O     O_R   0.442325 0.146063 0.886194 -0.662236
O18   O     O_2   0.435578 0.851836 0.873015 -0.457487
O19   O     O_R   0.291547 0.898617 0.855829 -0.606241
O20   O     O_2   0.698618 0.096876 0.148990 -0.407637
O21   O     O_R   0.561522 0.162236 0.125808 -0.666447
O22   O     O_R   0.629740 0.582280 0.499970 -0.486362
O23   O     O_R   0.370260 0.417720 0.500030 -0.487860
O24   O     O_R   0.499980 0.582260 0.316850 -0.469721
O25   O     O_R   0.500020 0.417740 0.683150 -0.462675
O26   O     O_R   0.500020 0.582260 0.683150 -0.477175
O27   O     O_R   0.499980 0.417740 0.316850 -0.466638
O28   O     O_2   0.758629 0.498270 0.815179 -0.479494

loop_
_geom_bond_atom_site_label_1
_geom_bond_atom_site_label_2
_ccdc_geom_bond_type
C5    C42   S    
C8    C13   A    
C23   C45   A    
C34   C37   A    
C40   O6    S    
Cu2   O23   S    
C35   C39   S    
C40   O5    D    
C17   C48   S    
C21   C26   S    
Cu1   Cu2   S    
C7    C11   A    
C41   O8    S    
C43   O11   D    
C12   O12   A    
Cu1   O1    S    
C9    C16   A    
Cu2   O12   S    
C52   H20   S    
H4    O4    S    
C37   C51   A    
C6    N2    A    
C4    C41   S    
Cu1   O26   S    
C15   C16   A    
C33   C36   A    
C18   O24   A    
C44   O15   S    
C19   O25   A    
C7    C14   A    
C46   O17   S    
C50   C52   A    
C47   O18   D    
C31   C33   A    
C19   C27   S    
C44   O14   D    
H13   O21   S    
C29   H18   S    
C23   C34   A    
C21   C27   S    
C2    C45   A    
C14   C17   A    
C16   C47   S    
Cu1   O22   S    
C26   H12   S    
C32   C35   A    
C25   H1    S    
Cu2   O25   S    
C18   C28   S    
H5    O6    S    
C39   O3    D    
C5    C7    A    
C30   H19   S    
H6    O8    S    
C6    C8    A    
C20   C28   S    
C1    C32   S    
C43   O13   S    
C21   H15   S    
C38   O28   D    
Cu1   N1    S    
C4    N2    A    
C3    C9    A    
H7    O10   S    
C19   O26   A    
C46   O16   D    
Cu1   O24   S    
C49   C52   A    
H8    O13   S    
C24   C25   S    
C9    C11   A    
C30   C49   A    
H3    O2    S    
C3    C40   S    
C8    C15   A    
C6    C43   S    
C12   C31   S    
C22   C26   S    
C1    O1    A    
C42   O10   S    
C4    C10   A    
C3    N1    A    
C1    O23   A    
C36   C50   A    
C14   C44   S    
C48   O21   S    
C34   C49   A    
C39   O4    S    
Cu2   O27   S    
C35   C37   A    
C20   H14   S    
C24   C28   S    
H10   O17   S    
C20   C22   S    
C10   C13   A    
C25   C27   S    
C41   O7    D    
H9    O15   S    
C26   C28   S    
C33   C38   S    
C47   O19   S    
C22   C27   S    
C18   O27   A    
H11   O19   S    
C29   C31   A    
C2    H2    S    
C50   I1    S    
C30   C32   A    
C11   C13   A    
C38   O2    S    
C48   O20   D    
C12   O22   A    
C2    C51   A    
C23   C36   A    
C20   C25   S    
C21   C24   S    
C29   C45   A    
C51   I2    S    
C42   O9    D    
C10   C17   A    
C15   C46   S    
C5    N1    A    
C22   H16   S    
C24   H17   S    
Cu2   N2    S    
