data_mof_unit_8970.cif
_audit_creation_date              2012-12-10T18:36:26-0500
_audit_creation_method            fapswitch 2.2
_symmetry_space_group_name_H-M    P1
_symmetry_Int_Tables_number       1
_space_group_crystal_system       triclinic
_cell_length_a                    14.035672
_cell_length_b                    15.180388
_cell_length_c                    15.842484
_cell_angle_alpha                 91.696051
_cell_angle_beta                  70.397953
_cell_angle_gamma                 89.198496
_cell_volume                      3177.46499041

loop_
_atom_site_label
_atom_site_type_symbol
_atom_type_description
_atom_site_fract_x
_atom_site_fract_y
_atom_site_fract_z
_atom_type_partial_charge
C1    C     C_R   0.499566 0.669938 0.499794 0.935777
C2    C     C_R   0.500927 0.330676 0.498075 0.949101
C3    C     C_R   0.377086 0.521286 0.095918 -0.176387
C4    C     C_R   0.619513 0.527546 0.906491 -0.173529
C5    C     C_R   0.307236 0.525647 0.051657 -0.090275
C6    C     C_R   0.688675 0.534747 0.951224 -0.087446
C7    C     C_R   0.468990 0.902305 0.431187 -0.172687
C8    C     C_R   0.469275 0.099307 0.576988 -0.183129
C9    C     C_R   0.475509 0.810166 0.428915 0.413072
C10   C     C_R   0.475633 0.190752 0.578184 0.295020
C11   C     C_R   0.498465 0.766830 0.498395 -0.263157
C12   C     C_R   0.500557 0.234786 0.496768 -0.225484
C13   C     C_R   0.520945 0.818392 0.565387 0.324191
C14   C     C_R   0.517481 0.186448 0.415146 0.315636
C15   C     C_R   0.522703 0.909614 0.560435 -0.159790
C16   C     C_R   0.517141 0.094528 0.415301 -0.176219
C17   C     C_R   0.493798 0.952636 0.495956 -0.005188
C18   C     C_R   0.492863 0.050173 0.495850 0.023346
C19   C     C_R   0.893244 0.417216 0.495432 0.238520
C20   C     C_R   0.102295 0.576024 0.504153 0.225050
C21   C     C_R   0.807377 0.427466 0.468885 0.490250
C22   C     C_R   0.194754 0.574665 0.522187 0.506691
C23   C     C_R   0.438597 0.498651 0.671800 0.956826
C24   C     C_R   0.561289 0.500715 0.328191 0.946102
C25   C     C_R   0.772068 0.566276 0.544237 0.004546
C26   C     C_R   0.220913 0.424895 0.475143 -0.015866
C27   C     C_R   0.871320 0.566110 0.548751 -0.193470
C28   C     C_R   0.118880 0.420810 0.478987 -0.222919
C29   C     C_R   0.939172 0.493202 0.514792 0.028904
C30   C     C_R   0.053232 0.496168 0.501541 0.016289
C31   C     C_R   0.402855 0.502943 0.770140 -0.061735
C32   C     C_R   0.596213 0.507232 0.230410 -0.049436
C33   C     C_R   0.267819 0.528202 0.911944 0.336748
C34   C     C_R   0.727947 0.538309 0.091078 0.329399
C35   C     C_R   0.300703 0.517081 0.818857 -0.225304
C36   C     C_R   0.695814 0.528146 0.183444 -0.222659
C37   C     C_R   0.473036 0.499401 0.814881 -0.132893
C38   C     C_R   0.526816 0.499503 0.185076 -0.147304
C39   C     C_R   0.443363 0.513039 0.908280 0.037038
C40   C     C_R   0.554584 0.515104 0.093107 0.030331
C41   C     C_R   0.338482 0.522381 0.957888 0.026677
C42   C     C_R   0.658077 0.529346 0.044543 0.020732
C43   C     C_R   0.515492 0.517489 0.953346 0.100305
C44   C     C_R   0.482047 0.516417 0.048352 0.099980
Cu1   Cu    Cu3+1 0.403570 0.500010 0.500000 1.100018
Cu2   Cu    Cu3+1 0.596430 0.499990 0.500000 1.111900
H1    H     H_    0.228254 0.530219 0.092531 0.222243
H2    H     H_    0.766658 0.543904 0.910890 0.220984
H3    H     H_    0.720820 0.620545 0.574392 0.229728
H4    H     H_    0.268008 0.366004 0.455200 0.185387
H5    H     H_    0.893028 0.621820 0.581315 0.229068
H6    H     H_    0.094480 0.358836 0.460357 0.237886
H7    H     H_    0.451491 0.479644 0.222735 0.184152
H8    H     H_    0.550681 0.483983 0.775449 0.179804
H9    H     H_    0.748253 0.538062 0.219343 0.225952
H10   H     H_    0.246569 0.520545 0.783917 0.228453
H11   H     H_    0.346233 0.526886 0.168071 0.171523
H12   H     H_    0.649580 0.535316 0.835037 0.163463
H13   H     H_    0.446793 0.934910 0.380719 0.194822
H14   H     H_    0.445170 0.066346 0.640003 0.198035
H15   H     H_    0.547214 0.947445 0.608055 0.205359
H16   H     H_    0.536126 0.057655 0.352189 0.196869
N1    N     N_R   0.741310 0.499980 0.500000 -0.260459
N2    N     N_R   0.258690 0.500020 0.500000 -0.243325
O1    O     O_R   0.418570 0.628550 0.499990 -0.501152
O2    O     O_R   0.581430 0.371450 0.500010 -0.514502
O3    O     O_R   0.581440 0.628540 0.499990 -0.569737
O4    O     O_R   0.418560 0.371460 0.500010 -0.598746
O5    O     O_R   0.372890 0.500010 0.629830 -0.536171
O6    O     O_R   0.627110 0.499990 0.370170 -0.540654
O7    O     O_R   0.535760 0.500000 0.629840 -0.571884
O8    O     O_R   0.464240 0.500000 0.370160 -0.569061
S1    S     S_3+6 0.903208 0.316475 0.547026 0.055358
O9    O     O_2   0.950291 0.331809 0.618438 -0.269908
O10   O     O_2   0.799061 0.281139 0.589637 -0.207911
O11   O     O_3   0.973160 0.241002 0.470690 -0.479588
H17   H     H_    0.973878 0.187728 0.505110 0.394773
S2    S     S_3+6 0.073311 0.670670 0.452185 0.072456
O12   O     O_2   0.014695 0.738734 0.521724 -0.215130
O13   O     O_2   0.170081 0.710207 0.394813 -0.181216
O14   O     O_3   0.005826 0.642300 0.386037 -0.525255
H18   H     H_    0.988653 0.698707 0.364040 0.393814
S3    S     S_3+6 0.808355 0.352805 0.379650 0.122185
O15   O     O_2   0.913620 0.314013 0.338113 -0.231460
O16   O     O_2   0.738420 0.278043 0.413246 -0.209915
O17   O     O_3   0.780934 0.403593 0.298026 -0.508943
H19   H     H_    0.812855 0.366400 0.242986 0.403715
S4    S     S_3+6 0.207476 0.666453 0.590608 0.088769
O18   O     O_2   0.256369 0.740873 0.532432 -0.219082
O19   O     O_2   0.103365 0.697277 0.649231 -0.243033
O20   O     O_3   0.272486 0.643547 0.658943 -0.560269
H20   H     H_    0.266299 0.697767 0.696943 0.356551
S5    S     S_3+6 0.138593 0.553798 0.966927 0.093359
O21   O     O_2   0.090204 0.475496 0.018898 -0.160072
O22   O     O_2   0.126426 0.632076 0.030420 -0.255563
O23   O     O_3   0.081978 0.577001 0.891640 -0.419510
H21   H     H_    0.106179 0.635954 0.870102 0.366134
S6    S     S_3+6 0.855819 0.563099 0.037314 0.090850
O24   O     O_2   0.906106 0.485838 0.976437 -0.159036
O25   O     O_2   0.863713 0.643623 0.982550 -0.254586
O26   O     O_3   0.913929 0.581080 0.113208 -0.424632
H22   H     H_    0.891433 0.641236 0.138712 0.364477
S7    S     S_3+6 0.470209 0.753509 0.330841 0.041068
O27   O     O_2   0.391313 0.684113 0.353039 -0.225465
O28   O     O_2   0.446627 0.817121 0.269104 -0.246646
O29   O     O_3   0.584311 0.705668 0.278308 -0.584916
H23   H     H_    0.591404 0.703127 0.213923 0.378744
S8    S     S_3+6 0.446880 0.248443 0.683043 0.040191
O30   O     O_2   0.427967 0.185719 0.758290 -0.218327
O31   O     O_2   0.534010 0.305337 0.681843 -0.240388
O32   O     O_3   0.343033 0.312733 0.700861 -0.536079
H24   H     H_    0.291134 0.272455 0.693710 0.360564
S9    S     S_3+6 0.548086 0.775926 0.657916 0.026666
O33   O     O_2   0.660765 0.767827 0.634576 -0.244127
O34   O     O_2   0.508035 0.839306 0.737337 -0.245432
O35   O     O_3   0.496498 0.677822 0.686642 -0.563222
H25   H     H_    0.427669 0.691538 0.729205 0.347521
S10   S     S_3+6 0.534555 0.238519 0.312460 0.042553
O36   O     O_2   0.622835 0.298323 0.292380 -0.229257
O37   O     O_2   0.553891 0.171650 0.236283 -0.227636
O38   O     O_3   0.430547 0.299090 0.320573 -0.547295
H26   H     H_    0.375774 0.255983 0.331371 0.348540

loop_
_geom_bond_atom_site_label_1
_geom_bond_atom_site_label_2
_ccdc_geom_bond_type
S5    O21   D    
C27   C29   A    
C11   C13   A    
S1    O9    D    
C23   O5    A    
C10   S8    S    
O32   H24   S    
C1    C11   S    
C2    C12   S    
O14   H18   S    
C24   O6    A    
C39   C41   A    
C20   C30   A    
Cu1   Cu2   S    
O35   H25   S    
C5    H1    S    
O26   H22   S    
C6    H2    S    
C32   C36   A    
C19   C21   A    
Cu2   O2    S    
C2    O4    A    
C26   H4    S    
C33   C35   A    
S2    O13   D    
O29   H23   S    
S8    O30   D    
C7    C9    A    
C25   N1    A    
C26   N2    A    
S10   O36   D    
C1    O3    A    
C21   S3    S    
C21   N1    A    
C7    C17   A    
C34   C42   A    
C1    O1    A    
C14   C16   A    
C32   C38   A    
S9    O35   S    
C40   C42   A    
S5    O22   D    
Cu1   O8    S    
S1    O10   D    
C16   H16   S    
C7    H13   S    
C27   H5    S    
S10   O37   D    
C3    C44   A    
O38   H26   S    
Cu1   O5    S    
C23   O7    A    
C19   S1    S    
O11   H17   S    
C4    C6    A    
O20   H20   S    
S2    O12   D    
C39   C43   A    
C14   S10   S    
C8    C18   A    
C31   C37   A    
S10   O38   S    
C23   C31   S    
C43   C44   A    
C24   C32   S    
C29   C30   S    
S3    O15   D    
S4    O20   S    
C9    S7    S    
O23   H21   S    
Cu1   O4    S    
C17   C18   S    
C15   H15   S    
S7    O28   D    
C9    C11   A    
Cu2   O7    S    
C10   C12   A    
C37   H8    S    
C3    H11   S    
C16   C18   A    
S3    O16   D    
C12   C14   A    
S5    O23   S    
C22   S4    S    
C13   C15   A    
Cu1   O1    S    
S1    O11   S    
C31   C35   A    
C20   C22   A    
C19   C29   A    
C24   O8    A    
S9    O33   D    
C15   C17   A    
C5    C41   A    
C35   H10   S    
O17   H19   S    
S4    O19   D    
C3    C5    A    
C33   S5    S    
C2    O2    A    
C4    C43   A    
C25   C27   A    
S6    O26   S    
Cu1   N2    S    
C26   C28   A    
S8    O32   S    
C20   S2    S    
Cu2   N1    S    
C33   C41   A    
C28   C30   A    
Cu2   O3    S    
C37   C39   A    
C36   H9    S    
C8    H14   S    
C38   C40   A    
C28   H6    S    
S2    O14   S    
C38   H7    S    
C34   S6    S    
S8    O31   D    
S7    O29   S    
C34   C36   A    
S6    O25   D    
C25   H3    S    
Cu2   O6    S    
C22   N2    A    
C40   C44   A    
S3    O17   S    
S4    O18   D    
C8    C10   A    
S6    O24   D    
C6    C42   A    
C4    H12   S    
S7    O27   D    
C13   S9    S    
S9    O34   D    
