data_mof_unit_20299.cif
_audit_creation_date              2012-12-10T19:09:37-0500
_audit_creation_method            fapswitch 2.2
_symmetry_space_group_name_H-M    P1
_symmetry_Int_Tables_number       1
_space_group_crystal_system       triclinic
_cell_length_a                    9.536891
_cell_length_b                    10.858716
_cell_length_c                    17.120638
_cell_angle_alpha                 89.239922
_cell_angle_beta                  93.827939
_cell_angle_gamma                 90.002799
_cell_volume                      1768.87396953

loop_
_atom_site_label
_atom_site_type_symbol
_atom_type_description
_atom_site_fract_x
_atom_site_fract_y
_atom_site_fract_z
_atom_type_partial_charge
C1    C     C_R   0.499845 0.262678 0.499760 0.805429
C2    C     C_R   0.657974 0.499405 0.779003 -0.207507
C3    C     C_R   0.589168 0.490735 0.141517 -0.155517
C4    C     C_R   0.596508 0.491600 0.222817 -0.235408
C5    C     C_R   0.457615 0.496367 0.098782 0.385141
C6    C     C_R   0.473468 0.498530 0.263121 -0.027226
C7    C     C_R   0.342524 0.502545 0.220546 -0.217863
C8    C     C_R   0.335054 0.501612 0.139021 -0.192909
C9    C     C_R   0.621061 0.061909 0.507954 0.132638
C10   C     C_R   0.498221 0.130143 0.497476 -0.084521
C11   C     C_R   0.370878 0.064927 0.484450 -0.212785
C12   C     C_R   0.517362 0.498520 0.650871 0.809950
C13   C     C_R   0.370908 0.935674 0.484291 -0.192690
C14   C     C_R   0.498287 0.869920 0.497114 -0.099811
C15   C     C_R   0.621153 0.937771 0.507803 0.074288
C16   C     C_3   0.775185 0.928939 0.529267 -0.211466
C17   C     C_3   0.774645 0.071138 0.529899 -0.535631
C18   C     C_R   0.070011 0.598120 0.469638 0.297448
C19   C     C_R   0.078953 0.409913 0.537619 -0.081396
C20   C     C_R   0.930035 0.410045 0.537743 -0.075565
C21   C     C_R   0.922588 0.597835 0.469354 0.324045
C22   C     C_3   0.907257 0.645233 0.387145 -0.530094
C23   C     C_R   0.499816 0.737316 0.499496 0.810011
C24   C     C_3   0.066402 0.646449 0.387682 -0.527268
C25   C     C_R   0.482663 0.500534 0.349067 0.793491
C26   C     C_R   0.526718 0.497835 0.736710 -0.029936
C27   C     C_R   0.403515 0.495622 0.777113 -0.223099
C28   C     C_R   0.411147 0.495003 0.858417 -0.152140
C29   C     C_R   0.543017 0.496643 0.900981 0.384879
C30   C     C_R   0.665620 0.498738 0.860558 -0.193902
Cu1   Cu    Cu3+1 0.640670 0.499980 0.500000 0.961061
Cu2   Cu    Cu3+1 0.359330 0.500020 0.500000 0.952971
H1    H     H_    0.698815 0.486173 0.253904 0.152126
H2    H     H_    0.271606 0.887985 0.474834 0.161914
H3    H     H_    0.834859 0.890080 0.481750 0.129166
H4    H     H_    0.796152 0.112236 0.588638 0.211422
H5    H     H_    0.832972 0.113692 0.482369 0.188959
H6    H     H_    0.138185 0.335785 0.566870 0.143276
H7    H     H_    0.877828 0.336286 0.567277 0.139791
H8    H     H_    0.858474 0.577055 0.346044 0.211227
H9    H     H_    0.859775 0.738630 0.382648 0.193458
H10   H     H_    0.107643 0.579509 0.346570 0.212385
H11   H     H_    0.686450 0.485487 0.112554 0.151884
H12   H     H_    0.111112 0.740744 0.384305 0.194389
H13   H     H_    0.767517 0.499983 0.892523 0.141500
H14   H     H_    0.754644 0.501210 0.749209 0.170327
H15   H     H_    0.245864 0.506266 0.249955 0.149945
H16   H     H_    0.313809 0.493202 0.887525 0.153704
H17   H     H_    0.233295 0.505242 0.106936 0.139633
H18   H     H_    0.300845 0.494301 0.746001 0.168586
H19   H     H_    0.271566 0.113025 0.475030 0.161990
N1    N     N_2   0.557289 0.496254 0.983947 -0.265380
N2    N     N_2   0.443517 0.496609 0.015828 -0.265466
N3    N     N_R   0.147870 0.500930 0.499500 -0.191959
N4    N     N_R   0.851960 0.500890 0.499500 -0.188551
O1    O     O_R   0.618810 0.319640 0.500000 -0.585259
O2    O     O_R   0.381230 0.319680 0.499990 -0.593615
O3    O     O_R   0.631790 0.498830 0.613930 -0.575904
O4    O     O_R   0.394210 0.498870 0.613920 -0.580772
O5    O     O_R   0.618770 0.680320 0.500010 -0.580895
O6    O     O_R   0.381190 0.680360 0.500000 -0.579888
O7    O     O_R   0.605790 0.501130 0.386080 -0.589148
O8    O     O_R   0.368210 0.501170 0.386070 -0.588272
C31   C     C_2   0.807725 0.869823 0.608461 0.908691
O9    O     O_2   0.899331 0.791100 0.616454 -0.615641
O10   O     O_R   0.733022 0.904075 0.672343 -0.758622
H20   H     H_    0.764115 0.856803 0.721960 0.330379

loop_
_geom_bond_atom_site_label_1
_geom_bond_atom_site_label_2
_ccdc_geom_bond_type
Cu1   O5    S    
C14   C23   S    
C5    C8    A    
C29   C30   A    
C19   H6    S    
C1    O2    A    
Cu1   O1    S    
C18   C21   A    
C24   H10   S    
C9    C10   A    
C30   H13   S    
Cu1   Cu2   S    
C27   H18   S    
C2    C30   A    
C12   O3    A    
C31   O9    D    
C19   C20   A    
O10   H20   S    
C9    C15   A    
C22   H8    S    
C13   H2    S    
C2    C26   A    
C31   O10   S    
C17   H5    S    
C21   C22   S    
C2    H14   S    
C11   C13   A    
Cu1   O7    S    
C3    H11   S    
C26   C27   A    
C6    C7    A    
Cu2   O2    S    
C20   N4    A    
C18   C24   S    
C19   N3    A    
Cu2   N3    S    
C28   C29   A    
C17   H4    S    
C1    O1    A    
Cu2   O6    S    
C9    C17   S    
C25   O7    A    
C16   H3    S    
C4    H1    S    
C23   O5    A    
C24   H12   S    
C22   C24   S    
C6    C25   S    
C11   H19   S    
C10   C11   A    
C18   N3    A    
C3    C4    A    
C22   H9    S    
C23   O6    A    
N1    N2    D    
Cu1   O3    S    
C4    C6    A    
C7    C8    A    
C25   O8    A    
C5    N2    S    
C27   C28   A    
C21   N4    A    
C20   H7    S    
C14   C15   A    
C28   H16   S    
C16   C31   S    
Cu2   O4    S    
Cu1   N4    S    
C13   C14   A    
C12   O4    A    
C8    H17   S    
C1    C10   S    
C15   C16   S    
Cu2   O8    S    
C12   C26   S    
C16   C17   S    
C3    C5    A    
C29   N1    S    
C7    H15   S    
