data_mof_unit_43259.cif
_audit_creation_date              2012-12-11T17:44:02-0500
_audit_creation_method            fapswitch 2.2
_symmetry_space_group_name_H-M    P1
_symmetry_Int_Tables_number       1
_space_group_crystal_system       triclinic
_cell_length_a                    20.275589
_cell_length_b                    22.663544
_cell_length_c                    6.93644
_cell_angle_alpha                 90.004891
_cell_angle_beta                  86.798028
_cell_angle_gamma                 90.000577
_cell_volume                      3182.43398105

loop_
_atom_site_label
_atom_site_type_symbol
_atom_type_description
_atom_site_fract_x
_atom_site_fract_y
_atom_site_fract_z
_atom_type_partial_charge
O1    O     O_R   0.751270 0.447300 0.600030 -0.540946
O2    O     O_R   0.248730 0.947300 0.399970 -0.540951
O3    O     O_R   0.613530 0.440160 0.952150 -0.536995
O4    O     O_R   0.386470 0.940160 0.047850 -0.536994
O5    O     O_R   0.613050 0.552700 0.122560 -0.536297
O6    O     O_R   0.386950 0.052700 0.877440 -0.536251
C1    C     C_R   0.591423 0.425552 0.787364 0.708513
C2    C     C_R   0.408565 0.925540 0.212620 0.708531
O7    O     O_R   0.750780 0.440350 0.929820 -0.544060
O8    O     O_R   0.249220 0.940350 0.070180 -0.544065
O9    O     O_R   0.751280 0.552900 0.100070 -0.541823
O10   O     O_R   0.248720 0.052900 0.899930 -0.541809
C3    C     C_R   0.773831 0.426015 0.757386 0.694605
C4    C     C_R   0.226169 0.926015 0.242605 0.694588
O11   O     O_R   0.613040 0.447100 0.622520 -0.536481
O12   O     O_R   0.386960 0.947100 0.377480 -0.536503
O13   O     O_3   0.682160 0.536920 0.777780 -0.366534
O14   O     O_3   0.317840 0.036920 0.222220 -0.366504
V1    V     V_3+5 0.682160 0.493150 0.052630 1.410853
V2    V     V_3+5 0.317840 0.993150 0.947370 1.410938
O15   O     O_R   0.750790 0.559840 0.429870 -0.542602
O16   O     O_R   0.249210 0.059840 0.570130 -0.542603
C5    C     C_R   0.773483 0.574461 0.257496 0.697774
C6    C     C_R   0.226517 0.074460 0.742513 0.697740
O17   O     O_R   0.613540 0.559650 0.452200 -0.536133
O18   O     O_R   0.386460 0.059650 0.547800 -0.536129
C7    C     C_R   0.591791 0.574542 0.287230 0.701107
C8    C     C_R   0.408210 0.074541 0.712787 0.701089
V3    V     V_3+5 0.682160 0.506850 0.552630 1.414550
V4    V     V_3+5 0.317840 0.006850 0.447370 1.414578
O19   O     O_3   0.682150 0.463080 0.277610 -0.367961
O20   O     O_3   0.317850 0.963080 0.722390 -0.367981
C9    C     C_R   0.578397 0.860680 0.123424 0.012444
C10   C     C_R   0.421490 0.360774 0.875268 0.012456
H1    H     H_    0.534429 0.946873 0.105895 0.109889
H2    H     H_    0.465475 0.446957 0.893046 0.109810
H3    H     H_    0.667454 0.771574 0.086363 0.147644
H4    H     H_    0.332347 0.271720 0.911526 0.147629
C11   C     C_R   0.463226 0.882642 0.208408 -0.060236
C12   C     C_R   0.536754 0.382665 0.791452 -0.060172
C13   C     C_R   0.474608 0.597015 0.354911 -0.208627
C14   C     C_R   0.525458 0.096973 0.646056 -0.208506
C15   C     C_R   0.420701 0.635265 0.374378 0.060427
C16   C     C_R   0.579376 0.135223 0.626633 0.060645
C17   C     C_R   0.429486 0.695415 0.332454 -0.200577
C18   C     C_R   0.570516 0.195413 0.667894 -0.200537
C19   C     C_R   0.492112 0.718554 0.270494 0.072725
C20   C     C_R   0.507852 0.218578 0.729333 0.072743
C21   C     C_R   0.546195 0.678243 0.247026 0.069318
C22   C     C_R   0.453751 0.178282 0.752540 0.069287
C23   C     C_R   0.502798 0.780302 0.231902 0.072135
C24   C     C_R   0.497154 0.280340 0.767692 0.072146
C25   C     C_R   0.567132 0.800005 0.166402 0.092688
C26   C     C_R   0.432767 0.300085 0.832508 0.092599
C27   C     C_R   0.618529 0.758642 0.140450 -0.200506
C28   C     C_R   0.381326 0.258748 0.858019 -0.200439
C29   C     C_R   0.608503 0.699345 0.181995 -0.193338
C30   C     C_R   0.391382 0.199428 0.816843 -0.193190
C31   C     C_R   0.451652 0.823174 0.254064 -0.218543
C32   C     C_R   0.548344 0.323183 0.746029 -0.218454
C33   C     C_R   0.526066 0.900819 0.142402 -0.212608
C34   C     C_R   0.473858 0.400888 0.856761 -0.212517
C35   C     C_R   0.536934 0.617478 0.291028 -0.103065
C36   C     C_R   0.463061 0.117486 0.709076 -0.102937
H5    H     H_    0.401829 0.811898 0.302092 0.098886
H6    H     H_    0.598213 0.311880 0.698570 0.098787
H7    H     H_    0.467967 0.550568 0.388491 0.105720
H8    H     H_    0.532132 0.050487 0.613116 0.105419
H9    H     H_    0.386495 0.723027 0.352864 0.110529
H10   H     H_    0.613484 0.223043 0.647388 0.110344
H11   H     H_    0.650351 0.669902 0.160984 0.116178
H12   H     H_    0.349511 0.169999 0.837580 0.115988
C37   C     C_R   0.171421 0.882097 0.260709 -0.046883
C38   C     C_R   0.828581 0.382097 0.739265 -0.046907
C39   C     C_R   0.140247 0.861962 0.096546 -0.219490
C40   C     C_R   0.859659 0.361870 0.903469 -0.219507
C41   C     C_R   0.088276 0.821148 0.114098 -0.147531
C42   C     C_R   0.911632 0.321059 0.885911 -0.147536
C43   C     C_R   0.066296 0.799251 0.297266 0.424859
C44   C     C_R   0.933714 0.299260 0.702694 0.424824
C45   C     C_R   0.097762 0.819024 0.460079 -0.177092
C46   C     C_R   0.902343 0.319123 0.539838 -0.177141
C47   C     C_R   0.149430 0.860007 0.442714 -0.205753
C48   C     C_R   0.850672 0.360102 0.557212 -0.205746
C49   C     C_R   0.891099 0.698311 0.382278 -0.051556
C50   C     C_R   0.108906 0.198307 0.617764 -0.051550
C51   C     C_R   0.840679 0.655689 0.397356 -0.256572
C52   C     C_R   0.159333 0.155694 0.602694 -0.256595
C53   C     C_R   0.930975 0.703680 0.207647 0.386121
C54   C     C_R   0.069004 0.203661 0.792359 0.386122
N1    N     N_2   0.013727 0.757476 0.325413 -0.299237
N2    N     N_2   0.986294 0.257495 0.674537 -0.299260
N3    N     N_2   0.983622 0.745437 0.178031 -0.300018
N4    N     N_2   0.016342 0.245405 0.821974 -0.300008
C55   C     C_R   0.827258 0.619212 0.240118 -0.053809
C56   C     C_R   0.172738 0.119208 0.759903 -0.053818
H13   H     H_    0.810791 0.651933 0.531415 0.139618
H14   H     H_    0.189240 0.151948 0.468662 0.139634
H15   H     H_    0.081890 0.802687 0.601895 0.128177
H16   H     H_    0.918297 0.302863 0.397979 0.128193
H17   H     H_    0.172241 0.874242 0.572300 0.133626
H18   H     H_    0.827942 0.374411 0.427587 0.133605
C57   C     C_R   0.865220 0.626321 0.066068 -0.205731
C58   C     C_R   0.134753 0.126302 0.933921 -0.205680
C59   C     C_R   0.916298 0.667856 0.050826 -0.163805
C60   C     C_R   0.083668 0.167830 0.949156 -0.163797
H19   H     H_    0.855992 0.599263 0.941701 0.135696
H20   H     H_    0.143969 0.099237 0.058265 0.135683
H21   H     H_    0.065641 0.806837 0.984374 0.142658
H22   H     H_    0.934186 0.306673 0.015670 0.142590
H23   H     H_    0.945249 0.671835 0.915452 0.140756
H24   H     H_    0.054699 0.171797 0.084507 0.140716
H25   H     H_    0.155734 0.877973 0.954073 0.132620
H26   H     H_    0.844090 0.377802 0.045986 0.132616
C61   C     C_1   0.897793 0.737569 0.544094 0.336637
N5    N     N_1   0.902980 0.769099 0.673658 -0.354262
C62   C     C_1   0.102229 0.237569 0.455975 0.336685
N6    N     N_1   0.097055 0.269102 0.326430 -0.354171
C63   C     C_R   0.643935 0.883973 0.055083 0.085082
C64   C     C_R   0.697196 0.882919 0.176256 -0.153507
C65   C     C_R   0.758742 0.905341 0.111236 -0.121691
C66   C     C_R   0.767230 0.929755 0.926370 -0.088662
C67   C     C_R   0.714198 0.931776 0.806141 -0.115434
C68   C     C_R   0.652690 0.909074 0.870143 -0.131677
H27   H     H_    0.691004 0.864675 0.320483 0.118794
H28   H     H_    0.799711 0.904223 0.204740 0.122430
H29   H     H_    0.814803 0.947360 0.876646 0.114297
H30   H     H_    0.720744 0.950887 0.663323 0.124567
H31   H     H_    0.611998 0.910790 0.775505 0.112755
C69   C     C_R   0.355894 0.384112 0.942855 0.084908
C70   C     C_R   0.302833 0.383140 0.820948 -0.152694
C71   C     C_R   0.241234 0.405617 0.885235 -0.121047
C72   C     C_R   0.232490 0.429983 0.070129 -0.089751
C73   C     C_R   0.285329 0.431928 0.191085 -0.115891
C74   C     C_R   0.346891 0.409179 0.127798 -0.131740
H32   H     H_    0.309223 0.364924 0.676714 0.118656
H33   H     H_    0.200420 0.404571 0.791157 0.122338
H34   H     H_    0.184876 0.447627 0.119287 0.114323
H35   H     H_    0.278594 0.451024 0.333899 0.124637
H36   H     H_    0.387433 0.410834 0.222986 0.112843
C75   C     C_R   0.355008 0.612160 0.442081 0.099558
C76   C     C_R   0.298152 0.627424 0.346012 -0.134806
C77   C     C_R   0.236437 0.604915 0.409108 -0.110231
C78   C     C_R   0.230852 0.567383 0.569024 -0.109965
C79   C     C_R   0.286981 0.552240 0.666015 -0.129489
C80   C     C_R   0.348832 0.574209 0.602644 -0.132370
H37   H     H_    0.301664 0.656056 0.220851 0.110259
H38   H     H_    0.192926 0.616564 0.333898 0.117543
H39   H     H_    0.183044 0.550107 0.617970 0.110021
H40   H     H_    0.282630 0.523657 0.790837 0.135746
H41   H     H_    0.391713 0.562183 0.680388 0.109252
C81   C     C_R   0.645168 0.112089 0.559775 0.099731
C82   C     C_R   0.701993 0.127955 0.655091 -0.134454
C83   C     C_R   0.763802 0.105493 0.592709 -0.109657
C84   C     C_R   0.769521 0.067376 0.434304 -0.109978
C85   C     C_R   0.713436 0.051606 0.338094 -0.130430
C86   C     C_R   0.651495 0.073553 0.400702 -0.132191
H42   H     H_    0.698399 0.157039 0.779129 0.110026
H43   H     H_    0.807283 0.117634 0.667299 0.117589
H44   H     H_    0.817402 0.050128 0.385929 0.110079
H45   H     H_    0.717894 0.022552 0.214456 0.135683
H46   H     H_    0.608668 0.061052 0.323463 0.109129

loop_
_geom_bond_atom_site_label_1
_geom_bond_atom_site_label_2
_ccdc_geom_bond_type
C52   C56   A    
C21   C35   A    
C54   N4    S    
C22   C36   A    
C66   H29   S    
C69   C74   A    
O4    C2    A    
V1    O19   S    
C58   C60   A    
C79   C80   A    
C12   C34   A    
C67   C68   A    
C13   H7    S    
C60   H24   S    
C63   C68   A    
O9    V1    S    
C16   C81   S    
C38   C40   A    
C12   C32   A    
C85   C86   A    
C40   C42   A    
O3    C1    A    
C6    C56   S    
C42   C44   A    
O12   V4    S    
C77   C78   A    
C10   C34   A    
C48   H18   S    
O17   V3    S    
C17   C19   A    
C82   H42   S    
O7    C3    A    
C24   C32   A    
O5    C7    A    
C75   C76   A    
O7    V1    S    
O6    C8    A    
O8    V2    S    
C71   C72   A    
C55   C57   A    
C51   C55   A    
C40   H26   S    
C1    C12   S    
O3    V1    S    
C39   H25   S    
C2    C11   S    
C28   C30   A    
O16   V4    S    
C43   N1    S    
C79   H40   S    
C49   C51   A    
C59   H23   S    
C32   H6    S    
C72   H34   S    
C2    O12   A    
C14   H8    S    
C13   C15   A    
C77   H38   S    
C14   C16   A    
H2    C34   S    
O1    V3    S    
C45   C47   A    
C24   C26   A    
O11   V3    S    
C18   C20   A    
C25   C27   A    
C9    C25   A    
C74   H36   S    
C11   C33   A    
C26   C28   A    
C50   C52   A    
C17   H9    S    
C22   C30   A    
C4    C37   S    
C49   C61   S    
C54   C60   A    
C44   C46   A    
C70   H32   S    
C50   C54   A    
C73   H35   S    
C43   C45   A    
C49   C53   A    
C64   H27   S    
C19   C23   A    
C1    O11   A    
C16   C18   A    
C71   H33   S    
O15   V3    S    
C65   H28   S    
C23   C25   A    
O4    V2    S    
C44   N2    S    
O1    C3    A    
C78   H39   S    
N1    N3    D    
C39   C41   A    
C11   C31   A    
O10   V2    S    
N2    N4    D    
C65   C66   A    
C41   C43   A    
C57   C59   A    
C29   H11   S    
C41   H21   S    
C20   C22   A    
C15   C17   A    
C83   C84   A    
C7    C35   S    
C75   C80   A    
O14   V4    S    
C8    C36   S    
C85   H45   S    
C10   C26   A    
C46   C48   A    
C27   C29   A    
O8    C4    A    
C72   C73   A    
O16   C6    A    
C15   C75   S    
C23   C31   A    
C37   C39   A    
C70   C71   A    
C14   C36   A    
C58   H20   S    
O6    V2    S    
C64   C65   A    
V2    O20   S    
C56   C58   A    
C81   C86   A    
C47   H17   S    
C84   H44   S    
C46   H16   S    
C76   H37   S    
C38   C48   A    
C78   C79   A    
C21   C29   A    
C63   C64   A    
O18   V4    S    
C73   C74   A    
O5    V1    S    
C19   C21   A    
C45   H15   S    
O10   C6    A    
O18   C8    A    
C42   H22   S    
O2    V4    S    
O15   C5    A    
C69   C70   A    
C66   C67   A    
C83   H43   S    
V3    O19   S    
O13   V3    S    
C31   H5    S    
V4    O20   S    
C30   H12   S    
C67   H30   S    
H1    C33   S    
O9    C5    A    
O13   V1    S    
C5    C55   S    
C68   H31   S    
C50   C62   S    
O14   V2    S    
C53   N3    S    
O2    C4    A    
C18   H10   S    
C80   H41   S    
H3    C27   S    
C20   C24   A    
H4    C28   S    
C3    C38   S    
C10   C69   S    
C9    C63   S    
C9    C33   A    
C53   C59   A    
C84   C85   A    
C13   C35   A    
C76   C77   A    
C57   H19   S    
C81   C82   A    
C82   C83   A    
C62   N6    T    
C86   H46   S    
C37   C47   A    
C52   H14   S    
C61   N5    T    
C51   H13   S    
O17   C7    A    
