data_mof_unit_43801.cif
_audit_creation_date              2012-12-10T18:04:48-0500
_audit_creation_method            fapswitch 2.2
_symmetry_space_group_name_H-M    P1
_symmetry_Int_Tables_number       1
_space_group_crystal_system       triclinic
_cell_length_a                    10.856334
_cell_length_b                    9.605178
_cell_length_c                    17.732244
_cell_angle_alpha                 89.952426
_cell_angle_beta                  93.412326
_cell_angle_gamma                 89.999749
_cell_volume                      1845.78662443

loop_
_atom_site_label
_atom_site_type_symbol
_atom_type_description
_atom_site_fract_x
_atom_site_fract_y
_atom_site_fract_z
_atom_type_partial_charge
C1    C     C_R   0.262412 0.500443 0.501373 0.777405
C2    C     C_R   0.737591 0.500442 0.498643 0.777628
C3    C     C_1   0.496396 0.492838 0.966186 0.093798
C4    C     C_1   0.503858 0.492653 0.033871 0.094026
C5    C     C_R   0.063587 0.377111 0.504206 -0.204549
C6    C     C_R   0.935989 0.629063 0.499181 -0.178291
C7    C     C_R   0.936463 0.377086 0.496235 -0.204420
C8    C     C_R   0.063985 0.629066 0.500559 -0.178592
C9    C     C_R   0.503593 0.499703 0.355722 0.839704
C10   C     C_R   0.496332 0.499622 0.644291 0.839254
C11   C     C_R   0.871513 0.502361 0.497325 -0.014897
C12   C     C_R   0.128496 0.502375 0.502737 -0.014896
C13   C     C_R   0.471072 0.620012 0.846493 0.467336
C14   C     C_R   0.501296 0.367719 0.154209 0.459910
C15   C     C_R   0.527933 0.619616 0.153736 0.459753
C16   C     C_R   0.499172 0.368460 0.845715 0.453231
C17   C     C_R   0.465783 0.619865 0.767155 -0.315179
C18   C     C_R   0.497593 0.371274 0.233167 -0.286829
C19   C     C_R   0.533669 0.619812 0.232719 -0.301277
C20   C     C_R   0.502498 0.371352 0.767108 -0.271390
C21   C     C_R   0.488635 0.497345 0.727192 -0.171900
C22   C     C_R   0.511363 0.497393 0.272860 -0.171049
C23   C     C_R   0.423067 0.074643 0.450079 0.241646
C24   C     C_R   0.577974 0.924955 0.549248 0.242400
C25   C     C_R   0.577019 0.074508 0.549864 0.241454
C26   C     C_R   0.422340 0.925087 0.450550 0.242240
C27   C     C_R   0.487991 0.493675 0.885333 -0.088121
C28   C     C_R   0.511290 0.493262 0.114726 -0.086897
Cu1   Cu    Cu3+1 0.500000 0.640660 0.500000 0.976312
Cu2   Cu    Cu3+1 0.500000 0.359340 0.500000 0.977893
H1    H     H_    0.443907 0.715274 0.737127 0.174290
H2    H     H_    0.483470 0.275377 0.263090 0.161369
H3    H     H_    0.554146 0.716051 0.262210 0.177128
H4    H     H_    0.515095 0.274445 0.737775 0.165196
H5    H     H_    0.110601 0.278907 0.511010 0.152420
H6    H     H_    0.887999 0.727858 0.498916 0.136759
H7    H     H_    0.889487 0.278841 0.489709 0.152475
H8    H     H_    0.111944 0.727861 0.500554 0.136496
N1    N     N_R   0.500000 0.852070 0.500000 -0.215546
N2    N     N_R   0.500000 0.147930 0.500000 -0.215210
O1    O     O_R   0.319640 0.618740 0.499990 -0.574541
O2    O     O_R   0.680360 0.381260 0.500010 -0.558897
O3    O     O_R   0.680360 0.618740 0.500010 -0.573861
O4    O     O_R   0.319640 0.381260 0.499990 -0.558654
O5    O     O_R   0.500000 0.618830 0.391250 -0.552180
O6    O     O_R   0.500000 0.381170 0.608750 -0.566873
O7    O     O_R   0.500000 0.618830 0.608750 -0.551790
O8    O     O_R   0.500000 0.381170 0.391250 -0.566510
O9    O     O_3   0.453554 0.741012 0.887070 -0.581764
C29   C     C_3   0.546157 0.838934 0.872408 -0.295188
H9    H     H_    0.516829 0.903217 0.822510 0.166279
H10   H     H_    0.637867 0.790312 0.864595 0.154054
H11   H     H_    0.558543 0.909444 0.921749 0.208854
O10   O     O_3   0.486710 0.244141 0.114219 -0.579038
C30   C     C_3   0.580536 0.149182 0.137974 -0.289504
H12   H     H_    0.554478 0.091555 0.188996 0.156774
H13   H     H_    0.672241 0.200192 0.148539 0.154127
H14   H     H_    0.591010 0.072145 0.092292 0.209205
O11   O     O_3   0.543761 0.742370 0.114736 -0.578222
C31   C     C_3   0.427690 0.807525 0.103325 -0.299577
H15   H     H_    0.395789 0.848404 0.157461 0.155653
H16   H     H_    0.357027 0.736457 0.076244 0.167191
H17   H     H_    0.436722 0.896846 0.064421 0.204030
O12   O     O_3   0.513657 0.243633 0.884035 -0.577368
C32   C     C_3   0.395955 0.183500 0.889278 -0.298603
H18   H     H_    0.357299 0.149477 0.832744 0.153051
H19   H     H_    0.330797 0.255705 0.915744 0.165192
H20   H     H_    0.404894 0.090258 0.926046 0.201842
N3    N     N_2   0.350008 0.149106 0.394407 -0.357193
H21   H     H_    0.378884 0.138361 0.340527 0.234540
C33   C     C_3   0.217340 0.142850 0.398225 -0.670357
H22   H     H_    0.175019 0.078337 0.351897 0.199242
H23   H     H_    0.179233 0.249084 0.390035 0.240207
H24   H     H_    0.190811 0.098604 0.452841 0.199731
N4    N     N_2   0.663836 0.849690 0.597359 -0.356503
H25   H     H_    0.754426 0.857521 0.583623 0.234351
C34   C     C_3   0.646384 0.853069 0.677639 -0.672430
H26   H     H_    0.715999 0.920442 0.707582 0.198621
H27   H     H_    0.659977 0.746931 0.701109 0.239361
H28   H     H_    0.553005 0.891884 0.689097 0.203028
N5    N     N_2   0.649477 0.148777 0.605835 -0.357375
H29   H     H_    0.620036 0.137781 0.659585 0.236022
C35   C     C_3   0.782237 0.143076 0.602482 -0.670012
H30   H     H_    0.824359 0.078983 0.649111 0.199449
H31   H     H_    0.819903 0.249515 0.610517 0.240274
H32   H     H_    0.809435 0.098674 0.548091 0.199366
N6    N     N_2   0.336796 0.849938 0.402234 -0.356396
H33   H     H_    0.246259 0.856635 0.416218 0.234795
C36   C     C_3   0.353684 0.854501 0.321868 -0.674251
H34   H     H_    0.283352 0.921585 0.292306 0.197110
H35   H     H_    0.340429 0.748535 0.298204 0.238277
H36   H     H_    0.446678 0.894215 0.309990 0.205380

loop_
_geom_bond_atom_site_label_1
_geom_bond_atom_site_label_2
_ccdc_geom_bond_type
C30   H12   S    
C9    O5    A    
C14   C18   A    
N6    H33   S    
N5    H29   S    
Cu1   O1    S    
C34   H26   S    
C15   C19   A    
Cu1   O7    S    
C31   H17   S    
Cu2   O8    S    
C25   N2    A    
C26   N1    A    
C23   N2    A    
C24   N1    A    
C31   H16   S    
C23   C26   A    
N3    C33   S    
C23   N3    S    
C4    C28   S    
C26   N6    S    
C32   H19   S    
C10   O6    A    
C29   H10   S    
C36   H35   S    
C16   C20   A    
C20   H4    S    
C16   C27   A    
O11   C31   S    
Cu1   O3    S    
C25   N5    S    
Cu2   O4    S    
C1    C12   S    
C8    H8    S    
C2    C11   S    
N5    C35   S    
C34   H27   S    
C10   C21   S    
C29   H11   S    
C19   C22   A    
C24   C25   A    
C5    C12   A    
C19   H3    S    
C6    C11   A    
C5    C7    A    
C6    C8    A    
C17   C21   A    
Cu1   O5    S    
C31   H15   S    
C7    C11   A    
N4    H25   S    
Cu1   Cu2   S    
C1    O4    A    
C35   H30   S    
C2    O3    A    
C8    C12   A    
C32   H20   S    
Cu1   N1    S    
C29   H9    S    
C7    H7    S    
Cu2   N2    S    
C36   H36   S    
N4    C34   S    
C13   O9    S    
C1    O1    A    
C35   H31   S    
C32   H18   S    
C30   H13   S    
C17   H1    S    
C18   H2    S    
C3    C4    T    
C33   H23   S    
C34   H28   S    
O10   C30   S    
C14   O10   S    
C18   C22   A    
C15   O11   S    
Cu2   O6    S    
C13   C27   A    
C33   H24   S    
C24   N4    S    
C13   C17   A    
O12   C32   S    
N6    C36   S    
C33   H22   S    
C15   C28   A    
C2    O2    A    
C5    H5    S    
C3    C27   S    
C6    H6    S    
N3    H21   S    
C9    C22   S    
C35   H32   S    
C20   C21   A    
C9    O8    A    
O9    C29   S    
C30   H14   S    
C10   O7    A    
Cu2   O2    S    
C16   O12   S    
C14   C28   A    
C36   H34   S    
