data_mof_unit_51193.cif
_audit_creation_date              2012-12-10T17:15:51-0500
_audit_creation_method            fapswitch 2.2
_symmetry_space_group_name_H-M    P1
_symmetry_Int_Tables_number       1
_space_group_crystal_system       triclinic
_cell_length_a                    10.211112
_cell_length_b                    10.653347
_cell_length_c                    10.640211
_cell_angle_alpha                 89.741669
_cell_angle_beta                  93.890595
_cell_angle_gamma                 80.913715
_cell_volume                      1140.1744642

loop_
_atom_site_label
_atom_site_type_symbol
_atom_type_description
_atom_site_fract_x
_atom_site_fract_y
_atom_site_fract_z
_atom_type_partial_charge
C1    C     C_R   0.445710 0.514112 0.266153 0.969858
C2    C     C_R   0.634682 0.044518 0.531584 -0.062240
C3    C     C_R   0.517553 0.128686 0.553349 -0.088465
C4    C     C_R   0.402870 0.082458 0.579967 -0.222787
C5    C     C_R   0.397763 0.955189 0.566947 -0.051946
C6    C     C_R   0.501662 0.877478 0.507261 -0.116779
C7    C     C_2   0.418131 0.540476 0.131742 -0.261812
C8    C     C_2   0.509346 0.587699 0.066424 0.318902
C9    C     C_2   0.580793 0.514575 0.866266 -0.388636
C10   C     C_2   0.494100 0.594204 0.929145 0.344691
C11   C     C_2   0.077242 0.483946 0.493262 -0.067179
C12   C     C_R   0.505870 0.261689 0.520979 0.883743
C13   C     C_2   0.929956 0.503788 0.513861 -0.063103
C14   C     C_R   0.554160 0.497543 0.733172 0.967354
C15   C     C_R   0.499394 0.741761 0.497769 0.934435
C16   C     C_R   0.764508 0.075117 0.552287 -0.104674
C17   C     C_R   0.869938 0.007616 0.488632 0.393298
C18   C     C_R   0.844979 0.907596 0.409995 -0.147115
C19   C     C_R   0.717281 0.870047 0.400830 0.345672
C20   C     C_R   0.618058 0.928270 0.478831 0.027506
H1    H     H_    0.316737 0.145875 0.609322 0.169921
H2    H     H_    0.118117 0.624216 0.607354 0.189281
H3    H     H_    0.667565 0.457687 0.914612 0.141170
N1    N     N_2   0.157290 0.551390 0.551110 -0.203502
N2    N     N_2   0.842740 0.448550 0.448960 -0.173465
O1    O     O_R   0.568950 0.489660 0.307530 -0.541081
O2    O     O_R   0.348880 0.522640 0.340350 -0.616670
O3    O     O_R   0.610060 0.300270 0.483590 -0.624806
O4    O     O_R   0.389990 0.333260 0.516410 -0.625351
O5    O     O_R   0.651120 0.477360 0.659650 -0.626968
O6    O     O_R   0.431050 0.510340 0.692470 -0.553811
O7    O     O_R   0.610010 0.666740 0.483590 -0.568225
O8    O     O_R   0.389940 0.699730 0.516410 -0.616289
Zn1   Zn    Zn3+2 0.646940 0.477980 0.478090 1.007109
Zn2   Zn    Zn3+2 0.353060 0.522020 0.521910 0.998644
C21   C     C_1   0.294862 0.511245 0.071844 0.157879
N3    N     N_1   0.196469 0.487926 0.024148 -0.149072
C22   C     C_1   0.884371 0.582683 0.617242 0.272761
N4    N     N_1   0.848865 0.646623 0.699928 -0.207999
C23   C     C_1   0.133317 0.382825 0.413512 0.294245
N5    N     N_1   0.176697 0.301674 0.348925 -0.177466
C24   C     C_1   0.866100 0.408794 0.326892 0.354123
N6    N     N_1   0.884142 0.375969 0.225061 -0.198397
C25   C     C_1   0.792302 0.161473 0.651979 0.200885
N7    N     N_1   0.815211 0.229589 0.732039 -0.196915
O9    O     O_3   0.996656 0.039243 0.496736 -0.759878
H4    H     H_    0.996531 0.121948 0.538683 0.330710
C26   C     C_1   0.953379 0.841211 0.343067 0.250343
N8    N     N_1   0.040197 0.787982 0.289896 -0.181447
O10   O     O_3   0.681816 0.788679 0.308342 -0.704955
H5    H     H_    0.756104 0.763691 0.254156 0.350370
C27   C     C_1   0.285033 0.910171 0.617265 0.327821
N9    N     N_1   0.195505 0.874136 0.658554 -0.146583
O11   O     O_3   0.390055 0.675076 0.867052 -0.735985
H6    H     H_    0.341964 0.728387 0.930783 0.336308
O12   O     O_3   0.624298 0.617975 0.126667 -0.716457
H7    H     H_    0.677189 0.651870 0.063353 0.333029

loop_
_geom_bond_atom_site_label_1
_geom_bond_atom_site_label_2
_ccdc_geom_bond_type
N2    C24   S    
C9    C14   S    
C5    C27   S    
C23   N5    T    
C12   O4    A    
C6    C20   A    
C7    C21   S    
C16   C25   S    
O12   H7    S    
C19   C20   A    
N2    Zn1   S    
O1    Zn1   S    
C8    O12   S    
O10   H5    S    
C17   O9    S    
O3    Zn1   S    
C7    C8    D    
C1    C7    S    
C25   N7    T    
C4    H1    S    
C11   C13   S    
C19   O10   S    
C13   N2    D    
C13   C22   S    
C5    C6    A    
C14   O5    A    
C4    C5    A    
H2    N1    S    
C21   N3    T    
O8    Zn2   S    
C12   O3    A    
C17   C18   A    
C2    C3    A    
C22   N4    T    
C10   O11   S    
O6    Zn2   S    
C1    O1    A    
N1    Zn2   S    
C24   N6    T    
O5    Zn1   S    
C2    C20   A    
C11   C23   S    
C11   N1    D    
C15   O7    A    
C2    C16   A    
C27   N9    T    
C8    C10   S    
C18   C19   A    
C9    C10   D    
C1    O2    A    
C14   O6    A    
O4    Zn2   S    
O9    H4    S    
C26   N8    T    
C3    C12   S    
O2    Zn2   S    
C6    C15   S    
O11   H6    S    
C15   O8    A    
C9    H3    S    
C3    C4    A    
O7    Zn1   S    
C16   C17   A    
C18   C26   S    
