data_mof_unit_9889.cif
_audit_creation_date              2012-10-26T19:20:35-0400
_audit_creation_method            fapswitch 2.2
_symmetry_space_group_name_H-M    P1
_symmetry_Int_Tables_number       1
_space_group_crystal_system       triclinic
_cell_length_a                    10.950214
_cell_length_b                    11.059466
_cell_length_c                    9.804554
_cell_angle_alpha                 110.289461
_cell_angle_beta                  97.870703
_cell_angle_gamma                 92.394175
_cell_volume                      1098.09911785

loop_
_atom_site_label
_atom_site_type_symbol
_atom_type_description
_atom_site_fract_x
_atom_site_fract_y
_atom_site_fract_z
_atom_type_partial_charge
C1    C     C_R   0.489781 0.253703 0.441912 0.560438
C2    C     C_R   0.738803 0.494716 0.497695 0.570607
C3    C     C_R   0.155911 0.496398 0.772579 0.243981
C4    C     C_R   0.860115 0.406347 0.217604 0.255760
C5    C     C_R   0.115236 0.565149 0.903130 0.002201
C6    C     C_R   0.894943 0.311244 0.095290 -0.089947
C7    C     C_R   0.990067 0.577984 0.900460 0.245817
C8    C     C_R   0.001839 0.251087 0.109543 0.260145
C9    C     C_R   0.910010 0.511869 0.768779 0.274483
C10   C     C_R   0.080541 0.292063 0.245095 0.262298
C11   C     C_R   0.953227 0.490674 0.632319 -0.034229
C12   C     C_R   0.505560 0.745702 0.557570 0.544050
C13   C     C_R   0.047166 0.389954 0.368447 -0.050922
C14   C     C_R   0.081779 0.481046 0.634837 -0.030607
C15   C     C_R   0.924996 0.427233 0.361081 0.021825
C16   C     C_R   0.873938 0.475584 0.495824 0.022217
C17   C     C_R   0.130064 0.447133 0.500999 0.002151
C18   C     C_2   0.483774 0.112967 0.412109 0.283585
C19   C     C_2   0.504072 0.884840 0.583274 0.251292
C20   C     C_2   0.441038 0.062871 0.506282 0.327097
C21   C     C_2   0.440041 0.924974 0.480664 0.314932
C22   C     C_2   0.503167 0.517212 0.082317 0.103635
C23   C     C_2   0.509192 0.478157 0.921141 0.124069
C24   C     C_R   0.262943 0.481633 0.498816 0.574482
Cl1   Cl    Cl    0.037954 0.129362 0.953020 -0.390350
Cl2   Cl    Cl    0.934780 0.646443 0.067425 -0.489660
Cl3   Cl    Cl    0.807678 0.388642 0.779807 -0.565278
Cl4   Cl    Cl    0.203654 0.199038 0.265892 -0.437762
Cl5   Cl    Cl    0.337914 0.822070 0.322222 -0.458816
Cl6   Cl    Cl    0.372448 0.151031 0.657802 -0.522698
Cu1   Cu    Cu3+1 0.521920 0.521810 0.644910 1.172499
Cu2   Cu    Cu3+1 0.478080 0.478190 0.355090 1.167831
H1    H     H_    0.176044 0.589123 0.007671 0.201651
H2    H     H_    0.331526 0.329352 0.980887 0.384602
H3    H     H_    0.838973 0.284387 0.988023 0.209287
H4    H     H_    0.472348 0.382293 0.848724 0.211736
H5    H     H_    0.549714 0.609006 0.158132 0.167164
H6    H     H_    0.241268 0.347504 0.690252 0.379623
H7    H     H_    0.745326 0.463990 0.088399 0.347815
H8    H     H_    0.617302 0.930737 0.768712 0.364958
H9    H     H_    0.558373 0.082685 0.235593 0.360719
H10   H     H_    0.663354 0.676503 0.021132 0.360159
N1    N     N_2   0.445130 0.445420 0.137360 -0.075269
N2    N     N_2   0.554870 0.554580 0.862640 -0.048812
O1    O     O_R   0.511700 0.332340 0.577400 -0.493921
O2    O     O_3   0.778914 0.491816 0.194844 -0.624622
O3    O     O_3   0.571331 0.976132 0.709782 -0.642694
O4    O     O_3   0.524462 0.030410 0.288389 -0.639768
O5    O     O_3   0.590278 0.678470 0.950085 -0.535276
O6    O     O_3   0.404541 0.323046 0.049204 -0.510919
O7    O     O_R   0.488300 0.667660 0.422600 -0.502274
O8    O     O_R   0.474680 0.295500 0.332650 -0.435228
O9    O     O_R   0.525320 0.704500 0.667350 -0.450997
O10   O     O_R   0.338170 0.518410 0.622370 -0.473324
O11   O     O_R   0.661830 0.481590 0.377630 -0.463118
O12   O     O_R   0.301150 0.481570 0.377630 -0.452731
O13   O     O_R   0.698850 0.518430 0.622370 -0.460416
O14   O     O_3   0.251217 0.422313 0.783875 -0.693473

loop_
_geom_bond_atom_site_label_1
_geom_bond_atom_site_label_2
_ccdc_geom_bond_type
N2    O5    S    
H8    O3    S    
C6    C8    A    
N1    O6    S    
C24   O12   A    
C2    C16   S    
C11   C16   A    
Cu2   O11   S    
Cu1   Cu2   S    
C13   C17   A    
Cu1   O13   S    
C4    C15   A    
C2    O13   A    
Cu2   O7    S    
C20   Cl6   S    
C12   O9    A    
Cu1   O9    S    
C8    Cl1   S    
C9    C11   A    
C14   C17   A    
C1    O1    A    
C1    C18   S    
C3    C14   A    
C7    Cl2   S    
H7    O2    S    
C12   C19   S    
C4    C6    A    
C19   C21   D    
Cu2   N1    S    
Cu2   O12   S    
C18   C20   D    
C2    O11   A    
C13   C15   A    
Cu1   O10   S    
C1    O8    A    
C19   O3    S    
H2    O6    S    
C17   C24   S    
Cu1   N2    S    
H10   O5    S    
C24   O10   A    
C15   C16   A    
C3    O14   S    
C7    C9    A    
C12   O7    A    
C6    H3    S    
C9    Cl3   S    
C8    C10   A    
C23   H4    S    
Cu1   O1    S    
C10   Cl4   S    
C11   C14   A    
C5    C7    A    
C22   C23   S    
Cu2   O8    S    
C4    O2    S    
C20   C21   S    
H6    O14   S    
C22   H5    S    
C21   Cl5   S    
H9    O4    S    
C23   N2    D    
C22   N1    D    
C18   O4    S    
C3    C5    A    
C10   C13   A    
C5    H1    S    
