data_mof_unit_63352.cif
_audit_creation_date              2012-12-10T17:53:33-0500
_audit_creation_method            fapswitch 2.2
_symmetry_space_group_name_H-M    P1
_symmetry_Int_Tables_number       1
_space_group_crystal_system       monoclinic
_cell_length_a                    44.762687
_cell_length_b                    39.064018
_cell_length_c                    21.713473
_cell_angle_alpha                 90.0
_cell_angle_beta                  60.619406
_cell_angle_gamma                 90.0
_cell_volume                      33084.909819

loop_
_atom_site_label
_atom_site_type_symbol
_atom_type_description
_atom_site_fract_x
_atom_site_fract_y
_atom_site_fract_z
_atom_type_partial_charge
C1    C     C_R   0.066208 0.500005 0.434138 0.794456
C2    C     C_R   0.933792 0.500005 0.565862 0.794454
C3    C     C_R   0.566208 0.000005 0.434138 0.794457
C4    C     C_R   0.433792 0.000005 0.565862 0.794454
C5    C     C_R   0.000156 0.498161 0.813562 -0.088308
C6    C     C_R   0.999844 0.498161 0.186438 -0.088308
C7    C     C_R   0.500156 0.998161 0.813562 -0.088308
C8    C     C_R   0.499844 0.998161 0.186438 -0.088308
C9    C     C_R   0.026723 0.482285 0.752795 0.005655
C10   C     C_R   0.973277 0.482285 0.247205 0.005655
C11   C     C_R   0.526723 0.982285 0.752795 0.005654
C12   C     C_R   0.473277 0.982285 0.247205 0.005655
C13   C     C_R   0.025895 0.483863 0.689506 -0.238314
C14   C     C_R   0.974105 0.483862 0.310494 -0.238314
C15   C     C_R   0.525895 0.983862 0.689506 -0.238314
C16   C     C_R   0.474105 0.983863 0.310494 -0.238315
C17   C     C_R   0.998843 0.500115 0.686483 -0.063534
C18   C     C_R   0.001157 0.500115 0.313517 -0.063534
C19   C     C_R   0.498843 0.000115 0.686483 -0.063534
C20   C     C_R   0.501157 0.000115 0.313517 -0.063534
C21   C     C_R   0.971706 0.514837 0.747468 0.007428
C22   C     C_R   0.028294 0.514837 0.252532 0.007427
C23   C     C_R   0.471706 0.014838 0.747467 0.007426
C24   C     C_R   0.528294 0.014837 0.252532 0.007426
C25   C     C_R   0.088898 0.471183 0.710112 -0.143082
C26   C     C_R   0.911102 0.471182 0.289887 -0.143080
C27   C     C_R   0.588898 0.971182 0.710113 -0.143082
C28   C     C_R   0.411102 0.971183 0.289888 -0.143082
C29   C     C_R   0.115054 0.451782 0.710516 -0.140020
C30   C     C_R   0.884947 0.451782 0.289483 -0.140020
C31   C     C_R   0.615053 0.951781 0.710517 -0.140020
C32   C     C_R   0.384946 0.951782 0.289484 -0.140020
C33   C     C_R   0.106990 0.423127 0.754391 -0.124323
C34   C     C_R   0.893010 0.423126 0.245608 -0.124322
C35   C     C_R   0.606990 0.923126 0.754392 -0.124321
C36   C     C_R   0.393010 0.923127 0.245608 -0.124323
C37   C     C_R   0.072760 0.413797 0.797880 -0.122250
C38   C     C_R   0.927241 0.413796 0.202119 -0.122252
C39   C     C_R   0.572759 0.913796 0.797881 -0.122252
C40   C     C_R   0.427240 0.913797 0.202120 -0.122250
C41   C     C_R   0.046509 0.433225 0.797971 -0.104035
C42   C     C_R   0.953491 0.433224 0.202028 -0.104035
C43   C     C_R   0.546509 0.933224 0.797972 -0.104035
C44   C     C_R   0.453490 0.933224 0.202029 -0.104034
C45   C     C_R   0.999018 0.500028 0.619712 0.809828
C46   C     C_R   0.000982 0.500028 0.380288 0.809827
C47   C     C_R   0.499018 0.000028 0.619712 0.809828
C48   C     C_R   0.500982 0.000028 0.380288 0.809827
C49   C     C_R   0.054418 0.462183 0.754271 0.125165
C50   C     C_R   0.945582 0.462182 0.245729 0.125164
C51   C     C_R   0.554417 0.962182 0.754271 0.125166
C52   C     C_R   0.445582 0.962183 0.245729 0.125165
C53   C     C_R   0.377545 0.498293 0.067695 -0.193786
C54   C     C_R   0.622455 0.498289 0.932305 -0.193787
C55   C     C_R   0.877545 0.998292 0.067695 -0.193785
C56   C     C_R   0.122455 0.998294 0.932305 -0.193785
C57   C     C_R   0.341362 0.497850 0.103671 0.115385
C58   C     C_R   0.658638 0.497845 0.896329 0.115382
C59   C     C_R   0.841361 0.997849 0.103671 0.115385
C60   C     C_R   0.158638 0.997851 0.896329 0.115385
C61   C     C_R   0.323795 0.499490 0.178506 0.054100
C62   C     C_R   0.676205 0.499489 0.821494 0.054100
C63   C     C_R   0.823795 0.999490 0.178506 0.054100
C64   C     C_R   0.176205 0.999490 0.821494 0.054100
C65   C     C_R   0.342184 0.500634 0.215234 -0.191694
C66   C     C_R   0.657816 0.500637 0.784766 -0.191693
C67   C     C_R   0.842184 0.000635 0.215234 -0.191695
C68   C     C_R   0.157816 0.000633 0.784766 -0.191694
C69   C     C_R   0.377837 0.500755 0.178875 -0.192255
C70   C     C_R   0.622163 0.500758 0.821125 -0.192255
C71   C     C_R   0.877837 0.000756 0.178875 -0.192256
C72   C     C_R   0.122163 0.000754 0.821125 -0.192256
C73   C     C_R   0.395871 0.499736 0.104836 -0.067818
C74   C     C_R   0.604129 0.499736 0.895164 -0.067817
C75   C     C_R   0.895871 0.999736 0.104836 -0.067817
C76   C     C_R   0.104129 0.999736 0.895164 -0.067818
C77   C     C_R   0.267967 0.529174 0.220042 -0.186724
C78   C     C_R   0.732032 0.529172 0.779965 -0.186724
C79   C     C_R   0.767968 0.029173 0.220040 -0.186725
C80   C     C_R   0.232032 0.029174 0.779957 -0.186726
C81   C     C_R   0.232242 0.529436 0.258198 -0.199971
C82   C     C_R   0.767757 0.529435 0.741809 -0.199969
C83   C     C_R   0.732242 0.029436 0.258196 -0.199970
C84   C     C_R   0.267758 0.029436 0.741801 -0.199971
C85   C     C_R   0.214082 0.500452 0.297007 0.101085
C86   C     C_R   0.785918 0.500452 0.702993 0.101086
C87   C     C_R   0.714082 0.000452 0.297008 0.101084
C88   C     C_R   0.285918 0.000452 0.702993 0.101085
C89   C     C_R   0.910770 0.573672 0.724221 -0.160196
C90   C     C_R   0.089228 0.573674 0.275778 -0.160196
C91   C     C_R   0.410772 0.073675 0.724221 -0.160195
C92   C     C_R   0.589229 0.073673 0.275778 -0.160196
C93   C     C_R   0.232545 0.471517 0.298019 -0.176921
C94   C     C_R   0.767455 0.471518 0.701975 -0.176922
C95   C     C_R   0.732545 0.971518 0.298022 -0.176921
C96   C     C_R   0.267455 0.971517 0.701982 -0.176922
C97   C     C_R   0.268311 0.471320 0.259801 -0.184548
C98   C     C_R   0.731689 0.471321 0.740193 -0.184546
C99   C     C_R   0.768311 0.971321 0.259804 -0.184546
C100  C     C_R   0.231689 0.971320 0.740200 -0.184548
C101  C     C_R   0.286107 0.499958 0.219871 0.087696
C102  C     C_R   0.713892 0.499957 0.780129 0.087698
C103  C     C_R   0.786107 0.999958 0.219871 0.087697
C104  C     C_R   0.213893 0.999958 0.780129 0.087698
C105  C     C_R   0.158335 0.470347 0.334077 -0.163742
C106  C     C_R   0.841665 0.470346 0.665918 -0.163745
C107  C     C_R   0.658335 0.970347 0.334081 -0.163742
C108  C     C_R   0.341665 0.970347 0.665924 -0.163742
C109  C     C_R   0.122619 0.470327 0.366443 -0.180305
C110  C     C_R   0.877381 0.470326 0.633552 -0.180305
C111  C     C_R   0.622619 0.970327 0.366447 -0.180306
C112  C     C_R   0.377381 0.970327 0.633558 -0.180305
C113  C     C_R   0.103946 0.500100 0.398813 -0.021099
C114  C     C_R   0.896053 0.500100 0.601187 -0.021100
C115  C     C_R   0.603946 0.000100 0.398813 -0.021100
C116  C     C_R   0.396054 0.000100 0.601187 -0.021099
C117  C     C_R   0.121604 0.529866 0.398433 -0.182520
C118  C     C_R   0.878395 0.529867 0.601572 -0.182517
C119  C     C_R   0.621604 0.029867 0.398430 -0.182518
C120  C     C_R   0.378396 0.029866 0.601566 -0.182520
C121  C     C_R   0.157273 0.529776 0.366877 -0.192470
C122  C     C_R   0.842727 0.529778 0.633128 -0.192473
C123  C     C_R   0.657273 0.029777 0.366874 -0.192474
C124  C     C_R   0.342727 0.029776 0.633122 -0.192472
C125  C     C_R   0.176073 0.500047 0.334125 0.094771
C126  C     C_R   0.823927 0.500047 0.665876 0.094771
C127  C     C_R   0.676073 0.000048 0.334125 0.094771
C128  C     C_R   0.323927 0.000047 0.665875 0.094771
C129  C     C_R   1.000000 0.433756 1.000000 0.772139
C130  C     C_R   0.500000 0.933756 0.000000 0.772139
C131  C     C_R   0.941078 0.559869 0.717106 -0.102856
C132  C     C_R   0.058921 0.559870 0.282894 -0.102855
C133  C     C_R   0.441079 0.059871 0.717106 -0.102852
C134  C     C_R   0.558922 0.059869 0.282893 -0.102855
C135  C     C_R   0.000105 0.499054 0.880818 0.796137
C136  C     C_R   0.999895 0.499054 0.119182 0.796137
C137  C     C_R   0.500105 0.999054 0.880818 0.796137
C138  C     C_R   0.499895 0.999054 0.119182 0.796136
C139  C     C_R   1.000000 0.566201 0.000000 0.790947
C140  C     C_R   0.500000 0.066201 0.000000 0.790947
C141  C     C_R   0.500000 0.433714 0.000000 0.808500
C142  C     C_R   1.000000 0.933714 0.000000 0.808499
C143  C     C_R   0.433756 0.499926 0.066404 0.799535
C144  C     C_R   0.566244 0.499926 0.933596 0.799532
C145  C     C_R   0.933756 0.999926 0.066404 0.799535
C146  C     C_R   0.066244 0.999926 0.933596 0.799533
C147  C     C_R   0.500000 0.566091 0.000000 0.790134
C148  C     C_R   1.000000 0.066091 0.000000 0.790134
C149  C     C_R   0.498097 0.622093 0.057600 -0.184758
C150  C     C_R   0.501903 0.622093 0.942400 -0.184759
C151  C     C_R   0.998097 0.122093 0.057600 -0.184759
C152  C     C_R   0.001903 0.122093 0.942400 -0.184758
C153  C     C_R   0.498065 0.657809 0.057618 -0.171744
C154  C     C_R   0.501935 0.657809 0.942382 -0.171744
C155  C     C_R   0.998065 0.157809 0.057618 -0.171745
C156  C     C_R   0.001935 0.157809 0.942382 -0.171744
C157  C     C_R   0.500000 0.676025 0.000000 0.106943
C158  C     C_R   1.000000 0.176026 1.000000 0.106944
C159  C     C_R   0.500000 0.603871 0.000000 -0.032626
C160  C     C_R   1.000000 0.103871 0.000000 -0.032627
C161  C     C_R   0.481144 0.732127 0.974755 -0.177205
C162  C     C_R   0.518855 0.732127 0.025245 -0.177203
C163  C     C_R   0.981144 0.232127 0.974755 -0.177204
C164  C     C_R   0.018855 0.232127 0.025245 -0.177203
C165  C     C_R   0.940433 0.528684 0.749580 0.064744
C166  C     C_R   0.059567 0.528684 0.250420 0.064747
C167  C     C_R   0.440433 0.028685 0.749580 0.064746
C168  C     C_R   0.559567 0.028684 0.250420 0.064745
C169  C     C_R   0.981157 0.267839 0.974725 -0.178368
C170  C     C_R   0.018843 0.267839 0.025275 -0.178370
C171  C     C_R   0.481157 0.767839 0.974725 -0.178369
C172  C     C_R   0.518843 0.767839 0.025275 -0.178369
C173  C     C_R   1.000000 0.286053 1.000000 0.096568
C174  C     C_R   0.500000 0.786053 0.000000 0.096568
C175  C     C_R   0.500000 0.713911 0.000000 0.098557
C176  C     C_R   1.000000 0.213910 1.000000 0.098556
C177  C     C_R   0.030414 0.342147 0.980472 -0.176836
C178  C     C_R   0.969586 0.342147 0.019528 -0.176836
C179  C     C_R   0.530414 0.842147 0.980472 -0.176837
C180  C     C_R   0.469586 0.842147 0.019528 -0.176835
C181  C     C_R   0.030398 0.377854 0.980596 -0.206653
C182  C     C_R   0.969602 0.377854 0.019403 -0.206652
C183  C     C_R   0.530398 0.877854 0.980597 -0.206653
C184  C     C_R   0.469602 0.877854 0.019403 -0.206652
C185  C     C_R   1.000000 0.396038 1.000000 -0.031302
C186  C     C_R   0.500000 0.896038 0.000000 -0.031302
C187  C     C_R   0.000000 0.323933 1.000000 0.113663
C188  C     C_R   0.500000 0.823933 0.000000 0.113663
C189  C     C_R   0.503429 0.377820 0.941175 -0.231019
C190  C     C_R   0.496571 0.377820 0.058825 -0.231019
C191  C     C_R   0.003452 0.877820 0.941157 -0.231020
C192  C     C_R   0.996549 0.877820 0.058843 -0.231020
C193  C     C_R   0.503903 0.341983 0.940089 0.010174
C194  C     C_R   0.496097 0.341983 0.059911 0.010175
C195  C     C_R   0.003926 0.841983 0.940070 0.010176
C196  C     C_R   0.996075 0.841983 0.059929 0.010176
C197  C     C_R   0.500000 0.323732 1.000000 -0.004829
C198  C     C_R   0.000000 0.823733 1.000000 -0.004833
C199  C     C_R   0.909058 0.511826 0.790271 -0.209306
C200  C     C_R   0.090941 0.511827 0.209732 -0.209309
C201  C     C_R   0.409059 0.011827 0.790268 -0.209309
C202  C     C_R   0.590941 0.011826 0.209731 -0.209306
C203  C     C_R   0.500000 0.395933 1.000000 -0.067776
C204  C     C_R   0.000000 0.895933 1.000000 -0.067771
C205  C     C_R   0.525493 0.267853 0.006105 -0.162837
C206  C     C_R   0.474507 0.267853 0.993895 -0.162838
C207  C     C_R   0.025481 0.767853 0.006148 -0.162840
C208  C     C_R   0.974519 0.767853 0.993852 -0.162841
C209  C     C_R   0.025445 0.732161 0.006335 -0.178665
C210  C     C_R   0.974555 0.732161 0.993666 -0.178664
C211  C     C_R   0.525457 0.232161 0.006293 -0.178665
C212  C     C_R   0.474543 0.232161 0.993707 -0.178665
C213  C     C_R   0.000000 0.713949 0.000000 0.096249
C214  C     C_R   0.500000 0.213949 1.000000 0.096250
C215  C     C_R   0.500000 0.285876 1.000000 0.094478
C216  C     C_R   0.000000 0.785876 0.000000 0.094480
C217  C     C_R   0.030910 0.657864 0.963469 -0.171720
C218  C     C_R   0.969090 0.657864 0.036532 -0.171720
C219  C     C_R   0.530909 0.157863 0.963442 -0.171717
C220  C     C_R   0.469091 0.157863 0.036558 -0.171719
C221  C     C_R   0.030921 0.622154 0.963573 -0.185018
C222  C     C_R   0.969079 0.622155 0.036428 -0.185018
C223  C     C_R   0.530919 0.122154 0.963547 -0.185019
C224  C     C_R   0.469080 0.122154 0.036453 -0.185019
C225  C     C_R   1.000000 0.603952 0.000000 -0.032893
C226  C     C_R   0.500000 0.103952 0.000000 -0.032889
C227  C     C_R   0.000000 0.676077 0.000000 0.109559
C228  C     C_R   0.500000 0.176076 1.000000 0.109562
C229  C     C_R   0.878149 0.526072 0.799990 0.076911
C230  C     C_R   0.121850 0.526074 0.200013 0.076912
C231  C     C_R   0.378150 0.026074 0.799987 0.076912
C232  C     C_R   0.621851 0.026072 0.200011 0.076913
C233  C     C_R   0.879481 0.557095 0.765661 -0.147389
C234  C     C_R   0.120518 0.557098 0.234340 -0.147388
C235  C     C_R   0.379482 0.057098 0.765660 -0.147387
C236  C     C_R   0.620519 0.057096 0.234339 -0.147388
C237  C     C_R   0.972821 0.513847 0.810373 -0.229262
C238  C     C_R   0.027179 0.513848 0.189627 -0.229262
C239  C     C_R   0.472821 0.013848 0.810373 -0.229261
C240  C     C_R   0.527179 0.013847 0.189626 -0.229261
Cu1   Cu    Cu3+1 1.000000 0.534200 0.500000 0.920990
Cu2   Cu    Cu3+1 0.500000 0.034200 0.500000 0.920990
Cu3   Cu    Cu3+1 1.000000 0.465780 0.500000 0.943894
Cu4   Cu    Cu3+1 0.500000 0.965780 0.500000 0.943894
Cu5   Cu    Cu3+1 0.965790 0.499970 0.034190 0.945086
Cu6   Cu    Cu3+1 0.034210 0.499970 0.965810 0.945086
Cu7   Cu    Cu3+1 0.465790 0.999970 0.034190 0.945087
Cu8   Cu    Cu3+1 0.534210 0.999970 0.965810 0.945086
Cu9   Cu    Cu3+1 0.499990 0.499910 0.061810 0.928855
Cu10  Cu    Cu3+1 0.500010 0.499910 0.938190 0.928856
Cu11  Cu    Cu3+1 0.999990 0.999910 0.061810 0.928854
Cu12  Cu    Cu3+1 0.000010 0.999910 0.938190 0.928854
H1    H     H_    0.856326 0.569165 0.772315 0.117771
H2    H     H_    0.143672 0.569168 0.227686 0.117771
H3    H     H_    0.356328 0.069169 0.772313 0.117770
H4    H     H_    0.643674 0.069166 0.227686 0.117771
H5    H     H_    0.127268 0.408065 0.754456 0.120312
H6    H     H_    0.872732 0.408064 0.245543 0.120312
H7    H     H_    0.627267 0.908064 0.754457 0.120312
H8    H     H_    0.372732 0.908065 0.245544 0.120312
H9    H     H_    0.066593 0.391394 0.831196 0.132635
H10   H     H_    0.933407 0.391393 0.168803 0.132636
H11   H     H_    0.566593 0.891393 0.831197 0.132636
H12   H     H_    0.433406 0.891394 0.168804 0.132635
H13   H     H_    0.020086 0.425613 0.831663 0.102754
H14   H     H_    0.979914 0.425613 0.168337 0.102754
H15   H     H_    0.520086 0.925613 0.831663 0.102754
H16   H     H_    0.479914 0.925613 0.168337 0.102754
H17   H     H_    0.391826 0.497392 0.010687 0.146599
H18   H     H_    0.608174 0.497385 0.989313 0.146599
H19   H     H_    0.891826 0.997389 0.010687 0.146599
H20   H     H_    0.108174 0.997394 0.989313 0.146599
H21   H     H_    0.328777 0.501685 0.272466 0.142107
H22   H     H_    0.671223 0.501691 0.727534 0.142107
H23   H     H_    0.828777 0.001687 0.272466 0.142108
H24   H     H_    0.171223 0.001683 0.727533 0.142107
H25   H     H_    0.391261 0.501788 0.208911 0.157285
H26   H     H_    0.608739 0.501794 0.791089 0.157284
H27   H     H_    0.891261 0.001789 0.208911 0.157285
H28   H     H_    0.108739 0.001785 0.791089 0.157284
H29   H     H_    0.281503 0.551615 0.189992 0.131536
H30   H     H_    0.718497 0.551613 0.810020 0.131536
H31   H     H_    0.781503 0.051614 0.189988 0.131537
H32   H     H_    0.218497 0.051616 0.810006 0.131536
H33   H     H_    0.218871 0.551987 0.255537 0.121360
H34   H     H_    0.781128 0.551985 0.744475 0.121359
H35   H     H_    0.718872 0.051986 0.255532 0.121360
H36   H     H_    0.281128 0.051987 0.744461 0.121360
H37   H     H_    0.219356 0.449058 0.328440 0.125707
H38   H     H_    0.780644 0.449060 0.671549 0.125707
H39   H     H_    0.719356 0.949059 0.328445 0.125707
H40   H     H_    0.280644 0.949057 0.671562 0.125707
H41   H     H_    0.911398 0.597760 0.698982 0.127463
H42   H     H_    0.088600 0.597763 0.301016 0.127463
H43   H     H_    0.411401 0.097763 0.698984 0.127463
H44   H     H_    0.588601 0.097761 0.301016 0.127463
H45   H     H_    0.282134 0.448735 0.260694 0.133245
H46   H     H_    0.717866 0.448737 0.739295 0.133244
H47   H     H_    0.782134 0.948736 0.260699 0.133245
H48   H     H_    0.217866 0.948735 0.739308 0.133246
H49   H     H_    0.172081 0.447296 0.307680 0.127857
H50   H     H_    0.827919 0.447295 0.692312 0.127856
H51   H     H_    0.672081 0.947296 0.307686 0.127856
H52   H     H_    0.327919 0.947297 0.692322 0.127858
H53   H     H_    0.109654 0.447110 0.365406 0.148615
H54   H     H_    0.890346 0.447108 0.634585 0.148616
H55   H     H_    0.609654 0.947109 0.365413 0.148616
H56   H     H_    0.390346 0.947110 0.634595 0.148615
H57   H     H_    0.107830 0.553146 0.423370 0.147657
H58   H     H_    0.892169 0.553148 0.576639 0.147657
H59   H     H_    0.607830 0.053147 0.423364 0.147658
H60   H     H_    0.392170 0.053146 0.576628 0.147656
H61   H     H_    0.170111 0.552976 0.368434 0.127780
H62   H     H_    0.829889 0.552978 0.631576 0.127780
H63   H     H_    0.670111 0.052978 0.368428 0.127781
H64   H     H_    0.329889 0.052976 0.631565 0.127781
H65   H     H_    0.496463 0.608789 0.102906 0.150820
H66   H     H_    0.503537 0.608790 0.897094 0.150820
H67   H     H_    0.996463 0.108789 0.102906 0.150820
H68   H     H_    0.003537 0.108789 0.897094 0.150820
H69   H     H_    0.496074 0.671182 0.103168 0.125638
H70   H     H_    0.503926 0.671183 0.896832 0.125637
H71   H     H_    0.996074 0.171182 0.103168 0.125638
H72   H     H_    0.003926 0.171182 0.896832 0.125638
H73   H     H_    0.466086 0.718758 0.955682 0.126379
H74   H     H_    0.533914 0.718758 0.044318 0.126378
H75   H     H_    0.966086 0.218758 0.955682 0.126378
H76   H     H_    0.033914 0.218758 0.044318 0.126378
H77   H     H_    0.966693 0.281211 0.954236 0.126462
H78   H     H_    0.033306 0.281211 0.045764 0.126462
H79   H     H_    0.466693 0.781211 0.954236 0.126462
H80   H     H_    0.533306 0.781211 0.045764 0.126462
H81   H     H_    0.054324 0.328781 0.964282 0.124855
H82   H     H_    0.945676 0.328781 0.035717 0.124855
H83   H     H_    0.554324 0.828781 0.964283 0.124855
H84   H     H_    0.445676 0.828781 0.035718 0.124854
H85   H     H_    0.964859 0.573822 0.687526 0.139357
H86   H     H_    0.035139 0.573823 0.312472 0.139355
H87   H     H_    0.464861 0.073823 0.687528 0.139354
H88   H     H_    0.535140 0.073822 0.312472 0.139355
H89   H     H_    0.054221 0.391205 0.965408 0.149822
H90   H     H_    0.945779 0.391205 0.034592 0.149821
H91   H     H_    0.554221 0.891205 0.965408 0.149822
H92   H     H_    0.445779 0.891205 0.034592 0.149821
H93   H     H_    0.506508 0.391579 0.895064 0.159457
H94   H     H_    0.493492 0.391579 0.104936 0.159456
H95   H     H_    0.006548 0.891579 0.895032 0.159451
H96   H     H_    0.993452 0.891579 0.104967 0.159451
H97   H     H_    0.545371 0.281480 0.010747 0.132419
H98   H     H_    0.454628 0.281480 0.989253 0.132419
H99   H     H_    0.045351 0.781480 0.010823 0.132416
H100  H     H_    0.954650 0.781480 0.989177 0.132417
H101  H     H_    0.045092 0.718812 0.012235 0.127291
H102  H     H_    0.954909 0.718813 0.987765 0.127291
H103  H     H_    0.545112 0.218813 0.012161 0.127289
H104  H     H_    0.454888 0.218813 0.987839 0.127289
H105  H     H_    0.055071 0.671229 0.934011 0.123881
H106  H     H_    0.944929 0.671229 0.065989 0.123881
H107  H     H_    0.555068 0.171228 0.933964 0.123878
H108  H     H_    0.444932 0.171228 0.066036 0.123879
H109  H     H_    0.055148 0.608834 0.934731 0.150709
H110  H     H_    0.944852 0.608834 0.065269 0.150709
H111  H     H_    0.555146 0.108833 0.934684 0.150706
H112  H     H_    0.444854 0.108833 0.065315 0.150706
H113  H     H_    0.908954 0.487651 0.814796 0.131652
H114  H     H_    0.091046 0.487651 0.185208 0.131651
H115  H     H_    0.408954 0.987652 0.814791 0.131651
H116  H     H_    0.591046 0.987651 0.185207 0.131651
H117  H     H_    0.952113 0.525515 0.857241 0.160076
H118  H     H_    0.047887 0.525516 0.142759 0.160076
H119  H     H_    0.452113 0.025516 0.857241 0.160077
H120  H     H_    0.547887 0.025515 0.142759 0.160077
H121  H     H_    0.046119 0.471771 0.642500 0.141909
H122  H     H_    0.953881 0.471770 0.357500 0.141909
H123  H     H_    0.546119 0.971770 0.642500 0.141910
H124  H     H_    0.453881 0.971771 0.357500 0.141909
H125  H     H_    0.095468 0.493276 0.675730 0.123504
H126  H     H_    0.904532 0.493276 0.324269 0.123503
H127  H     H_    0.595468 0.993275 0.675731 0.123504
H128  H     H_    0.404532 0.993276 0.324269 0.123503
H129  H     H_    0.141582 0.458903 0.676649 0.126339
H130  H     H_    0.858418 0.458902 0.323351 0.126339
H131  H     H_    0.641582 0.958902 0.676650 0.126339
H132  H     H_    0.358418 0.958903 0.323351 0.126339
O1    O     O_R   0.049900 0.528880 0.450120 -0.587952
O2    O     O_R   0.950100 0.528880 0.549880 -0.587952
O3    O     O_R   0.549900 0.028880 0.450120 -0.587953
O4    O     O_R   0.450100 0.028880 0.549880 -0.587951
O5    O     O_R   0.450080 0.499920 0.102080 -0.587801
O6    O     O_R   0.549920 0.499920 0.897920 -0.587800
O7    O     O_R   0.950080 0.999920 0.102080 -0.587803
O8    O     O_R   0.049920 0.999920 0.897920 -0.587802
O9    O     O_R   0.450080 0.499990 0.997700 -0.591430
O10   O     O_R   0.549920 0.499990 0.002300 -0.591430
O11   O     O_R   0.950080 0.999990 0.997700 -0.591429
O12   O     O_R   0.049920 0.999990 0.002300 -0.591429
O13   O     O_R   0.500010 0.549830 0.052300 -0.588863
O14   O     O_R   0.499990 0.549830 0.947700 -0.588863
O15   O     O_R   0.000010 0.049830 0.052300 -0.588864
O16   O     O_R   0.999990 0.049830 0.947700 -0.588862
O17   O     O_R   0.049890 0.471100 0.450130 -0.590837
O18   O     O_R   0.950110 0.471100 0.549870 -0.590837
O19   O     O_R   0.549890 0.971100 0.450130 -0.590837
O20   O     O_R   0.450110 0.971100 0.549870 -0.590837
O21   O     O_R   1.000000 0.528880 0.590180 -0.595940
O22   O     O_R   1.000000 0.528880 0.409820 -0.595938
O23   O     O_R   0.500000 0.028880 0.590180 -0.595939
O24   O     O_R   0.500000 0.028880 0.409820 -0.595939
O25   O     O_R   0.999980 0.471100 0.590190 -0.582427
O26   O     O_R   0.000020 0.471100 0.409810 -0.582428
O27   O     O_R   0.499980 0.971100 0.590190 -0.582429
O28   O     O_R   0.500020 0.971100 0.409810 -0.582427
O29   O     O_R   0.971100 0.450060 0.028870 -0.586326
O30   O     O_R   0.028900 0.450060 0.971130 -0.586327
O31   O     O_R   0.471100 0.950060 0.028870 -0.586327
O32   O     O_R   0.528900 0.950060 0.971130 -0.586326
O33   O     O_R   0.971100 0.499970 0.938700 -0.593432
O34   O     O_R   0.028900 0.499970 0.061300 -0.593432
O35   O     O_R   0.471100 0.999970 0.938700 -0.593430
O36   O     O_R   0.528900 0.999970 0.061300 -0.593430
O37   O     O_R   0.028870 0.499990 0.880960 -0.571453
O38   O     O_R   0.971130 0.499990 0.119040 -0.571453
O39   O     O_R   0.528870 0.999990 0.880960 -0.571455
O40   O     O_R   0.471130 0.999990 0.119040 -0.571455
O41   O     O_R   0.971110 0.549880 0.028880 -0.589673
O42   O     O_R   0.028890 0.549880 0.971120 -0.589673
O43   O     O_R   0.471110 0.049880 0.028880 -0.589672
O44   O     O_R   0.528890 0.049880 0.971120 -0.589673
O45   O     O_R   0.499980 0.450010 0.052100 -0.589837
O46   O     O_R   0.500020 0.450010 0.947900 -0.589836
O47   O     O_R   0.999980 0.950010 0.052100 -0.589835
O48   O     O_R   0.000020 0.950010 0.947900 -0.589835
C241  C     C_3   0.320909 0.494895 0.064671 -0.416367
C242  C     C_3   0.342131 0.490318 0.984118 -0.360150
C243  C     C_3   0.319016 0.485496 0.951473 -0.857604
H133  H     H_    0.304106 0.461423 0.971125 0.245430
H134  H     H_    0.301116 0.507458 0.964772 0.256738
H135  H     H_    0.334967 0.483801 0.893096 0.242038
H136  H     H_    0.358314 0.513355 0.960083 0.218535
H137  H     H_    0.358859 0.467393 0.971436 0.219672
H138  H     H_    0.303322 0.472605 0.086764 0.202885
H139  H     H_    0.304993 0.518285 0.075426 0.196129
C244  C     C_3   0.679091 0.494886 0.935328 -0.416364
C245  C     C_3   0.657869 0.490304 0.015880 -0.360139
C246  C     C_3   0.680983 0.485476 0.048524 -0.857603
H140  H     H_    0.695894 0.461403 0.028866 0.245429
H141  H     H_    0.698884 0.507437 0.035233 0.256735
H142  H     H_    0.665033 0.483776 0.106902 0.242036
H143  H     H_    0.641686 0.513340 0.039923 0.218532
H144  H     H_    0.641141 0.467379 0.028556 0.219670
H145  H     H_    0.696678 0.472596 0.913229 0.202885
H146  H     H_    0.695007 0.518276 0.924580 0.196126
C247  C     C_3   0.820908 0.994892 0.064672 -0.416369
C248  C     C_3   0.842130 0.990314 0.984119 -0.360150
C249  C     C_3   0.819016 0.985491 0.951475 -0.857605
H147  H     H_    0.804106 0.961418 0.971128 0.245431
H148  H     H_    0.801115 0.007452 0.964773 0.256738
H149  H     H_    0.834966 0.983795 0.893098 0.242038
H150  H     H_    0.858314 0.013351 0.960082 0.218535
H151  H     H_    0.858859 0.967390 0.971439 0.219674
H152  H     H_    0.803323 0.972603 0.086767 0.202886
H153  H     H_    0.804992 0.018282 0.075425 0.196129
C250  C     C_3   0.179091 0.994897 0.935329 -0.416367
C251  C     C_3   0.157869 0.990322 0.015883 -0.360150
C252  C     C_3   0.180983 0.985500 0.048528 -0.857598
H154  H     H_    0.195894 0.961427 0.028879 0.245430
H155  H     H_    0.198884 0.007462 0.035227 0.256737
H156  H     H_    0.165033 0.983807 0.106906 0.242037
H157  H     H_    0.141686 0.013359 0.039916 0.218534
H158  H     H_    0.141141 0.967397 0.028566 0.219673
H159  H     H_    0.196677 0.972607 0.913238 0.202885
H160  H     H_    0.195007 0.018287 0.924573 0.196129
C253  C     C_R   0.509306 0.324330 0.874940 0.107972
C254  C     C_R   0.537226 0.302032 0.838529 -0.120417
C255  C     C_R   0.542020 0.285284 0.777439 -0.135440
C256  C     C_R   0.519183 0.290846 0.751969 -0.111457
C257  C     C_R   0.491559 0.313241 0.787452 -0.135164
C258  C     C_R   0.486642 0.330015 0.848622 -0.170237
H161  H     H_    0.555284 0.297697 0.857335 0.123039
H162  H     H_    0.563485 0.268043 0.749763 0.123337
H163  H     H_    0.522935 0.277865 0.704658 0.118537
H164  H     H_    0.473921 0.317569 0.767609 0.123575
H165  H     H_    0.465017 0.347153 0.875854 0.124294
C259  C     C_R   0.490694 0.324330 0.125059 0.107971
C260  C     C_R   0.462775 0.302032 0.161471 -0.120415
C261  C     C_R   0.457980 0.285284 0.222560 -0.135439
C262  C     C_R   0.480817 0.290846 0.248031 -0.111457
C263  C     C_R   0.508441 0.313241 0.212547 -0.135163
C264  C     C_R   0.513358 0.330015 0.151378 -0.170237
H166  H     H_    0.444716 0.297697 0.142664 0.123038
H167  H     H_    0.436516 0.268042 0.250236 0.123336
H168  H     H_    0.477065 0.277865 0.295342 0.118538
H169  H     H_    0.526079 0.317569 0.232391 0.123575
H170  H     H_    0.534983 0.347153 0.124146 0.124294
C265  C     C_R   0.009356 0.824330 0.874903 0.107975
C266  C     C_R   0.037279 0.802032 0.838529 -0.120417
C267  C     C_R   0.042100 0.785285 0.777421 -0.135442
C268  C     C_R   0.019285 0.790847 0.751893 -0.111457
C269  C     C_R   0.991658 0.813242 0.787339 -0.135168
C270  C     C_R   0.986715 0.830016 0.848528 -0.170231
H171  H     H_    0.055321 0.797696 0.857380 0.123039
H172  H     H_    0.063566 0.768043 0.749774 0.123338
H173  H     H_    0.023057 0.777867 0.704567 0.118539
H174  H     H_    0.974038 0.817571 0.767452 0.123576
H175  H     H_    0.965089 0.847154 0.875730 0.124295
C271  C     C_R   0.990647 0.824330 0.125095 0.107973
C272  C     C_R   0.962723 0.802032 0.161472 -0.120416
C273  C     C_R   0.957905 0.785285 0.222579 -0.135442
C274  C     C_R   0.980721 0.790847 0.248101 -0.111457
C275  C     C_R   0.008348 0.813242 0.212653 -0.135166
C276  C     C_R   0.013289 0.830015 0.151466 -0.170232
H176  H     H_    0.944681 0.797697 0.142624 0.123038
H177  H     H_    0.936438 0.768043 0.250228 0.123338
H178  H     H_    0.976950 0.777866 0.295426 0.118539
H179  H     H_    0.025970 0.817570 0.232537 0.123575
H180  H     H_    0.034916 0.847153 0.124261 0.124295
C277  C     C_R   0.844756 0.509014 0.847221 0.102035
C278  C     C_R   0.817372 0.510779 0.832793 -0.141831
C279  C     C_R   0.786333 0.494198 0.876429 -0.136981
C280  C     C_R   0.782110 0.475888 0.935338 -0.117757
C281  C     C_R   0.808760 0.474377 0.951148 -0.130890
C282  C     C_R   0.839845 0.490869 0.907653 -0.155840
H181  H     H_    0.820047 0.524656 0.787427 0.130740
H182  H     H_    0.765543 0.495462 0.864542 0.144030
H183  H     H_    0.758177 0.462936 0.968876 0.122239
H184  H     H_    0.805322 0.460454 0.997281 0.123535
H185  H     H_    0.859787 0.489750 0.922070 0.118038
C283  C     C_R   0.155243 0.509016 0.152783 0.102036
C284  C     C_R   0.182628 0.510783 0.167212 -0.141830
C285  C     C_R   0.213667 0.494202 0.123577 -0.136981
C286  C     C_R   0.217890 0.475890 0.064671 -0.117755
C287  C     C_R   0.191240 0.474377 0.048860 -0.130889
C288  C     C_R   0.160154 0.490869 0.092354 -0.155842
H186  H     H_    0.179953 0.524661 0.212576 0.130738
H187  H     H_    0.234457 0.495467 0.135464 0.144032
H188  H     H_    0.241823 0.462938 0.031134 0.122235
H189  H     H_    0.194679 0.460453 0.002729 0.123535
H190  H     H_    0.140213 0.489748 0.077936 0.118038
C289  C     C_R   0.344757 0.009016 0.847216 0.102036
C290  C     C_R   0.317372 0.010783 0.832788 -0.141828
C291  C     C_R   0.286333 0.994203 0.876422 -0.136983
C292  C     C_R   0.282109 0.975890 0.935328 -0.117754
C293  C     C_R   0.308760 0.974377 0.951139 -0.130888
C294  C     C_R   0.339845 0.990869 0.907646 -0.155842
H191  H     H_    0.320047 0.024662 0.787423 0.130738
H192  H     H_    0.265543 0.995468 0.864535 0.144033
H193  H     H_    0.258177 0.962938 0.968865 0.122235
H194  H     H_    0.305321 0.960453 0.997270 0.123535
H195  H     H_    0.359787 0.989748 0.922063 0.118039
C295  C     C_R   0.655243 0.009014 0.152781 0.102035
C296  C     C_R   0.682628 0.010780 0.167210 -0.141830
C297  C     C_R   0.713667 0.994199 0.123575 -0.136981
C298  C     C_R   0.717890 0.975888 0.064668 -0.117756
C299  C     C_R   0.691240 0.974375 0.048858 -0.130887
C300  C     C_R   0.660154 0.990868 0.092352 -0.155841
H196  H     H_    0.679953 0.024658 0.212575 0.130739
H197  H     H_    0.734457 0.995464 0.135462 0.144031
H198  H     H_    0.741823 0.962935 0.031131 0.122236
H199  H     H_    0.694679 0.960452 0.002727 0.123535
H200  H     H_    0.640213 0.989747 0.077934 0.118038

loop_
_geom_bond_atom_site_label_1
_geom_bond_atom_site_label_2
_ccdc_geom_bond_type
C99   C103  A    
Cu9   O45   S    
C55   C59   A    
C298  C299  A    
C94   H38   S    
C247  H152  S    
C286  C287  A    
C198  C216  S    
C223  C226  A    
C189  C203  A    
C6    C238  A    
C206  H98   S    
Cu7   O31   S    
C129  C185  S    
C26   C50   A    
C292  C293  A    
C95   C99   A    
C194  C197  A    
C45   O25   A    
C205  C211  A    
C79   H31   S    
Cu1   O21   S    
C100  C104  A    
C252  H156  S    
C8    C138  S    
C285  C286  A    
C148  C160  S    
C191  H95   S    
C9    C13   A    
C181  H89   S    
C54   C74   A    
C77   C101  A    
C274  H178  S    
C152  C156  A    
Cu11  O7    S    
C251  C252  S    
C209  C213  A    
Cu9   O10   S    
C70   C74   A    
Cu2   Cu4   S    
C151  C155  A    
C42   H14   S    
C208  C216  A    
C24   C240  A    
C195  C198  A    
Cu9   O5    S    
C32   H132  S    
C84   H36   S    
C76   C146  S    
Cu5   Cu6   S    
C155  C158  A    
C57   C241  S    
C129  O30   A    
C200  C230  A    
C41   C49   A    
C2    O2    A    
C15   H123  S    
C273  H177  S    
C147  O14   A    
C202  H116  S    
C122  H62   S    
C150  C159  A    
Cu10  O14   S    
C27   C31   A    
C267  H172  S    
C84   C88   A    
C254  H161  S    
Cu7   O43   S    
C278  H181  S    
C172  H80   S    
C62   C66   A    
C179  C188  A    
C26   H126  S    
C271  C272  A    
C98   C102  A    
Cu2   O4    S    
C92   C236  A    
C90   H42   S    
C182  C185  A    
C131  H85   S    
C19   C23   A    
C281  H184  S    
Cu12  O48   S    
C78   C82   A    
C161  H73   S    
C16   C20   A    
C250  H159  S    
C268  C269  A    
C192  C204  A    
C261  H167  S    
C105  H49   S    
C210  H102  S    
C43   H15   S    
C178  C182  A    
C107  H51   S    
C23   C167  S    
C108  H52   S    
C290  H191  S    
C171  H79   S    
C55   H19   S    
C202  C232  A    
C56   H20   S    
C296  C297  A    
C139  O42   A    
C194  C259  S    
C253  C258  A    
C182  H90   S    
C106  C126  A    
C276  H180  S    
C195  C265  S    
C251  H158  S    
C244  H145  S    
C289  C294  A    
C140  C226  S    
Cu7   O40   S    
C218  H106  S    
C96   H40   S    
Cu8   O39   S    
C89   C131  A    
C39   C43   A    
C57   C61   A    
C278  C279  A    
C119  C123  A    
C148  O16   A    
C59   C63   A    
C70   H26   S    
C105  C125  A    
C60   C64   A    
C38   H10   S    
C48   O28   A    
C107  C127  A    
C295  C300  A    
C140  O44   A    
C141  O45   A    
C2    C114  S    
C254  C255  A    
C66   C70   A    
C156  C158  A    
C263  C264  A    
C168  C202  A    
C256  H163  S    
C230  C234  A    
C199  C229  A    
C261  C262  A    
C46   O26   A    
C99   H47   S    
Cu6   O42   S    
C22   C166  S    
C206  C212  A    
C240  H120  S    
C287  C288  A    
C265  C266  A    
C287  H189  S    
C33   H5    S    
C248  H150  S    
C249  H148  S    
C27   H127  S    
C293  H194  S    
C142  O48   A    
C242  H137  S    
C180  C184  A    
C219  H107  S    
C243  H134  S    
C21   C237  A    
C29   C33   A    
C86   C126  S    
C113  C117  A    
C164  C170  A    
C89   H41   S    
C135  O37   A    
C111  H55   S    
C220  C228  A    
Cu9   Cu10  S    
C260  C261  A    
C292  H193  S    
C64   C68   A    
C17   C45   S    
C48   O24   A    
C183  H91   S    
C295  C296  A    
C19   C47   S    
C155  H71   S    
C220  H108  S    
Cu5   O29   S    
C109  H53   S    
C232  C236  A    
C25   C29   A    
C118  C122  A    
Cu7   O35   S    
C260  H166  S    
Cu4   O20   S    
C238  H118  S    
C207  C216  A    
C149  C153  A    
Cu5   O33   S    
C85   C93   A    
C164  H76   S    
C87   C95   A    
C13   H121  S    
C298  H198  S    
C265  C270  A    
C95   H39   S    
C219  C228  A    
C2    O18   A    
C300  H200  S    
C110  C114  A    
C55   C75   A    
C44   C52   A    
C245  H144  S    
Cu10  O46   S    
C67   H23   S    
C79   C103  A    
C246  H140  S    
C136  O38   A    
C59   C247  S    
C163  C169  A    
C259  C260  A    
C27   C51   A    
C45   O21   A    
C8    C240  A    
Cu3   O26   S    
C117  H57   S    
C184  H92   S    
C30   C34   A    
C65   H21   S    
C285  H187  S    
C12   C16   A    
C9    C49   S    
C10   C14   A    
C183  C186  A    
C283  C284  A    
C138  O36   A    
C162  C175  A    
C222  C225  A    
C71   H27   S    
C241  H139  S    
C116  C120  A    
Cu10  O9    S    
C245  C246  S    
C72   H28   S    
C142  C204  S    
C246  H142  S    
C61   C101  S    
C30   H130  S    
C121  C125  A    
C291  C292  A    
C61   C65   A    
Cu3   O17   S    
C123  C127  A    
C293  C294  A    
C8    C12   A    
C201  H115  S    
C129  O29   A    
C284  C285  A    
C114  C118  A    
C108  C128  A    
C42   C50   A    
C3    O3    A    
C37   H9    S    
C26   C30   A    
C1    O1    A    
C123  H63   S    
C134  C168  A    
C81   H33   S    
C154  H70   S    
C93   C97   A    
C112  C116  A    
C83   H35   S    
C5    C237  A    
C108  C112  A    
C271  C276  A    
C5    C135  S    
C105  C109  A    
C173  C187  S    
C18   C22   A    
C107  C111  A    
C92   C134  A    
C14   H122  S    
C207  H99   S    
C28   C52   A    
C210  C213  A    
Cu5   O38   S    
C115  C119  A    
C268  H173  S    
C13   C17   A    
C106  H50   S    
C235  H3    S    
C277  C282  A    
C272  H176  S    
C223  H111  S    
C177  C181  A    
C96   C100  A    
C54   H18   S    
C36   H8    S    
C229  C233  A    
C191  C195  A    
C161  C171  A    
C189  C193  A    
C149  H65   S    
C40   C44   A    
C211  C214  A    
C162  C172  A    
C131  C165  A    
C269  H174  S    
C289  C290  A    
C207  C209  A    
C169  C173  A    
Cu10  O6    S    
Cu4   O27   S    
C231  C235  A    
C77   H29   S    
C31   H131  S    
C81   C85   A    
C273  C274  A    
C62   C102  S    
C206  C215  A    
C58   C62   A    
C83   C87   A    
C288  H190  S    
C88   C96   A    
C280  H183  S    
C78   C102  A    
C80   C84   A    
C242  C243  S    
Cu11  Cu12  S    
C147  O13   A    
C15   C19   A    
C5    C9    A    
C283  C288  A    
C1    C113  S    
C80   C104  A    
C192  C196  A    
C205  H97   S    
C290  C291  A    
C46   O22   A    
C177  H81   S    
C75   C145  S    
C54   C58   A    
C274  C275  A    
C179  H83   S    
Cu1   O2    S    
C94   C98   A    
C169  H77   S    
C21   C165  S    
C34   H6    S    
C64   C104  S    
C180  C188  A    
C156  H72   S    
C255  H162  S    
C180  H84   S    
C85   C125  S    
Cu11  O12   S    
C172  C174  A    
C275  H179  S    
C60   C250  S    
C69   C73   A    
C262  H168  S    
C229  C277  S    
C72   C76   A    
C277  C278  A    
C124  C128  A    
C90   C132  A    
C249  H147  S    
C119  H59   S    
C217  C221  A    
C120  H60   S    
C247  H153  S    
C47   O27   A    
C18   C46   S    
C256  C257  A    
C12   C52   S    
C139  O41   A    
C297  H197  S    
C133  H87   S    
C171  C174  A    
Cu6   O30   S    
C270  H175  S    
C110  H54   S    
C232  C295  S    
C272  C273  A    
C97   H45   S    
C154  C157  A    
C196  C198  A    
C53   C57   A    
Cu6   O34   S    
C7    C137  S    
C82   C86   A    
C25   H125  S    
C291  H192  S    
C33   C37   A    
C250  C251  S    
C221  C225  A    
C68   C72   A    
C35   C39   A    
C3    O19   A    
C257  C258  A    
C143  O5    A    
C208  H100  S    
C23   C239  A    
C162  H74   S    
C1    O17   A    
C28   C32   A    
C151  H67   S    
C152  H68   S    
C136  O34   A    
C236  H4    S    
C259  C264  A    
C20   C48   S    
C91   C133  A    
C217  C227  A    
C178  C187  A    
C178  H82   S    
C231  C289  S    
C189  H93   S    
C80   H32   S    
C118  H58   S    
C248  H151  S    
C266  H171  S    
C31   C35   A    
C66   H22   S    
C134  H88   S    
C299  C300  A    
C10   C50   S    
C32   C36   A    
C218  C227  A    
C138  O40   A    
C73   C143  S    
Cu11  O15   S    
Cu8   O32   S    
C74   C144  S    
Cu12  O16   S    
C4    C116  S    
C47   O23   A    
C6    C10   A    
Cu2   O24   S    
C146  O12   A    
Cu2   O3    S    
C92   H44   S    
C284  H186  S    
C177  C187  A    
C93   H37   S    
C139  C225  S    
C144  O6    A    
C165  C199  A    
C286  H188  S    
C3    C115  S    
C79   C83   A    
C43   C51   A    
C258  H165  S    
C65   C69   A    
Cu1   O22   S    
C91   H43   S    
C250  H160  S    
C184  C186  A    
C164  C176  A    
C67   C71   A    
C167  C201  A    
C153  C157  A    
C82   H34   S    
C25   C49   A    
C192  H96   S    
C219  C223  A    
C56   C60   A    
C205  C215  A    
C88   C128  S    
Cu12  O8    S    
C222  H110  S    
C121  H61   S    
C22   C238  A    
C170  C173  A    
C17   C21   A    
C145  O7    A    
C152  C160  A    
C146  O8    A    
C251  H157  S    
C56   C76   A    
C91   C235  A    
C244  H146  S    
C135  O33   A    
C14   C18   A    
Cu11  O47   S    
C137  O39   A    
C264  H170  S    
C147  C159  S    
C87   C127  S    
C132  H86   S    
C279  C280  A    
C44   H16   S    
Cu3   O25   S    
C7    C11   A    
C148  O15   A    
C209  H101  S    
Cu2   O23   S    
C213  C227  S    
C199  H113  S    
C24   C168  S    
C132  C166  A    
C38   C42   A    
C140  O43   A    
C282  H185  S    
C133  C167  A    
C141  O46   A    
C161  C175  A    
C190  C203  A    
C89   C233  A    
C269  C270  A    
Cu9   O13   S    
C241  H138  S    
C90   C234  A    
C246  H141  S    
C267  C268  A    
C124  H64   S    
C117  C121  A    
C78   H30   S    
C6    C136  S    
C86   C94   A    
C252  H155  S    
C58   C244  S    
Cu8   O44   S    
C20   C24   A    
C280  C281  A    
C249  H149  S    
C239  H119  S    
C28   H128  S    
C142  O47   A    
C77   C81   A    
C100  H48   S    
C63   C103  S    
C214  C228  S    
C281  C282  A    
C242  H136  S    
C197  C215  S    
C112  H56   S    
C243  H135  S    
C174  C188  S    
C145  O11   A    
C37   C41   A    
C230  C283  S    
C163  C176  A    
C218  C222  A    
C179  C183  A    
C279  H182  S    
C63   C67   A    
C35   H7    S    
C36   C40   A    
C262  C263  A    
C196  C271  S    
C255  C256  A    
C181  C185  A    
C211  H103  S    
C221  H109  S    
C253  C254  A    
C257  H164  S    
Cu1   Cu3   S    
C122  C126  A    
Cu4   O19   S    
C275  C276  A    
C29   H129  S    
Cu6   O37   S    
C68   H24   S    
C201  C231  A    
C53   H17   S    
C69   H25   S    
C252  H154  S    
C224  H112  S    
C163  H75   S    
C4    O4    A    
C294  H195  S    
C193  C253  S    
C109  C113  A    
C149  C159  A    
C248  C249  S    
C157  C175  S    
C158  C176  S    
C297  C298  A    
C7    C239  A    
C245  H143  S    
C144  O10   A    
C11   C15   A    
C150  C154  A    
C263  H169  S    
Cu4   O28   S    
Cu8   O36   S    
C98   H46   S    
Cu5   O41   S    
C220  C224  A    
C153  H69   S    
C130  O32   A    
C106  C110  A    
C234  H2    S    
C237  H117  S    
C34   C38   A    
C170  H78   S    
C53   C73   A    
C141  C203  S    
C212  C214  A    
C143  O9    A    
C224  C226  A    
Cu7   Cu8   S    
C130  C186  S    
C296  H196  S    
C233  H1    S    
C150  H66   S    
Cu12  O11   S    
C151  C160  A    
C16   H124  S    
C244  C245  S    
C190  H94   S    
C39   H11   S    
C71   C75   A    
C40   H12   S    
Cu3   O18   S    
Cu1   O1    S    
C193  C197  A    
C266  C267  A    
C41   H13   S    
C200  H114  S    
C299  H199  S    
C247  C248  S    
C166  C200  A    
C11   C51   S    
C190  C194  A    
C243  H133  S    
C208  C210  A    
C241  C242  S    
C191  C204  A    
C137  O35   A    
C4    O20   A    
C130  O31   A    
C111  C115  A    
C217  H105  S    
C97   C101  A    
C120  C124  A    
C212  H104  S    
