data_mof_unit_44006.cif
_audit_creation_date              2013-03-05T15:53:17-0500
_audit_creation_method            fapswitch 2.2
_symmetry_space_group_name_H-M    P1
_symmetry_Int_Tables_number       1
_space_group_crystal_system       triclinic
_cell_length_a                    11.515272
_cell_length_b                    10.609998
_cell_length_c                    9.99375
_cell_angle_alpha                 94.478252
_cell_angle_beta                  88.845218
_cell_angle_gamma                 93.375749
_cell_volume                      1215.01822085

loop_
_atom_site_label
_atom_site_type_symbol
_atom_site_description
_atom_site_fract_x
_atom_site_fract_y
_atom_site_fract_z
_atom_type_partial_charge
O1    O     O_R   0.500000 0.316780 0.614690 -0.614672
O2    O     O_R   0.499990 0.316750 0.385360 -0.640395
C1    C     C_R   0.507797 0.260289 0.494959 0.906215
O3    O     O_R   0.334450 0.500030 0.614670 -0.542606
O4    O     O_R   0.334440 0.500000 0.385330 -0.630207
C2    C     C_R   0.282286 0.500260 0.500955 0.958572
Zn1   Zn    Zn3+2 0.500010 0.500020 0.653130 1.040976
Zn2   Zn    Zn3+2 0.499990 0.499980 0.346870 1.015226
O5    O     O_R   0.500010 0.683250 0.614640 -0.604328
O6    O     O_R   0.500000 0.683220 0.385310 -0.594506
O7    O     O_R   0.665560 0.500000 0.614670 -0.627328
O8    O     O_R   0.665550 0.499970 0.385330 -0.610821
C3    C     C_R   0.489657 0.739820 0.505884 0.912797
C4    C     C_R   0.717755 0.500653 0.498974 0.877609
C5    C     C_1   0.161694 0.500778 0.502322 -0.018938
C6    C     C_1   0.059408 0.500967 0.501028 0.086487
C7    C     C_1   0.940678 0.500944 0.498421 0.061787
C8    C     C_1   0.838366 0.500821 0.497259 -0.115611
H1    H     H_    0.405819 0.097530 0.313679 0.179842
C9    C     C_R   0.646195 0.137274 0.679690 -0.255269
H2    H     H_    0.692057 0.222693 0.649029 0.194547
C10   C     C_R   0.663000 0.100414 0.808368 0.233280
C11   C     C_R   0.593246 0.997804 0.853547 0.155431
C12   C     C_R   0.516689 0.924979 0.763190 0.164998
C13   C     C_R   0.518067 0.952940 0.626086 -0.079086
C14   C     C_R   0.564106 0.071031 0.594545 -0.008670
C15   C     C_R   0.516546 0.125649 0.485958 -0.082726
C16   C     C_R   0.446755 0.053443 0.392876 -0.171415
C17   C     C_R   0.423026 0.925987 0.407873 0.306628
C18   C     C_R   0.467903 0.873504 0.519494 -0.134193
C19   C     C_R   0.366343 0.317166 0.134414 -0.168939
H3    H     H_    0.353347 0.324495 0.240275 0.197600
C20   C     C_R   0.313507 0.212276 0.064598 -0.050078
C21   C     C_R   0.320009 0.201822 0.926440 -0.188661
H4    H     H_    0.269511 0.124627 0.873394 0.216658
C22   C     C_R   0.358966 0.306603 0.857681 0.312845
C23   C     C_R   0.430262 0.408233 0.924201 0.045521
C24   C     C_R   0.432820 0.409405 0.068402 0.152240
N1    N     N_R   0.498930 0.498800 0.142780 -0.127529
C25   C     C_R   0.572764 0.579762 0.076383 0.018327
C26   C     C_R   0.573777 0.578611 0.932831 0.036192
N2    N     N_R   0.498900 0.498720 0.857170 -0.131629
N3    N     N_R   0.282362 0.326697 0.753091 0.229495
O9    O     O_R   0.270299 0.241067 0.652862 -0.420931
O10   O     O_R   0.194846 0.396125 0.784940 -0.346527
C27   C     C_1   0.657064 0.659246 0.864859 0.301692
N4    N     N_1   0.724392 0.723476 0.810463 -0.160955
N5    N     N_R   0.741728 0.176480 0.895854 0.239483
O11   O     O_R   0.834102 0.233432 0.846078 -0.345884
O12   O     O_R   0.714018 0.203656 0.021228 -0.321386
N6    N     N_R   0.597849 0.971391 0.991274 0.260396
O13   O     O_R   0.693705 0.933870 0.037394 -0.347397
O14   O     O_R   0.521106 0.017983 0.075342 -0.330487
N7    N     N_R   0.423845 0.842742 0.813324 0.239096
O15   O     O_R   0.324748 0.828548 0.751911 -0.343042
O16   O     O_R   0.431373 0.794047 0.927880 -0.326445
N8    N     N_R   0.345930 0.852291 0.316886 0.225098
O17   O     O_R   0.347959 0.870554 0.189848 -0.285742
O18   O     O_R   0.268674 0.771109 0.362206 -0.376267
C28   C     C_1   0.654470 0.662527 0.153677 0.340450
N9    N     N_1   0.720393 0.728470 0.215790 -0.120452
C29   C     C_1   0.237032 0.125473 0.133473 0.296610
N10   N     N_1   0.174392 0.056925 0.188736 -0.082977

loop_
_geom_bond_atom_site_label_1
_geom_bond_atom_site_label_2
_geom_bond_distance
_ccdc_geom_bond_type
C7    C8    1.178367 T    
O4    Zn2   1.937117 S    
C10   N5    1.439879 S    
C11   C12   1.425663 A    
C19   C20   1.382607 A    
C25   C26   1.433540 A    
C23   C24   1.441068 A    
C25   C28   1.441909 S    
Zn2   N1    2.038963 S    
C17   C18   1.405559 A    
C26   N2    1.368872 A    
C4    C8    1.388528 S    
C11   N6    1.428561 S    
C19   H3    1.062940 S    
C19   C24   1.404003 A    
O8    C4    1.295005 A    
Zn2   O8    1.952413 S    
C15   C16   1.394448 A    
N5    O12   1.301213 A    
O2    C1    1.295919 A    
C14   C15   1.404612 A    
C2    C5    1.388772 S    
O1    Zn1   1.952112 S    
C9    H2    1.083817 S    
Zn1   O7    1.937114 S    
H1    C16   1.079929 S    
N3    O10   1.302850 A    
C16   C17   1.382880 A    
N8    O17   1.298703 A    
C29   N10   1.157223 T    
C26   C27   1.442586 S    
C9    C14   1.404404 A    
O3    Zn1   1.952415 S    
C1    C15   1.433691 S    
C22   C23   1.443777 A    
C17   N8    1.437409 S    
C20   C21   1.377384 A    
C21   C22   1.399108 A    
N3    O9    1.302573 A    
O4    C2    1.291382 A    
O7    C4    1.292648 A    
N7    O16   1.298750 A    
N8    O18   1.301118 A    
O3    C2    1.296318 A    
C6    C7    1.367967 S    
C12   N7    1.446441 S    
C5    C6    1.178296 T    
N1    C25   1.371618 A    
C3    C18   1.450318 S    
C23   N2    1.408871 A    
C24   N1    1.363578 A    
C12   C13   1.423973 A    
Zn2   O6    1.952112 S    
C21   H4    1.085598 S    
C27   N4    1.157446 T    
Zn1   N2    2.040026 S    
C13   C18   1.416354 A    
Zn1   O5    2.011007 S    
O5    C3    1.292785 A    
N7    O15   1.301961 A    
N5    O11   1.301524 A    
C22   N3    1.417822 S    
O1    C1    1.299642 A    
C13   C14   1.388168 A    
C10   C11   1.411887 A    
C20   C29   1.441022 S    
O2    Zn2   2.011007 S    
N6    O13   1.300090 A    
C9    C10   1.393422 A    
C28   N9    1.157471 T    
N6    O14   1.299171 A    
O6    C3    1.310134 A    
