data_mof_unit_14192.cif
_audit_creation_date              2012-10-26T18:26:10-0400
_audit_creation_method            fapswitch 2.2
_symmetry_space_group_name_H-M    P1
_symmetry_Int_Tables_number       1
_space_group_crystal_system       triclinic
_cell_length_a                    13.872211
_cell_length_b                    8.697989
_cell_length_c                    7.451348
_cell_angle_alpha                 103.07955
_cell_angle_beta                  88.931398
_cell_angle_gamma                 92.652418
_cell_volume                      874.787972959

loop_
_atom_site_label
_atom_site_type_symbol
_atom_type_description
_atom_site_fract_x
_atom_site_fract_y
_atom_site_fract_z
_atom_type_partial_charge
C1    C     C_R   0.497162 0.199770 0.453692 0.549021
C2    C     C_1   0.869434 0.484762 0.432293 0.027762
C3    C     C_2   0.495800 0.031877 0.427698 -0.141562
C4    C     C_2   0.504200 0.968123 0.572302 -0.141561
C5    C     C_2   0.984867 0.576065 0.766943 0.591572
C6    C     C_2   0.015125 0.423886 0.233030 0.591623
C7    C     C_R   0.502838 0.800230 0.546307 0.549018
C8    C     C_R   0.318789 0.503329 0.532058 0.553853
C9    C     C_R   0.681211 0.496670 0.467942 0.553851
C10   C     C_1   0.783223 0.490470 0.445139 0.046205
C11   C     C_1   0.216777 0.509517 0.554858 0.046222
C12   C     C_2   0.973040 0.478073 0.421895 0.021517
C13   C     C_2   0.026958 0.521876 0.578086 0.021521
C14   C     C_1   0.130564 0.515209 0.567697 0.027786
Cu1   Cu    Cu3+1 0.510540 0.517220 0.682700 0.997207
Cu2   Cu    Cu3+1 0.489460 0.482780 0.317300 0.997213
H1    H     H_    0.487879 0.960358 0.288329 0.139825
H2    H     H_    0.512121 0.039642 0.711671 0.139826
H3    H     H_    0.425734 0.378757 0.960933 0.243822
H4    H     H_    0.574266 0.621243 0.039066 0.243820
H5    H     H_    0.871126 0.578074 0.940624 0.357180
H6    H     H_    0.128875 0.421771 0.059357 0.357161
N1    N     N_2   0.473570 0.456830 0.042740 -0.250263
N2    N     N_2   0.526430 0.543170 0.957260 -0.250264
O1    O     O_R   0.506850 0.286020 0.618680 -0.507985
O2    O     O_R   0.889700 0.534072 0.807228 -0.672943
O3    O     O_2   0.964657 0.344739 0.110083 -0.481285
O4    O     O_R   0.110313 0.465735 0.192767 -0.673012
O5    O     O_R   0.493150 0.713980 0.381320 -0.507988
O6    O     O_R   0.489050 0.256940 0.310110 -0.495961
O7    O     O_R   0.510950 0.743060 0.689890 -0.495963
O8    O     O_R   0.372320 0.516630 0.676100 -0.504375
O9    O     O_R   0.627680 0.483370 0.323900 -0.504369
O10   O     O_R   0.354510 0.487550 0.367530 -0.473588
O11   O     O_R   0.645490 0.512450 0.632470 -0.473598
O12   O     O_2   0.035313 0.655341 0.889861 -0.481288

loop_
_geom_bond_atom_site_label_1
_geom_bond_atom_site_label_2
_ccdc_geom_bond_type
H3    N1    S    
H5    O2    S    
Cu1   O7    S    
C7    O5    A    
Cu2   O9    S    
C9    C10   S    
C5    C13   S    
C6    O3    D    
N1    N2    D    
C4    H2    S    
C2    C12   S    
Cu1   O8    S    
H6    O4    S    
C13   C14   S    
C1    O1    A    
C9    O9    A    
C4    C7    S    
Cu1   O11   S    
Cu1   N2    S    
C3    H1    S    
Cu2   N1    S    
C8    C11   S    
C6    C12   S    
C11   C14   T    
Cu1   O1    S    
C7    O7    A    
Cu2   O6    S    
Cu1   Cu2   S    
C8    O8    A    
C5    O12   D    
H4    N2    S    
C12   C13   D    
C9    O11   A    
C1    O6    A    
C8    O10   A    
Cu2   O10   S    
Cu2   O5    S    
C6    O4    S    
C3    C4    D    
C5    O2    S    
C1    C3    S    
C2    C10   T    
