data_mof_unit_60785.cif
_audit_creation_date              2013-03-05T15:39:58-0500
_audit_creation_method            fapswitch 2.2
_symmetry_space_group_name_H-M    P1
_symmetry_Int_Tables_number       1
_space_group_crystal_system       triclinic
_cell_length_a                    19.427617
_cell_length_b                    18.873179
_cell_length_c                    18.701555
_cell_angle_alpha                 108.517252
_cell_angle_beta                  109.777923
_cell_angle_gamma                 110.036808
_cell_volume                      5283.1391931

loop_
_atom_site_label
_atom_site_type_symbol
_atom_site_description
_atom_site_fract_x
_atom_site_fract_y
_atom_site_fract_z
_atom_type_partial_charge
O1    O     O_R   0.411310 0.359450 0.448800 -0.520935
O2    O     O_R   0.410660 0.462490 0.551220 -0.595885
C1    C     C_R   0.380669 0.382039 0.497485 0.845537
O3    O     O_R   0.589930 0.448490 0.538390 -0.578941
O4    O     O_R   0.589280 0.551530 0.640800 -0.570028
C2    C     C_R   0.617519 0.500388 0.618980 0.850104
Cu1   Cu    Cu3+1 0.500390 0.438990 0.439360 1.052999
Cu2   Cu    Cu3+1 0.499610 0.561010 0.560640 1.014025
O5    O     O_R   0.589340 0.537510 0.448780 -0.580113
O6    O     O_R   0.588690 0.640550 0.551200 -0.597501
O7    O     O_R   0.410720 0.448470 0.359200 -0.583078
O8    O     O_R   0.410070 0.551510 0.461610 -0.583795
C3    C     C_R   0.616086 0.617974 0.498975 0.818715
C4    C     C_R   0.379528 0.496772 0.380913 0.863139
C5    C     C_R   0.772881 0.660787 0.755033 -0.148886
C6    C     C_R   0.842354 0.739071 0.825802 -0.122257
C7    C     C_R   0.898708 0.739931 0.896059 -0.114953
C8    C     C_R   0.888663 0.662314 0.893534 -0.147616
C9    C     C_R   0.821475 0.581581 0.819693 0.077017
C10   C     C_R   0.758690 0.581200 0.753263 0.076344
C11   C     C_R   0.815715 0.501602 0.809704 -0.121793
C12   C     C_R   0.744741 0.422256 0.736774 -0.071466
C13   C     C_R   0.672351 0.423328 0.687546 -0.071843
C14   C     C_R   0.682900 0.501827 0.688369 -0.122189
C15   C     C_R   0.741859 0.341127 0.711894 0.377980
C16   C     C_R   0.663968 0.264224 0.655469 -0.243617
C17   C     C_R   0.590109 0.266313 0.622258 -0.239338
C18   C     C_R   0.592680 0.345037 0.638395 0.377883
H1    H     H_    0.851535 0.799369 0.826829 0.141903
H2    H     H_    0.951160 0.800958 0.952289 0.149210
H3    H     H_    0.934026 0.667207 0.950407 0.145609
C19   C     C_2   0.255224 0.248605 0.571320 -0.096597
C20   C     C_2   0.175283 0.195684 0.506324 -0.185354
H4    H     H_    0.278376 0.240724 0.628226 0.179770
C21   C     C_2   0.312663 0.320505 0.567704 -0.168908
C22   C     C_2   0.314480 0.311945 0.493927 0.221349
H5    H     H_    0.358824 0.380332 0.628864 0.190162
C23   C     C_2   0.178854 0.500801 0.257407 0.362062
C24   C     C_2   0.181676 0.505964 0.187886 -0.418821
H6    H     H_    0.240008 0.521993 0.185848 0.137540
C25   C     C_2   0.253356 0.510700 0.326967 -0.187903
C26   C     C_2   0.306852 0.487005 0.311363 -0.354412
H7    H     H_    0.262790 0.536146 0.392520 0.202663
H8    H     H_    0.294112 0.454162 0.245155 0.161449
C27   C     C_2   0.746493 0.749264 0.427062 -0.144113
C28   C     C_2   0.821473 0.810194 0.498946 -0.295606
H9    H     H_    0.731038 0.750103 0.365922 0.168230
H10   H     H_    0.840949 0.804351 0.557522 0.157215
C29   C     C_2   0.685701 0.676545 0.427221 -0.137298
C30   C     C_2   0.679172 0.686956 0.498449 -0.301855
H11   H     H_    0.642313 0.615600 0.366563 0.168966
H12   H     H_    0.716162 0.750369 0.556239 0.153948
O9    O     O_R   0.945860 0.359480 0.908360 -0.566467
O10   O     O_R   0.048900 0.462510 0.908320 -0.537879
C31   C     C_R   0.996934 0.382417 0.879078 0.938233
O11   O     O_R   0.855710 0.448510 0.907250 -0.589103
O12   O     O_R   0.958760 0.551540 0.907200 -0.564788
C32   C     C_R   0.879769 0.500538 0.878157 0.830899
Cu3   Cu    Cu3+1 0.935830 0.439030 0.996840 1.065236
Cu4   Cu    Cu3+1 0.057850 0.561040 0.996790 1.056605
O13   O     O_R   0.944780 0.537560 0.085320 -0.561534
O14   O     O_R   0.047820 0.640590 0.085270 -0.603553
O15   O     O_R   0.034920 0.448530 0.086440 -0.544609
O16   O     O_R   0.137970 0.551560 0.086390 -0.595524
C33   C     C_R   0.997925 0.617516 0.115435 0.842939
C34   C     C_R   0.114441 0.501715 0.117409 0.880585
O17   O     O_R   0.051300 0.089020 0.640330 -0.594498
O18   O     O_R   0.947570 0.089010 0.536620 -0.537310
C35   C     C_R   0.002133 0.119183 0.617538 0.916256
O19   O     O_R   0.140880 0.089030 0.551840 -0.588642
O20   O     O_R   0.037150 0.089020 0.448130 -0.558538
C36   C     C_R   0.115769 0.120964 0.502672 0.865725
Cu5   Cu    Cu3+1 0.061410 0.000010 0.561410 1.002888
Cu6   Cu    Cu3+1 0.938590 0.999990 0.438590 1.047335
O21   O     O_R   0.052430 0.910990 0.463380 -0.573856
O22   O     O_R   0.948700 0.910980 0.359670 -0.589571
O23   O     O_R   0.962850 0.910980 0.551870 -0.585096
O24   O     O_R   0.859120 0.910970 0.448160 -0.582432
C37   C     C_R   0.001657 0.884637 0.382288 0.844509
C38   C     C_R   0.883678 0.880761 0.499263 0.829784
C39   C     C_2   0.010332 0.260031 0.681188 0.296519
C40   C     C_2   0.011826 0.191295 0.687117 -0.472851
H13   H     H_    0.028580 0.191567 0.748896 0.130804
C41   C     C_2   0.025338 0.332327 0.757221 0.305706
C42   C     C_2   0.990818 0.315841 0.806219 -0.390024
H14   H     H_    0.950769 0.249214 0.787987 0.158772
C43   C     C_2   0.071522 0.817967 0.321524 -0.117305
C44   C     C_2   0.002126 0.823056 0.312110 -0.302053
H15   H     H_    0.131002 0.861618 0.382847 0.178036
C45   C     C_2   0.070516 0.757459 0.247605 -0.126373
C46   C     C_2   0.999921 0.681708 0.185681 -0.277281
H16   H     H_    0.129602 0.773026 0.247213 0.172978
H17   H     H_    0.943335 0.661787 0.191230 0.158538
H18   H     H_    0.530456 0.205790 0.583881 0.211505
H19   H     H_    0.150677 0.210136 0.454613 0.183824
N1    N     N_R   0.264206 0.229847 0.414472 0.123871
O25   O     O_R   0.231373 0.227400 0.339855 -0.349122
O26   O     O_R   0.264777 0.161385 0.415460 -0.301198
N2    N     N_R   0.108996 0.495117 0.271212 0.145257
O27   O     O_R   0.089712 0.456367 0.313778 -0.313111
O28   O     O_R   0.075250 0.541346 0.256114 -0.351005
H20   H     H_    0.730955 0.664040 0.702422 0.139958
N3    N     N_R   0.002405 0.269196 0.605670 0.172195
O29   O     O_R   0.960221 0.305284 0.579839 -0.255812
O30   O     O_R   0.049168 0.256400 0.572872 -0.345556
N4    N     N_R   0.076928 0.418778 0.775945 0.167795
O31   O     O_R   0.042839 0.465494 0.763922 -0.236826
O32   O     O_R   0.151590 0.441970 0.784079 -0.325060
H21   H     H_    0.945275 0.786279 0.248422 0.152494
N5    N     N_R   0.816828 0.335274 0.731260 0.105786
O33   O     O_R   0.877223 0.387949 0.726838 -0.322578
O34   O     O_R   0.814270 0.264306 0.727529 -0.390163
H22   H     H_    0.660157 0.201906 0.636629 0.207283
N6    N     N_R   0.514606 0.344972 0.616377 0.090350
O35   O     O_R   0.443994 0.273388 0.556503 -0.357848
O36   O     O_R   0.512363 0.405789 0.671424 -0.403815

loop_
_geom_bond_atom_site_label_1
_geom_bond_atom_site_label_2
_geom_bond_distance
_ccdc_geom_bond_type
C43   C44   1.340410 D    
Cu5   O21   1.959703 S    
Cu5   Cu6   2.694274 S    
C21   C22   1.351393 D    
O22   C37   1.293893 A    
N6    O35   1.300194 A    
O9    Cu3   1.967439 S    
Cu1   Cu2   2.679074 S    
O10   Cu4   1.963462 S    
C42   H14   1.086539 S    
Cu1   O7    1.982611 S    
C16   C17   1.377485 A    
Cu6   O22   1.971400 S    
C21   H5    1.085835 S    
C23   C24   1.351997 D    
O7    C4    1.293479 A    
O24   C38   1.300001 A    
N4    O31   1.300702 A    
O18   Cu6   1.959702 S    
C5    C6    1.392414 A    
Cu4   O14   1.967438 S    
C8    C9    1.418877 A    
C25   C26   1.343910 D    
O5    C3    1.296562 A    
N5    O33   1.300172 A    
C35   C40   1.454161 S    
C20   C36   1.448554 S    
C45   H16   1.086270 S    
C10   C14   1.417529 A    
O18   C35   1.300538 A    
C29   H11   1.086320 S    
C12   C15   1.426594 A    
N1    O26   1.301851 A    
C30   H12   1.086399 S    
C13   C14   1.418626 A    
O17   Cu5   1.971401 S    
C4    C26   1.464879 S    
C27   H9    1.086367 S    
O15   C34   1.300878 A    
Cu3   Cu4   2.680359 S    
C11   C12   1.420926 A    
C7    H2    1.082604 S    
C25   H7    1.086673 S    
C26   H8    1.085607 S    
O3    Cu1   1.970593 S    
C20   H19   1.087262 S    
C37   C44   1.455961 S    
C39   C40   1.345737 D    
O9    C31   1.302229 A    
C5    C10   1.418358 A    
C28   H10   1.086358 S    
Cu3   O13   1.963560 S    
C19   C21   1.470704 S    
C41   C42   1.356548 D    
C23   C25   1.486018 S    
O3    C2    1.293865 A    
C24   H6    1.085749 S    
C6    C7    1.387821 A    
O12   Cu4   1.983724 S    
C15   C16   1.396954 A    
C27   C28   1.340332 D    
O1    C1    1.288107 A    
O16   C34   1.289130 A    
C31   C42   1.466346 S    
O13   C33   1.288164 A    
C46   H17   1.086023 S    
C22   N1    1.442603 S    
C41   N4    1.438143 S    
N2    O27   1.301059 A    
C27   C29   1.474011 S    
Cu2   O8    1.970590 S    
C2    C14   1.461710 S    
N1    O25   1.301088 A    
O19   Cu5   1.959317 S    
C7    C8    1.392874 A    
N3    O30   1.301252 A    
C13   C18   1.425211 A    
O20   Cu6   1.973643 S    
C18   N6    1.430358 S    
C15   N5    1.429471 S    
C44   H21   1.086087 S    
N2    O28   1.301530 A    
O8    C4    1.296347 A    
C40   H13   1.086933 S    
C43   H15   1.086256 S    
C24   C34   1.464872 S    
C45   C46   1.340130 D    
C17   C18   1.398299 A    
C39   C41   1.477545 S    
C39   N3    1.440307 S    
O23   C38   1.295140 A    
C33   C46   1.455148 S    
O10   C31   1.287955 A    
O14   C33   1.297837 A    
C9    C11   1.420173 A    
O1    Cu1   1.968392 S    
O2    Cu2   1.964364 S    
C23   N2    1.440501 S    
O6    C3    1.289028 A    
O4    Cu2   1.982613 S    
N6    O36   1.301251 A    
Cu3   O15   1.983816 S    
O11   Cu3   1.969353 S    
Cu4   O16   1.969468 S    
C19   C20   1.332457 D    
C9    C10   1.412118 A    
O2    C1    1.297356 A    
C6    H1    1.082590 S    
C16   H22   1.082756 S    
O20   C36   1.288738 A    
C28   C38   1.456523 S    
O12   C32   1.291575 A    
O4    C2    1.289687 A    
N4    O32   1.300763 A    
C1    C22   1.458964 S    
O11   C32   1.294471 A    
C5    H20   1.079614 S    
N5    O34   1.301534 A    
C3    C30   1.456070 S    
Cu1   O5    1.964364 S    
C11   C32   1.463946 S    
Cu2   O6    1.968391 S    
C29   C30   1.339508 D    
Cu6   O24   1.959316 S    
C43   C45   1.476206 S    
N3    O29   1.300959 A    
Cu5   O23   1.973642 S    
C12   C13   1.407474 A    
C17   H18   1.082681 S    
O19   C36   1.302546 A    
C8    H3    1.078881 S    
O17   C35   1.292037 A    
O21   C37   1.301012 A    
C19   H4    1.086023 S    
