data_mof_unit_26494.cif
_audit_creation_date              2013-03-05T15:41:32-0500
_audit_creation_method            fapswitch 2.2
_symmetry_space_group_name_H-M    P1
_symmetry_Int_Tables_number       1
_space_group_crystal_system       triclinic
_cell_length_a                    24.558115
_cell_length_b                    17.416926
_cell_length_c                    15.480169
_cell_angle_alpha                 90.173631
_cell_angle_beta                  129.249197
_cell_angle_gamma                 90.1227
_cell_volume                      5127.43856304

loop_
_atom_site_label
_atom_site_type_symbol
_atom_site_description
_atom_site_fract_x
_atom_site_fract_y
_atom_site_fract_z
_atom_type_partial_charge
C1    C     C_R   0.336982 0.382163 0.204882 -0.179274
C2    C     C_R   0.342052 0.628291 0.217275 -0.181300
C3    C     C_R   0.837909 0.879769 0.207444 -0.196182
C4    C     C_R   0.833999 0.105005 0.195591 -0.174769
H1    H     H_    0.283514 0.380860 0.174758 0.088537
H2    H     H_    0.289102 0.634808 0.187885 0.091357
H3    H     H_    0.784413 0.878178 0.177134 0.094209
H4    H     H_    0.780096 0.099538 0.163065 0.101687
N1    N     N_R   0.389430 0.421450 0.294590 -0.034451
N2    N     N_R   0.389430 0.578550 0.294590 -0.033785
N3    N     N_R   0.889430 0.921450 0.294590 -0.033543
N4    N     N_R   0.889430 0.078550 0.294590 -0.034332
C5    C     C_R   0.655612 0.367918 0.769191 -0.101824
C6    C     C_R   0.659863 0.627037 0.779796 -0.117649
C7    C     C_R   0.163882 0.881989 0.790546 -0.122999
C8    C     C_R   0.159508 0.127804 0.778728 -0.041009
H5    H     H_    0.705764 0.358606 0.788866 0.134205
H6    H     H_    0.710035 0.637616 0.799512 0.085949
H7    H     H_    0.215954 0.877041 0.815348 0.100135
H8    H     H_    0.209447 0.138709 0.797779 0.080258
N5    N     N_R   0.612200 0.424040 0.705410 -0.052789
N6    N     N_R   0.612200 0.575960 0.705410 -0.045316
N7    N     N_R   0.112200 0.924040 0.705410 -0.046205
N8    N     N_R   0.112200 0.075960 0.705410 -0.045273
C9    C     C_R   0.613760 0.394303 0.406450 -0.128147
C10   C     C_R   0.614770 0.604386 0.407389 -0.131012
C11   C     C_R   0.114398 0.895293 0.407087 -0.139803
C12   C     C_R   0.114302 0.103815 0.406668 -0.125285
H9    H     H_    0.590471 0.391558 0.319515 0.083764
H10   H     H_    0.592248 0.605817 0.320791 0.082645
H11   H     H_    0.091400 0.892479 0.320277 0.085682
H12   H     H_    0.090802 0.106072 0.319646 0.085209
N9    N     N_R   0.581780 0.422390 0.443390 -0.033144
N10   N     N_R   0.581780 0.577610 0.443390 -0.031983
N11   N     N_R   0.081780 0.922390 0.443390 -0.035805
N12   N     N_R   0.081780 0.077610 0.443390 -0.031858
C13   C     C_R   0.406422 0.362882 0.592533 -0.126698
C14   C     C_R   0.407252 0.637165 0.593847 -0.114080
C15   C     C_R   0.911713 0.859096 0.593590 -0.139303
C16   C     C_R   0.908389 0.138881 0.592956 -0.114436
H13   H     H_    0.425464 0.355713 0.676478 0.082166
H14   H     H_    0.428609 0.645614 0.678863 0.079839
H15   H     H_    0.937369 0.847673 0.679913 0.091853
H16   H     H_    0.928792 0.147696 0.677452 0.082869
N13   N     N_R   0.419850 0.423100 0.556610 -0.037525
N14   N     N_R   0.419850 0.576900 0.556610 -0.039034
N15   N     N_R   0.919850 0.923100 0.556610 -0.039695
N16   N     N_R   0.919850 0.076900 0.556610 -0.040040
C17   C     C_R   0.688823 0.396539 0.591839 -0.074685
C18   C     C_R   0.689205 0.603319 0.592600 -0.098027
C19   C     C_R   0.188938 0.897030 0.592581 -0.147853
C20   C     C_R   0.189284 0.102315 0.591950 -0.102043
H17   H     H_    0.736005 0.396925 0.677959 0.091100
H18   H     H_    0.736110 0.603398 0.678952 0.078307
H19   H     H_    0.235548 0.896777 0.679167 0.094115
H20   H     H_    0.236332 0.102531 0.678206 0.085862
N17   N     N_R   0.627410 0.423100 0.556610 -0.034473
N18   N     N_R   0.627410 0.576900 0.556610 -0.029052
N19   N     N_R   0.127410 0.923100 0.556610 -0.036302
N20   N     N_R   0.127410 0.076900 0.556610 -0.030495
C21   C     C_R   0.334299 0.360143 0.406634 -0.129432
C22   C     C_R   0.332789 0.637981 0.407931 -0.132577
C23   C     C_R   0.836330 0.858400 0.407582 -0.127315
C24   C     C_R   0.836420 0.141058 0.406872 -0.131570
H21   H     H_    0.290370 0.348631 0.320581 0.089313
H22   H     H_    0.286364 0.646987 0.323183 0.082365
H23   H     H_    0.791443 0.846910 0.322141 0.089811
H24   H     H_    0.794143 0.153271 0.320200 0.091468
N21   N     N_R   0.374220 0.422390 0.443390 -0.037797
N22   N     N_R   0.374220 0.577610 0.443390 -0.036009
N23   N     N_R   0.874220 0.922390 0.443390 -0.037616
N24   N     N_R   0.874220 0.077610 0.443390 -0.038245
C25   C     C_R   0.565935 0.367258 0.773188 -0.135437
C26   C     C_R   0.569978 0.626726 0.783462 -0.099368
C27   C     C_R   0.074999 0.885263 0.796189 -0.112565
C28   C     C_R   0.069854 0.127330 0.782876 -0.092278
H25   H     H_    0.535963 0.356777 0.800814 0.101175
H26   H     H_    0.539130 0.636152 0.809703 0.091925
H27   H     H_    0.047371 0.885948 0.829425 0.096840
H28   H     H_    0.039062 0.136837 0.809205 0.090693
N25   N     N_R   0.555000 0.424040 0.705410 -0.045046
N26   N     N_R   0.555000 0.575960 0.705410 -0.048267
N27   N     N_R   0.055000 0.924040 0.705410 -0.051458
N28   N     N_R   0.055000 0.075960 0.705410 -0.048294
C29   C     C_R   0.428342 0.381596 0.205436 -0.111909
C30   C     C_R   0.435756 0.632378 0.223319 -0.102352
C31   C     C_R   0.929338 0.879033 0.207967 -0.120627
C32   C     C_R   0.925768 0.106086 0.197504 -0.117532
H29   H     H_    0.458319 0.381036 0.176259 0.095416
H30   H     H_    0.471718 0.646012 0.207714 0.098932
H31   H     H_    0.959172 0.877926 0.178555 0.101809
H32   H     H_    0.955995 0.102593 0.168806 0.094580
N29   N     N_R   0.446630 0.421450 0.294590 -0.044576
N30   N     N_R   0.446630 0.578550 0.294590 -0.046668
N31   N     N_R   0.946630 0.921450 0.294590 -0.045048
N32   N     N_R   0.946630 0.078550 0.294590 -0.040450
C33   C     C_R   0.360140 0.354687 0.148723 0.128120
C34   C     C_R   0.370676 0.665462 0.174890 0.131245
C35   C     C_R   0.861706 0.850565 0.153001 0.124440
C36   C     C_R   0.855350 0.121578 0.133641 0.114746
C37   C     C_R   0.625697 0.327919 0.807322 0.115123
C38   C     C_R   0.633970 0.661364 0.828018 0.187924
C39   C     C_R   0.141984 0.856288 0.848931 0.190853
C40   C     C_R   0.133547 0.162632 0.826591 0.188737
C41   C     C_R   0.682050 0.378974 0.498715 -0.029535
C42   C     C_R   0.683195 0.619758 0.500057 -0.022744
C43   C     C_R   0.182702 0.880324 0.499853 -0.006031
C44   C     C_R   0.182904 0.118275 0.498907 -0.022864
C45   C     C_R   0.355525 0.319628 0.499697 0.008236
C46   C     C_R   0.355067 0.679090 0.501496 0.012424
C47   C     C_R   0.859977 0.816004 0.500888 -0.005602
C48   C     C_R   0.857875 0.182156 0.500253 0.012501
Ni1   Ni    Ni4+2 0.382890 0.500000 0.370170 0.218565
Ni2   Ni    Ni4+2 0.882890 0.000000 0.370170 0.211450
Ni3   Ni    Ni4+2 0.618740 0.500000 0.629830 0.223487
Ni4   Ni    Ni4+2 0.118740 0.000000 0.629830 0.240768
Ni5   Ni    Ni4+2 0.514090 0.500000 0.370170 0.218421
Ni6   Ni    Ni4+2 0.014090 0.000000 0.370170 0.208690
Ni7   Ni    Ni4+2 0.487550 0.500000 0.629830 0.216755
Ni8   Ni    Ni4+2 0.987550 0.000000 0.629830 0.220446
C49   C     C_3   0.357394 0.208313 0.602326 -0.387374
C50   C     C_3   0.356829 0.788156 0.607952 -0.383454
C51   C     C_3   0.859709 0.707859 0.607155 -0.392130
C52   C     C_3   0.857894 0.292941 0.603143 -0.377099
H33   H     H_    0.388893 0.241511 0.681634 0.147011
H34   H     H_    0.385328 0.753385 0.685140 0.147806
H35   H     H_    0.888993 0.743090 0.684549 0.151326
H36   H     H_    0.889846 0.260074 0.682182 0.153005
H37   H     H_    0.394863 0.174963 0.599519 0.171662
H38   H     H_    0.396773 0.821010 0.610558 0.176832
H39   H     H_    0.898932 0.673922 0.609412 0.162128
H40   H     H_    0.894870 0.327936 0.600710 0.172161
C53   C     C_3   0.810257 0.653706 0.607295 -0.405633
C54   C     C_3   0.808606 0.345782 0.604861 -0.414154
C55   C     C_3   0.309066 0.153362 0.603850 -0.405920
C56   C     C_3   0.308541 0.843614 0.608262 -0.412107
H41   H     H_    0.825569 0.592931 0.611212 0.153130
H42   H     H_    0.823606 0.406901 0.609406 0.150676
H43   H     H_    0.324347 0.092801 0.606278 0.156868
H44   H     H_    0.325579 0.903974 0.613953 0.157749
H45   H     H_    0.316656 0.164705 0.681535 0.156975
H46   H     H_    0.314185 0.831642 0.684035 0.154661
H47   H     H_    0.816751 0.665974 0.683847 0.154717
H48   H     H_    0.815554 0.332939 0.681588 0.177387
H49   H     H_    0.286826 0.342152 0.578567 0.171065
H50   H     H_    0.281954 0.654636 0.572258 0.160614
H51   H     H_    0.788214 0.843529 0.573217 0.171560
H52   H     H_    0.788246 0.157805 0.577897 0.175420
H53   H     H_    0.715089 0.763720 0.571087 0.197400
H54   H     H_    0.711896 0.235948 0.568998 0.220842
H55   H     H_    0.213179 0.261066 0.572812 0.196964
H56   H     H_    0.209202 0.736428 0.567560 0.160885
C57   C     C_3   0.258899 0.306149 0.501674 -0.408809
C58   C     C_3   0.256192 0.692317 0.497882 -0.406406
C59   C     C_3   0.761332 0.805079 0.498860 -0.397772
C60   C     C_3   0.760292 0.193103 0.500894 -0.408977
C61   C     C_3   0.272337 0.210047 0.392904 -0.396017
C62   C     C_3   0.275537 0.790573 0.398639 -0.388700
C63   C     C_3   0.777649 0.704739 0.397818 -0.398832
C64   C     C_3   0.773606 0.290429 0.393815 -0.394737
C65   C     C_3   0.312353 0.261678 0.499106 0.376644
C66   C     C_3   0.312243 0.736835 0.501617 0.375541
C67   C     C_3   0.816172 0.758904 0.501282 0.381038
C68   C     C_3   0.813827 0.239095 0.499529 0.368785
H57   H     H_    0.745298 0.737610 0.318779 0.151499
H58   H     H_    0.739585 0.255227 0.316539 0.148217
H59   H     H_    0.237922 0.244756 0.315858 0.150133
H60   H     H_    0.242225 0.757563 0.319209 0.143405
H61   H     H_    0.310238 0.178931 0.388916 0.171915
H62   H     H_    0.315564 0.822318 0.400273 0.170588
H63   H     H_    0.816596 0.671191 0.398923 0.160922
H64   H     H_    0.811413 0.322535 0.390365 0.163264
C69   C     C_3   0.732930 0.666678 0.500677 0.375395
C70   C     C_3   0.731142 0.331679 0.498779 0.373185
C71   C     C_3   0.231358 0.166651 0.498929 0.374452
C72   C     C_3   0.231195 0.831831 0.500553 0.391261
C73   C     C_3   0.712275 0.750967 0.497753 -0.353892
C74   C     C_3   0.710309 0.247446 0.496684 -0.342552
C75   C     C_3   0.210285 0.250324 0.498984 -0.353096
C76   C     C_3   0.207889 0.748192 0.495542 -0.380445
C77   C     C_3   0.728405 0.649965 0.397641 -0.406660
C78   C     C_3   0.726164 0.346934 0.395160 -0.405039
C79   C     C_3   0.225475 0.152428 0.394134 -0.406215
C80   C     C_3   0.227975 0.847538 0.398761 -0.403285
H65   H     H_    0.743097 0.589316 0.398964 0.154273
H66   H     H_    0.742340 0.407068 0.397052 0.155299
H67   H     H_    0.241554 0.092679 0.394364 0.160848
H68   H     H_    0.245067 0.907490 0.402179 0.158902
H69   H     H_    0.674130 0.658590 0.318640 0.150527
H70   H     H_    0.671544 0.338998 0.316414 0.148148
H71   H     H_    0.170699 0.160028 0.315987 0.150028
H72   H     H_    0.173640 0.840417 0.319012 0.149032
H73   H     H_    0.226943 0.345405 0.428872 0.159362
H74   H     H_    0.224199 0.654708 0.422505 0.158394
H75   H     H_    0.729615 0.842145 0.423521 0.161981
H76   H     H_    0.729278 0.153011 0.428271 0.162512
H77   H     H_    0.657138 0.761473 0.421360 0.166267
H78   H     H_    0.655550 0.235920 0.419414 0.161401
H79   H     H_    0.155061 0.261112 0.423053 0.163223
H80   H     H_    0.152846 0.738513 0.417949 0.160165
H81   H     H_    0.316672 0.783246 0.197821 0.137131
H82   H     H_    0.230441 0.390668 0.982701 0.131830
H83   H     H_    0.786071 0.240879 0.057310 0.127574
H84   H     H_    0.731846 0.887050 0.987642 0.137512
C81   C     C_2   0.656104 0.259511 0.877617 0.063874
C82   C     C_2   0.668845 0.725579 0.907788 -0.014609
C83   C     C_2   0.187029 0.814863 0.955817 -0.012040
C84   C     C_2   0.168053 0.227806 0.905225 -0.018370
C85   C     C_2   0.704282 0.219732 0.879969 0.321338
C86   C     C_2   0.692142 0.785439 0.882075 0.287674
C87   C     C_2   0.254812 0.838985 0.034932 0.270318
C88   C     C_2   0.190859 0.287663 0.878464 0.272341
C89   C     C_2   0.336420 0.730184 0.096436 0.172734
C90   C     C_2   0.314777 0.314937 0.039800 0.155381
C91   C     C_2   0.806781 0.137473 0.014639 0.182539
C92   C     C_2   0.816104 0.811083 0.043959 0.168121
C93   C     C_2   0.307802 0.784384 0.119529 -0.299399
C94   C     C_2   0.247159 0.338234 0.967502 -0.299220
C95   C     C_2   0.770271 0.201781 0.989649 -0.366115
C96   C     C_2   0.748618 0.834954 0.971917 -0.329330
N33   N     N_R   0.699340 0.213301 0.782229 0.219114
O1    O     O_R   0.754009 0.226679 0.788736 -0.475130
O2    O     O_R   0.638818 0.199849 0.685063 -0.404732
N34   N     N_R   0.665458 0.800359 0.769699 0.241166
O3    O     O_R   0.599934 0.786286 0.685045 -0.398611
O4    O     O_R   0.703645 0.838703 0.753152 -0.416763
N35   N     N_R   0.277660 0.915725 0.036340 0.239076
O5    O     O_R   0.235276 0.973653 0.002844 -0.434948
O6    O     O_R   0.343789 0.929259 0.086977 -0.395418
N36   N     N_R   0.163993 0.301505 0.765770 0.236933
O7    O     O_R   0.098623 0.286413 0.681431 -0.414226
O8    O     O_R   0.201797 0.339756 0.748363 -0.416481
C97   C     C_3   0.325749 0.732583 0.987964 -0.327841
C98   C     C_3   0.352528 0.662693 0.965019 -0.933387
H85   H     H_    0.410770 0.662533 0.021503 0.252108
H86   H     H_    0.332444 0.608635 0.973955 0.270513
H87   H     H_    0.333532 0.665500 0.878187 0.252196
H88   H     H_    0.268651 0.736971 0.916623 0.180065
H89   H     H_    0.351764 0.784910 0.988084 0.212665
C99   C     C_3   0.339050 0.243937 0.014245 -0.332788
C100  C     C_3   0.414333 0.218015 0.107667 -0.877578
H90   H     H_    0.452770 0.258601 0.117520 0.240856
H91   H     H_    0.423650 0.212215 0.187525 0.273319
H92   H     H_    0.422934 0.161070 0.085710 0.261568
H93   H     H_    0.304346 0.194638 0.995660 0.196206
H94   H     H_    0.333518 0.255023 0.938365 0.206481
C101  C     C_3   0.789351 0.078648 0.927135 -0.261736
C102  C     C_3   0.827446 0.002412 0.974915 -0.943481
H95   H     H_    0.884510 0.009432 0.019381 0.248222
H96   H     H_    0.819327 0.980256 0.032848 0.269357
H97   H     H_    0.805960 0.960137 0.906317 0.294787
H98   H     H_    0.731931 0.066376 0.870584 0.209961
H99   H     H_    0.803530 0.102228 0.877267 0.237921
C103  C     C_3   0.840064 0.740348 0.017538 -0.315944
C104  C     C_3   0.915602 0.714759 0.110131 -0.942096
H100  H     H_    0.953601 0.755723 0.119347 0.253856
H101  H     H_    0.925529 0.708698 0.190446 0.268633
H102  H     H_    0.924222 0.658019 0.087732 0.251699
H103  H     H_    0.805570 0.690959 0.999511 0.176724
H104  H     H_    0.833908 0.751643 0.941151 0.206753
C105  C     C_3   0.642746 0.244869 0.959770 -0.420452
C106  C     C_3   0.577802 0.194108 0.906093 -0.860952
H105  H     H_    0.530786 0.221184 0.829671 0.251555
H106  H     H_    0.586391 0.137293 0.883748 0.263966
H107  H     H_    0.567689 0.185208 0.965855 0.242251
H108  H     H_    0.687426 0.215916 0.036784 0.192264
H109  H     H_    0.634907 0.300143 0.986547 0.190563
C107  C     C_3   0.690463 0.719098 0.024597 -0.360774
C108  C     C_3   0.660883 0.650076 0.043969 -0.927381
H110  H     H_    0.603415 0.656154 0.995879 0.254128
H111  H     H_    0.672832 0.595627 0.021592 0.262170
H112  H     H_    0.685584 0.647560 0.133709 0.249403
H113  H     H_    0.748617 0.715639 0.087291 0.202521
H114  H     H_    0.673838 0.772011 0.042483 0.191383
C109  C     C_3   0.162696 0.737982 0.969065 -0.364428
C110  C     C_3   0.085411 0.717066 0.876418 -0.905608
H115  H     H_    0.050543 0.757187 0.876775 0.248928
H116  H     H_    0.072687 0.717289 0.793622 0.263324
H117  H     H_    0.075137 0.658401 0.891180 0.249292
H118  H     H_    0.194741 0.691094 0.972913 0.200710
H119  H     H_    0.172156 0.738685 0.049436 0.187846
C111  C     C_3   0.190377 0.222089 0.022525 -0.365063
C112  C     C_3   0.158935 0.155224 0.041986 -0.862598
H120  H     H_    0.101663 0.163460 0.993827 0.239894
H121  H     H_    0.169328 0.099643 0.019682 0.296468
H122  H     H_    0.183595 0.153367 0.131738 0.243537
H123  H     H_    0.248435 0.216603 0.084296 0.211615
H124  H     H_    0.175707 0.276136 0.041506 0.184677

loop_
_geom_bond_atom_site_label_1
_geom_bond_atom_site_label_2
_geom_bond_distance
_ccdc_geom_bond_type
C28   C40   1.391615 A    
C27   C39   1.390654 A    
C56   C72   1.555257 S    
C36   C91   1.454994 S    
C53   H41   1.112994 S    
C58   C76   1.518662 S    
C112  H121  1.109977 S    
C85   N33   1.443271 S    
C6    H6    1.080798 S    
C61   C79   1.534556 S    
C109  C110  1.530144 S    
C3    N3    1.333434 A    
N5    Ni3   1.841529 S    
C24   N24   1.321597 A    
C21   C45   1.379337 A    
N34   O3    1.301833 A    
C28   N28   1.345430 A    
C106  H107  1.110408 S    
C32   N32   1.335037 A    
C46   C66   1.457597 S    
C9    C41   1.377328 A    
C16   C48   1.387178 A    
C101  H98   1.111748 S    
C102  H95   1.109378 S    
C111  H124  1.111728 S    
H56   C76   1.114369 S    
N21   Ni1   1.862974 S    
C111  C112  1.528354 S    
C103  C104  1.528798 S    
C63   H63   1.112781 S    
H84   C96   1.085974 S    
C98   H86   1.110842 S    
C1    H1    1.080322 S    
C64   C68   1.555730 S    
N32   Ni6   1.884647 S    
C8    H8    1.080798 S    
C60   H76   1.114010 S    
C26   N26   1.344142 A    
C14   H14   1.074151 S    
C31   H31   1.080098 S    
C13   H13   1.074811 S    
C105  C106  1.525894 S    
N30   Ni5   1.884647 S    
C6    C38   1.385125 A    
C77   H65   1.113016 S    
C35   C92   1.474432 S    
N2    N30   1.404724 A    
N3    N31   1.404724 A    
N34   O4    1.301324 A    
C44   C71   1.456384 S    
N24   Ni2   1.858645 S    
C88   N36   1.443456 S    
C22   N22   1.320413 A    
N11   N19   1.357301 A    
C100  H90   1.108280 S    
C78   H66   1.113058 S    
C61   C65   1.555660 S    
C25   N25   1.342360 A    
C4    H4    1.081987 S    
C83   C87   1.364394 D    
N3    Ni2   1.869598 S    
C56   H46   1.111050 S    
C20   N20   1.322092 A    
C61   H61   1.112887 S    
N7    Ni4   1.841529 S    
C7    H7    1.081431 S    
C20   H20   1.079650 S    
C29   N29   1.340433 A    
C10   N10   1.325037 A    
C32   H32   1.081379 S    
C102  H96   1.104990 S    
N19   Ni4   1.849690 S    
C82   C107  1.533296 S    
C107  H113  1.109948 S    
N9    N17   1.357301 A    
C80   H72   1.110774 S    
C60   C68   1.549612 S    
C64   H58   1.110676 S    
C14   C46   1.382513 A    
C30   N30   1.342385 A    
C97   C98   1.528670 S    
C70   C74   1.546172 S    
N4    Ni2   1.874277 S    
C102  H97   1.110288 S    
C56   H44   1.113087 S    
C91   C101  1.524405 S    
C52   H36   1.109840 S    
H49   C57   1.114012 S    
C104  H101  1.110721 S    
N13   Ni7   1.854583 S    
N10   Ni5   1.863363 S    
C7    N7    1.333195 A    
C103  H104  1.111377 S    
C74   H78   1.114204 S    
C104  H102  1.110572 S    
C69   C77   1.553680 S    
C111  H123  1.110109 S    
C8    N8    1.331929 A    
C87   N35   1.443215 S    
C108  H110  1.108521 S    
C112  H122  1.110767 S    
C99   H94   1.111337 S    
C70   C78   1.553403 S    
C81   C85   1.352915 D    
C2    H2    1.078486 S    
C62   C80   1.535065 S    
N29   Ni5   1.874321 S    
N26   Ni7   1.841700 S    
N16   N24   1.357442 A    
C89   C97   1.527626 S    
C39   C83   1.475320 S    
C64   C78   1.536849 S    
C84   C88   1.365971 D    
C52   H40   1.112911 S    
C8    C40   1.385661 A    
C30   C34   1.392415 A    
C31   C35   1.390716 A    
N22   Ni1   1.858645 S    
C9    H9    1.079825 S    
N9    Ni5   1.873485 S    
C48   C68   1.463934 S    
C23   H23   1.075683 S    
C53   H47   1.111123 S    
C18   C42   1.375204 A    
C86   N34   1.443637 S    
C22   H22   1.074670 S    
C110  H116  1.110691 S    
C62   H60   1.110195 S    
C85   C95   1.459584 S    
C92   C96   1.352888 D    
C12   H12   1.079801 S    
C12   N12   1.320559 A    
C1    N1    1.335212 A    
C75   H79   1.114214 S    
N17   Ni3   1.849690 S    
C84   C111  1.532746 S    
C30   H30   1.078942 S    
C86   C96   1.465717 S    
C1    C33   1.390156 A    
C77   H69   1.110899 S    
C29   H29   1.080191 S    
C62   H62   1.112978 S    
C83   C109  1.531488 S    
C11   N11   1.322813 A    
C73   H77   1.114251 S    
C15   H15   1.076581 S    
N1    N29   1.404724 A    
N13   N21   1.357301 A    
C63   C77   1.537348 S    
C37   C81   1.464501 S    
C80   H68   1.113106 S    
N23   Ni2   1.862974 S    
C89   C93   1.353359 D    
C100  H91   1.110730 S    
C98   H87   1.110793 S    
C18   N18   1.323150 A    
N27   Ni8   1.851863 S    
C50   H34   1.110093 S    
C90   C99   1.529589 S    
C97   H88   1.110463 S    
C29   C33   1.388945 A    
C49   H33   1.109958 S    
N33   O1    1.301670 A    
C76   H80   1.114289 S    
C91   C95   1.332708 D    
C10   C42   1.377936 A    
C51   C67   1.554076 S    
C82   C86   1.364146 D    
C72   C76   1.547657 S    
H55   C75   1.114496 S    
N35   O5    1.301890 A    
C22   C46   1.378099 A    
C110  H117  1.110477 S    
C11   C43   1.378389 A    
N28   Ni8   1.841700 S    
C49   C65   1.554825 S    
C72   C80   1.552127 S    
C9    N9    1.323384 A    
C51   C53   1.537179 S    
H53   C73   1.114448 S    
C64   H64   1.112796 S    
C47   C67   1.466328 S    
C18   H18   1.079496 S    
C49   C55   1.534883 S    
N36   O8    1.301305 A    
C38   C82   1.469183 S    
C20   C44   1.376005 A    
C32   C36   1.371508 A    
N2    Ni1   1.874277 S    
N7    N27   1.404724 A    
C88   C94   1.470772 S    
C101  H99   1.107833 S    
C87   C93   1.472821 S    
N6    Ni3   1.836922 S    
N35   O6    1.301479 A    
C34   C89   1.474083 S    
N5    N25   1.404724 A    
C10   H10   1.079649 S    
C112  H120  1.108719 S    
C60   C74   1.520181 S    
C41   C70   1.461096 S    
C4    C36   1.383927 A    
C11   H11   1.079981 S    
C90   C94   1.352270 D    
C99   H93   1.109713 S    
H50   C58   1.114099 S    
C63   C67   1.555606 S    
C61   H59   1.110523 S    
N20   Ni4   1.853998 S    
C19   N19   1.318795 A    
C98   H85   1.108075 S    
C50   C56   1.533394 S    
C13   N13   1.323665 A    
C104  H100  1.108290 S    
C2    N2    1.336130 A    
C24   H24   1.078576 S    
C51   H35   1.110174 S    
C27   N27   1.343867 A    
H51   C59   1.114054 S    
C5    C37   1.386537 A    
N16   Ni8   1.864658 S    
C15   N15   1.325879 A    
C21   N21   1.321399 A    
C16   N16   1.326343 A    
C3    C35   1.390136 A    
C31   N31   1.340268 A    
N15   Ni8   1.854583 S    
C92   C103  1.528344 S    
C25   C37   1.388457 A    
C54   C70   1.555158 S    
C51   H39   1.112842 S    
N31   Ni6   1.874321 S    
C71   C79   1.553930 S    
C13   C45   1.382591 A    
C58   C66   1.547174 S    
C53   C69   1.555432 S    
C17   C41   1.375884 A    
C28   H28   1.074932 S    
C49   H37   1.112973 S    
C57   C75   1.517996 S    
N12   N20   1.357442 A    
C79   H71   1.110431 S    
C54   H42   1.113063 S    
C17   N17   1.322803 A    
C71   C75   1.547706 S    
C101  C102  1.523506 S    
C105  H109  1.111325 S    
C106  H105  1.110118 S    
N8    Ni4   1.836922 S    
H83   C95   1.091610 S    
H52   C60   1.113957 S    
N25   Ni7   1.851863 S    
C3    H3    1.080097 S    
C50   C66   1.553603 S    
N6    N26   1.404724 A    
C52   C54   1.535644 S    
C26   C38   1.389673 A    
C33   C90   1.475178 S    
C100  H92   1.110630 S    
C59   C67   1.550111 S    
C6    N6    1.330879 A    
C108  H111  1.110531 S    
C109  H118  1.110615 S    
C97   H89   1.111201 S    
H81   C93   1.087571 S    
C105  H108  1.109192 S    
N33   O2    1.301500 A    
N8    N28   1.404724 A    
H54   C74   1.113963 S    
C5    N5    1.321080 A    
C14   N14   1.324063 A    
H82   C94   1.086484 S    
C55   H45   1.111194 S    
N18   Ni3   1.853998 S    
C81   C105  1.522984 S    
C103  H103  1.109834 S    
C12   C44   1.375712 A    
C17   H17   1.079428 S    
C15   C47   1.385331 A    
C99   C100  1.528921 S    
C42   C69   1.463052 S    
N14   Ni7   1.864658 S    
C55   H43   1.113051 S    
C19   H19   1.079564 S    
C40   C84   1.473297 S    
C23   C47   1.384083 A    
N36   O7    1.301830 A    
C109  H119  1.111849 S    
C63   H57   1.110030 S    
N1    Ni1   1.869598 S    
N14   N22   1.357442 A    
C24   C48   1.381282 A    
C59   H75   1.113934 S    
C62   C66   1.556956 S    
C54   H48   1.111394 S    
C5    H5    1.078182 S    
C58   H74   1.114003 S    
C21   H21   1.075897 S    
C16   H16   1.074542 S    
C106  H106  1.111071 S    
C57   H73   1.114123 S    
C110  H115  1.109089 S    
C2    C34   1.388537 A    
C19   C43   1.373939 A    
C43   C72   1.455945 S    
C108  H112  1.110798 S    
C107  H114  1.111650 S    
N15   N23   1.357301 A    
N10   N18   1.357442 A    
C25   H25   1.075258 S    
N4    N32   1.404724 A    
N11   Ni6   1.873485 S    
C45   C65   1.458061 S    
N12   Ni6   1.863363 S    
C78   H70   1.110608 S    
C7    C39   1.386696 A    
C69   C73   1.545669 S    
C4    N4    1.334585 A    
C27   H27   1.080243 S    
C23   N23   1.324523 A    
C50   H38   1.112973 S    
C57   C65   1.547564 S    
C79   H67   1.113058 S    
C59   C73   1.519504 S    
C55   C71   1.554180 S    
C107  C108  1.528708 S    
C52   C68   1.553522 S    
C26   H26   1.074916 S    
