data_mof_unit_9659.cif
_audit_creation_date              2012-12-11T16:51:27-0500
_audit_creation_method            fapswitch 2.2
_symmetry_space_group_name_H-M    P1
_symmetry_Int_Tables_number       1
_space_group_crystal_system       triclinic
_cell_length_a                    24.502187
_cell_length_b                    17.230425
_cell_length_c                    15.603797
_cell_angle_alpha                 89.884608
_cell_angle_beta                  128.882732
_cell_angle_gamma                 89.601661
_cell_volume                      5127.75119018

loop_
_atom_site_label
_atom_site_type_symbol
_atom_type_description
_atom_site_fract_x
_atom_site_fract_y
_atom_site_fract_z
_atom_type_partial_charge
C1    C     C_R   0.833244 0.892497 0.202028 -0.207216
C2    C     C_R   0.179566 0.126594 0.500477 0.077470
C3    C     C_3   0.273605 0.796529 0.202446 0.179767
C4    C     C_3   0.281536 0.855625 0.137705 -0.262841
C5    C     C_3   0.347614 0.840908 0.150031 -1.013424
C6    C     C_3   0.147664 0.294373 0.583494 0.262466
C7    C     C_3   0.072225 0.294176 0.475700 -0.320016
C8    C     C_3   0.021832 0.259043 0.491136 -0.990027
C9    C     C_3   0.847966 0.378940 0.336685 0.137454
C10   C     C_3   0.869980 0.450823 0.409099 -0.291766
C11   C     C_3   0.949449 0.454921 0.496542 -0.980958
C12   C     C_3   0.038701 0.827148 0.880171 0.151266
C13   C     C_R   0.360467 0.689177 0.496036 0.042929
C14   C     C_3   0.007158 0.755061 0.891205 -0.327776
C15   C     C_3   0.053857 0.723273 0.008541 -0.903648
C16   C     C_3   0.971182 0.807909 0.143511 0.140200
C17   C     C_3   0.995241 0.748151 0.235405 -0.372670
C18   C     C_3   0.012150 0.669697 0.211344 -0.967750
C19   C     C_3   0.552462 0.356824 0.923527 0.179717
C20   C     C_3   0.530407 0.272325 0.884753 -0.401609
C21   C     C_3   0.552166 0.218478 0.979272 -0.963746
C22   C     C_3   0.475891 0.321957 0.136741 0.133979
C23   C     C_3   0.496224 0.255103 0.218532 -0.377561
C24   C     C_R   0.635974 0.686556 0.494340 0.065483
C25   C     C_3   0.524136 0.184636 0.197237 -0.969047
C26   C     C_R   0.874513 0.168109 0.181843 0.148967
C27   C     C_R   0.124967 0.172593 0.809300 0.160973
C28   C     C_R   0.352126 0.618701 0.131874 0.139654
C29   C     C_R   0.633659 0.654608 0.834560 0.149683
C30   C     C_R   0.750645 0.855866 0.565660 0.021346
C31   C     C_R   0.230362 0.849048 0.400562 0.059213
C32   C     C_R   0.327212 0.253090 0.599280 -0.026600
C33   C     C_R   0.150384 0.858061 0.756836 -0.214719
C34   C     C_R   0.740230 0.354642 0.418426 0.016432
C35   C     C_R   0.756885 0.851710 0.483324 0.115294
C36   C     C_R   0.241488 0.861886 0.498735 0.095753
C37   C     C_R   0.329843 0.250586 0.512472 0.130214
C38   C     C_R   0.743721 0.359604 0.510432 0.115528
C39   C     C_R   0.707325 0.807274 0.389949 -0.193821
C40   C     C_R   0.308913 0.844944 0.597068 -0.197190
C41   C     C_R   0.290509 0.195678 0.428786 -0.195934
C42   C     C_R   0.805170 0.330918 0.610334 -0.202157
C43   C     C_R   0.242525 0.150294 0.426232 -0.174449
C44   C     C_R   0.333491 0.392440 0.199960 -0.227917
C45   C     C_R   0.850886 0.283190 0.609620 -0.151110
C46   C     C_R   0.662257 0.759271 0.389837 -0.159331
C47   C     C_R   0.354780 0.797918 0.594610 -0.148723
C48   C     C_R   0.234294 0.161588 0.506625 0.084016
C49   C     C_R   0.834787 0.261895 0.508671 0.043541
C50   C     C_R   0.665675 0.754195 0.483302 0.026732
C51   C     C_R   0.332702 0.766015 0.494099 0.023974
C52   C     C_R   0.279282 0.209964 0.595519 -0.100814
C53   C     C_R   0.785724 0.309373 0.417826 -0.145103
C54   C     C_R   0.706274 0.808946 0.565648 -0.108286
C55   C     C_R   0.665340 0.386366 0.796110 -0.192137
C56   C     C_R   0.275697 0.803833 0.396918 -0.113294
C57   C     C_3   0.734353 0.835305 0.678361 1.004140
C58   C     C_3   0.215638 0.782879 0.277688 0.981067
C59   C     C_3   0.262256 0.275627 0.639768 0.973880
C60   C     C_3   0.744328 0.324088 0.295174 1.017953
C61   C     C_R   0.115083 0.899045 0.408730 -0.144967
C62   C     C_R   0.882469 0.898719 0.587659 -0.007355
C63   C     C_R   0.616300 0.398303 0.410840 -0.143578
C64   C     C_R   0.415143 0.355672 0.592985 -0.132839
C65   C     C_3   0.785441 0.886803 0.677904 -0.629752
C66   C     C_R   0.908741 0.140690 0.592242 -0.108739
C67   C     C_3   0.167086 0.828915 0.288025 -0.669215
C68   C     C_3   0.316539 0.322515 0.645669 -0.580059
C69   C     C_3   0.691866 0.370559 0.298183 -0.646993
C70   C     C_2   0.141834 0.738547 0.844037 -0.184607
C71   C     C_2   0.802762 0.848070 0.024090 -0.136318
C72   C     C_2   0.693091 0.330903 0.967453 -0.153478
C73   C     C_2   0.305199 0.348248 0.021568 -0.144983
C74   C     C_2   0.197489 0.702194 0.864918 -0.103633
C75   C     C_2   0.737872 0.829777 0.983691 -0.088158
C76   C     C_2   0.762111 0.339867 0.028654 -0.047892
C77   C     C_R   0.113336 0.107546 0.408113 -0.143169
C78   C     C_2   0.236419 0.343157 0.968737 -0.102763
C79   C     C_2   0.848787 0.238265 0.115056 -0.248175
C80   C     C_2   0.151341 0.242153 0.876458 -0.228146
C81   C     C_2   0.306619 0.642488 0.015865 -0.220070
C82   C     C_2   0.661892 0.720468 0.907053 -0.237521
C83   C     C_2   0.805417 0.284065 0.115952 -0.154041
C84   C     C_2   0.195991 0.288288 0.879316 -0.137346
C85   C     C_2   0.237082 0.647227 0.956915 -0.108534
C86   C     C_2   0.703948 0.767937 0.905868 -0.161513
C87   C     C_R   0.188133 0.896463 0.590909 -0.123423
C88   C     C_R   0.409296 0.643953 0.589244 -0.101981
C89   C     C_R   0.812601 0.896276 0.405278 -0.133469
C90   C     C_R   0.687728 0.395869 0.593668 -0.121569
C91   C     C_R   0.337924 0.356408 0.409303 -0.116716
C92   C     C_R   0.060545 0.858758 0.760938 0.518703
C93   C     C_R   0.923774 0.889276 0.200162 0.560738
C94   C     C_R   0.575209 0.390914 0.800743 0.531988
C95   C     C_R   0.424984 0.389835 0.200405 0.556092
C96   C     C_R   0.852336 0.872966 0.138188 -0.045928
C97   C     C_R   0.118382 0.815067 0.789438 -0.009997
C98   C     C_R   0.353571 0.372845 0.137006 -0.027040
C99   C     C_R   0.584270 0.643704 0.405250 -0.118554
C100  C     C_R   0.645247 0.366452 0.858833 -0.056808
C101  C     C_R   0.183378 0.881582 0.499400 0.045122
C102  C     C_R   0.815643 0.880998 0.493859 0.007954
C103  C     C_R   0.684154 0.381516 0.503917 0.049979
C104  C     C_R   0.363465 0.313750 0.503156 0.026424
C105  C     C_R   0.836707 0.143658 0.409774 -0.163324
C106  C     C_R   0.186953 0.105087 0.591697 -0.164759
C107  C     C_R   0.340005 0.645137 0.406546 -0.130918
C108  C     C_R   0.663025 0.642843 0.588684 -0.167695
C109  C     C_R   0.937316 0.131734 0.227175 -0.119414
C110  C     C_R   0.860245 0.186794 0.502148 0.065558
C111  C     C_R   0.066554 0.131332 0.776571 -0.155018
C112  C     C_R   0.422837 0.602734 0.195945 -0.131744
C113  C     C_R   0.569793 0.621553 0.787501 -0.121364
C114  C     C_R   0.153636 0.135553 0.767074 -0.158098
C115  C     C_R   0.842944 0.129675 0.218888 -0.149412
C116  C     C_R   0.660554 0.622202 0.786982 -0.152419
C117  C     C_R   0.332460 0.602362 0.195700 -0.163926
C118  C     C_3   0.629557 0.836437 0.654821 0.198248
C119  C     C_3   0.561463 0.857871 0.541075 -0.330603
C120  C     C_3   0.500627 0.808849 0.513615 -0.983508
H1    H     H_    0.781485 0.897187 0.178356 0.120128
H2    H     H_    0.142497 0.880680 0.232864 0.206762
H3    H     H_    0.011069 0.809065 0.131516 0.148771
H4    H     H_    0.922960 0.787899 0.064250 0.116317
H5    H     H_    0.042428 0.769050 0.315768 0.215895
H6    H     H_    0.953067 0.739506 0.241932 0.198992
H7    H     H_    0.965410 0.647098 0.131388 0.265522
H8    H     H_    0.027805 0.627577 0.277396 0.271543
H9    H     H_    0.056109 0.675082 0.208494 0.277525
H10   H     H_    0.519919 0.377929 0.945850 0.134031
H11   H     H_    0.606705 0.363011 0.000926 0.147960
H12   H     H_    0.472594 0.269786 0.822012 0.204580
H13   H     H_    0.294285 0.373532 0.588882 0.213104
H14   H     H_    0.553535 0.250100 0.846995 0.197842
H15   H     H_    0.609976 0.212302 0.038336 0.301214
H16   H     H_    0.529552 0.160124 0.946605 0.264679
H17   H     H_    0.532696 0.241381 0.022145 0.261033
H18   H     H_    0.519757 0.330030 0.134360 0.136198
H19   H     H_    0.431265 0.305179 0.051968 0.110826
H20   H     H_    0.536996 0.274306 0.304332 0.217250
H21   H     H_    0.449497 0.237083 0.209800 0.193668
H22   H     H_    0.484498 0.164292 0.111375 0.265433
H23   H     H_    0.535882 0.136825 0.254594 0.272819
H24   H     H_    0.688591 0.433471 0.279311 0.206587
H25   H     H_    0.573194 0.199478 0.211206 0.261269
H26   H     H_    0.841184 0.868030 0.738197 0.169113
H27   H     H_    0.130770 0.791979 0.289427 0.185536
H28   H     H_    0.363779 0.335782 0.730976 0.174581
H29   H     H_    0.640764 0.341263 0.255229 0.171900
H30   H     H_    0.790969 0.269459 0.166803 0.205206
H31   H     H_    0.211131 0.276955 0.828378 0.168144
H32   H     H_    0.211779 0.623391 0.988333 0.128269
H33   H     H_    0.197142 0.843524 0.767318 0.128058
H34   H     H_    0.719569 0.755960 0.856043 0.193764
H35   H     H_    0.221585 0.723034 0.830143 0.133658
H36   H     H_    0.715988 0.845486 0.023685 0.124617
H37   H     H_    0.785591 0.378361 0.004990 0.118207
H38   H     H_    0.212668 0.365918 0.003210 0.128326
H39   H     H_    0.862910 0.250804 0.062930 0.143534
H40   H     H_    0.136762 0.253488 0.928301 0.132908
H41   H     H_    0.331434 0.666933 0.983790 0.132109
H42   H     H_    0.646102 0.732076 0.957225 0.136694
H43   H     H_    0.118578 0.715574 0.879096 0.144331
H44   H     H_    0.280986 0.396046 0.173663 0.123414
H45   H     H_    0.820790 0.833536 0.978142 0.167390
H46   H     H_    0.673202 0.287186 0.991238 0.156227
H47   H     H_    0.325769 0.324540 0.982913 0.146438
H48   H     H_    0.095721 0.908708 0.325706 0.160049
H49   H     H_    0.898760 0.904704 0.669547 0.128140
H50   H     H_    0.597966 0.405101 0.327973 0.155642
H51   H     H_    0.443788 0.339878 0.677532 0.147303
H52   H     H_    0.235777 0.901234 0.674819 0.084500
H53   H     H_    0.766241 0.900783 0.319930 0.093961
H54   H     H_    0.734200 0.400795 0.678525 0.085915
H55   H     H_    0.717287 0.382814 0.819849 0.119998
H56   H     H_    0.295139 0.341767 0.325025 0.101451
H57   H     H_    0.795319 0.158694 0.326447 0.147734
H58   H     H_    0.234828 0.102529 0.676007 0.108468
H59   H     H_    0.306827 0.662397 0.322072 0.139159
H60   H     H_    0.707276 0.656337 0.671695 0.133831
H61   H     H_    0.974018 0.144591 0.212695 0.096402
H62   H     H_    0.038316 0.139117 0.807909 0.088606
H63   H     H_    0.452561 0.598228 0.166390 0.109099
H64   H     H_    0.539062 0.627446 0.814934 0.097883
H65   H     H_    0.202060 0.148389 0.782134 0.117840
H66   H     H_    0.209217 0.110700 0.358709 0.122322
H67   H     H_    0.789505 0.136883 0.187631 0.119287
H68   H     H_    0.713074 0.627750 0.813873 0.111206
H69   H     H_    0.279584 0.597434 0.167651 0.105000
H70   H     H_    0.932020 0.150825 0.676334 0.082877
H71   H     H_    0.093728 0.107881 0.323790 0.094386
H72   H     H_    0.434488 0.658815 0.673187 0.087480
H73   H     H_    0.552114 0.659549 0.319354 0.094353
H74   H     H_    0.707857 0.802130 0.321394 0.119585
H75   H     H_    0.323550 0.859326 0.676419 0.115496
H76   H     H_    0.292964 0.192300 0.361966 0.123354
H77   H     H_    0.893381 0.257052 0.687234 0.111364
H78   H     H_    0.814833 0.337078 0.687684 0.116116
H79   H     H_    0.622393 0.851291 0.716376 0.142280
H80   H     H_    0.638537 0.772657 0.660433 0.109055
H81   H     H_    0.549104 0.920267 0.539705 0.214913
H82   H     H_    0.567537 0.848559 0.477099 0.207050
H83   H     H_    0.510354 0.746469 0.509022 0.274492
H84   H     H_    0.451407 0.827398 0.432874 0.264442
H85   H     H_    0.493836 0.816321 0.577153 0.267995
H86   H     H_    0.262615 0.738970 0.163267 0.126096
H87   H     H_    0.323471 0.794261 0.288525 0.087847
H88   H     H_    0.631151 0.720259 0.321050 0.117876
H89   H     H_    0.234943 0.853107 0.049085 0.196799
H90   H     H_    0.284145 0.914962 0.167886 0.207292
H91   H     H_    0.395054 0.845522 0.237569 0.269589
H92   H     H_    0.350863 0.884737 0.101170 0.267553
H93   H     H_    0.346309 0.782565 0.119431 0.277292
H94   H     H_    0.153251 0.341420 0.637088 0.118776
H95   H     H_    0.158051 0.238260 0.626135 0.128532
H96   H     H_    0.055315 0.354584 0.443908 0.196517
H97   H     H_    0.069589 0.259724 0.413118 0.221843
H98   H     H_    0.036143 0.197623 0.518618 0.280108
H99   H     H_    0.402712 0.778858 0.672622 0.112478
H100  H     H_    0.967880 0.260471 0.411463 0.267134
H101  H     H_    0.023070 0.292025 0.553290 0.266626
H102  H     H_    0.866987 0.386378 0.288729 0.143264
H103  H     H_    0.873845 0.325099 0.386299 0.096986
H104  H     H_    0.850611 0.503737 0.356285 0.207086
H105  H     H_    0.846355 0.450254 0.450780 0.207051
H106  H     H_    0.968867 0.406088 0.555978 0.268344
H107  H     H_    0.963735 0.510207 0.542266 0.271205
H108  H     H_    0.975064 0.452516 0.457904 0.267222
H109  H     H_    0.801041 0.748366 0.754425 0.281456
H110  H     H_    0.775989 0.950174 0.676304 0.210570
H111  H     H_    0.198647 0.682402 0.315743 0.296204
H112  H     H_    0.326058 0.231377 0.789680 0.285579
H113  H     H_    0.691774 0.227443 0.252762 0.282019
H114  H     H_    0.023349 0.879086 0.903080 0.106523
H115  H     H_    0.097165 0.823786 0.939956 0.114902
H116  H     H_    0.954589 0.770007 0.865807 0.188121
H117  H     H_    0.000265 0.708607 0.835858 0.221167
H118  H     H_    0.102856 0.698457 0.029249 0.287841
H119  H     H_    0.026047 0.676870 0.016489 0.256365
H120  H     H_    0.067572 0.770263 0.067074 0.279546
N1    N     N_R   0.888400 0.921830 0.294620 -0.070407
N2    N     N_R   0.874350 0.922400 0.443380 -0.041883
N3    N     N_R   0.625650 0.422400 0.556620 -0.040921
N4    N     N_R   0.374350 0.422400 0.443380 -0.040705
N5    N     N_R   0.054230 0.922730 0.705400 -0.094345
N6    N     N_R   0.945770 0.922730 0.294600 -0.092486
N7    N     N_R   0.554230 0.422730 0.705400 -0.085862
N8    N     N_R   0.445770 0.422730 0.294600 -0.090902
N9    N     N_R   0.873790 0.077030 0.443380 -0.039082
N10   N     N_R   0.126210 0.077030 0.556620 -0.042952
N11   N     N_R   0.373790 0.577030 0.443380 -0.042520
N12   N     N_R   0.111600 0.921830 0.705380 -0.068125
N13   N     N_R   0.626210 0.577030 0.556620 -0.039375
N14   N     N_R   0.945200 0.076700 0.294600 -0.043438
N15   N     N_R   0.054800 0.076700 0.705400 -0.045823
N16   N     N_R   0.445200 0.576700 0.294600 -0.044669
N17   N     N_R   0.554800 0.576700 0.705400 -0.041864
N18   N     N_R   0.111030 0.077600 0.705380 -0.045509
N19   N     N_R   0.888970 0.077600 0.294620 -0.043852
N20   N     N_R   0.611030 0.577600 0.705380 -0.046421
N21   N     N_R   0.388970 0.577600 0.294620 -0.044953
N22   N     N_R   0.919490 0.077280 0.556590 -0.044354
N23   N     N_R   0.388400 0.421830 0.294620 -0.068728
N24   N     N_R   0.080510 0.077280 0.443410 -0.037487
N25   N     N_R   0.419490 0.577280 0.556590 -0.040425
N26   N     N_R   0.580510 0.577280 0.443410 -0.038919
N27   N     N_R   0.611600 0.421830 0.705380 -0.069620
N28   N     N_R   0.079940 0.922160 0.443410 -0.041195
N29   N     N_R   0.920060 0.922160 0.556590 -0.042908
N30   N     N_R   0.579940 0.422160 0.443410 -0.046172
N31   N     N_R   0.420060 0.422160 0.556590 -0.037740
N32   N     N_R   0.125650 0.922400 0.556620 -0.034919
Ni1   Ni    Ni4+2 0.882160 0.999430 0.370180 0.202253
Ni2   Ni    Ni4+2 0.117840 0.999430 0.629820 0.195684
Ni3   Ni    Ni4+2 0.382160 0.499430 0.370180 0.208673
Ni4   Ni    Ni4+2 0.617840 0.499430 0.629820 0.198496
Ni5   Ni    Ni4+2 0.012460 0.999430 0.370180 0.233797
Ni6   Ni    Ni4+2 0.987540 0.999430 0.629820 0.212581
Ni7   Ni    Ni4+2 0.512460 0.499430 0.370180 0.234464
Ni8   Ni    Ni4+2 0.487540 0.499430 0.629820 0.254134
O1    O     O_3   0.686134 0.880924 0.679000 -0.658535
O2    O     O_3   0.964402 0.885392 0.167037 -0.687288
O3    O     O_3   0.538445 0.407183 0.839907 -0.684613
O4    O     O_3   0.463892 0.395322 0.164200 -0.682319
O5    O     O_3   0.216331 0.819940 0.197098 -0.673072
O6    O     O_3   0.193890 0.307994 0.559803 -0.677794
O7    O     O_3   0.773854 0.374005 0.261012 -0.659736
O8    O     O_3   0.769409 0.778211 0.761895 -0.845956
O9    O     O_3   0.196329 0.704332 0.254590 -0.813871
O10   O     O_3   0.281522 0.261785 0.745078 -0.849544
O11   O     O_3   0.713579 0.258547 0.227866 -0.835280
O12   O     O_3   0.010309 0.834872 0.768897 -0.685451

loop_
_geom_bond_atom_site_label_1
_geom_bond_atom_site_label_2
_ccdc_geom_bond_type
C12   H115  S    
C71   C75   D    
C105  C110  A    
C99   N26   A    
C80   H40   S    
C77   N24   A    
C108  N13   A    
N18   Ni2   S    
N4    N31   A    
N16   Ni7   S    
C35   C39   A    
C25   H22   S    
C119  H81   S    
C89   H53   S    
C91   C104  A    
C73   H47   S    
C35   C102  S    
C118  H80   S    
C70   H43   S    
C44   N23   A    
C14   H116  S    
C95   C98   A    
C7    C8    S    
C61   N28   A    
C59   O10   S    
C28   C112  A    
C69   H24   S    
C31   C67   S    
C116  H68   S    
C15   H118  S    
C50   C54   A    
C114  H65   S    
C65   H110  S    
C37   C41   A    
C120  H85   S    
C60   C69   S    
C68   H13   S    
C6    O6    S    
C16   H3    S    
N11   Ni3   S    
C38   C42   A    
C41   H76   S    
C28   C117  A    
C31   C36   A    
C44   C98   A    
H112  O10   S    
C14   C15   S    
C59   C68   S    
N14   Ni5   S    
C33   H33   S    
C17   H6    S    
C112  N16   A    
C113  H64   S    
N10   N24   A    
C45   H77   S    
N22   Ni6   S    
C15   H119  S    
C109  N14   A    
C4    H90   S    
C108  H60   S    
C19   H11   S    
C88   H72   S    
C51   C56   A    
N1    Ni1   S    
N7    Ni8   S    
C62   H49   S    
C118  C119  S    
C32   C52   A    
N8    Ni7   S    
N17   N20   A    
C18   H8    S    
C94   O3    S    
C13   C51   S    
C58   O9    S    
C57   O1    S    
C74   H35   S    
C53   C60   S    
C6    H95   S    
N28   N32   A    
H109  O8    S    
C16   C17   S    
C55   C100  A    
C70   C74   D    
N4    Ni3   S    
C73   C78   D    
H113  O11   S    
N5    Ni6   S    
C24   C108  A    
C21   H17   S    
N9    N22   A    
C13   C88   A    
C9    C10   S    
N11   N25   A    
C21   H16   S    
C33   C97   A    
C7    H96   S    
C68   H28   S    
C70   C97   S    
C13   C107  A    
C32   C68   S    
C83   H30   S    
C117  N21   A    
C37   C104  S    
C19   H10   S    
N10   Ni2   S    
C115  H67   S    
N15   N18   A    
C27   C111  A    
C87   C101  A    
N16   N21   A    
C24   C50   S    
C41   C43   A    
C25   H23   S    
C119  H82   S    
C113  N17   A    
C20   H12   S    
C118  H79   S    
C75   H36   S    
C76   C83   S    
C44   H44   S    
C93   O2    S    
C39   H74   S    
C57   O8    S    
C78   H38   S    
C92   C97   A    
N24   Ni5   S    
C112  H63   S    
C22   C23   S    
C111  N15   A    
C73   C98   S    
C5    H91   S    
C59   O6    S    
C76   H37   S    
C21   H15   S    
H111  O9    S    
C9    O7    S    
N1    N6    A    
C77   H71   S    
N2    N29   A    
C23   H20   S    
C42   H78   S    
C24   C99   A    
C55   N27   A    
C118  O1    S    
C63   C103  A    
C27   C80   S    
C10   C11   S    
C57   C65   S    
C80   C84   D    
C95   N8    A    
C11   H108  S    
C63   H50   S    
C47   C51   A    
C71   C96   S    
C82   H42   S    
C43   H66   S    
C2    C48   S    
C9    H102  S    
C40   C47   A    
C47   H99   S    
C22   H19   S    
C2    C106  A    
C111  H62   S    
C4    H89   S    
C36   C101  S    
C42   C45   A    
C7    H97   S    
N30   Ni7   S    
C12   H114  S    
N6    Ni5   S    
C61   C101  A    
C84   H31   S    
N8    N23   A    
C46   H88   S    
C8    H100  S    
C52   C59   S    
C33   N12   A    
C18   H7    S    
C10   H105  S    
C30   C54   A    
C94   C100  A    
C9    H103  S    
C75   C86   S    
N5    N12   A    
C6    H94   S    
C22   H18   S    
C45   C49   A    
C119  C120  S    
C43   C48   A    
C5    H93   S    
C92   O12   S    
C89   C102  A    
C17   C18   S    
C38   C103  S    
C72   C76   D    
C32   C37   A    
C66   C110  A    
C64   N31   A    
C114  N18   A    
C34   C69   S    
C55   H55   S    
C117  H69   S    
C34   C53   A    
C39   C46   A    
C1    N1    A    
C11   H107  S    
N31   Ni8   S    
C29   C116  A    
C12   C14   S    
C93   C96   A    
N23   Ni3   S    
C15   H120  S    
N15   Ni6   S    
C67   H27   S    
C120  H84   S    
N9    Ni1   S    
C3    C4    S    
C67   H2    S    
C36   C40   A    
C19   O3    S    
C58   O5    S    
N26   Ni7   S    
N29   Ni6   S    
C94   N7    A    
C109  H61   S    
C3    O5    S    
C5    H92   S    
C29   C113  A    
C66   N22   A    
C26   C115  A    
C72   H46   S    
C107  H59   S    
C28   C81   S    
C34   C38   A    
C3    H86   S    
C81   H41   S    
C63   N30   A    
C64   C104  A    
N2    Ni1   S    
C105  H57   S    
C4    C5    S    
N13   Ni4   S    
C116  N20   A    
C72   C100  S    
C14   H117  S    
C25   H25   S    
C92   N5    A    
N25   Ni8   S    
C6    C7    S    
N21   Ni3   S    
C10   H104  S    
N13   N26   A    
C12   O12   S    
C30   C35   A    
C99   H73   S    
C87   N32   A    
C26   C79   S    
C60   O7    S    
C107  N11   A    
C61   H48   S    
C69   H29   S    
C106  N10   A    
C19   C20   S    
C16   H4    S    
N3    N30   A    
C3    H87   S    
C29   C82   S    
N28   Ni5   S    
C2    C77   A    
C82   C86   D    
C54   C57   S    
N27   Ni4   S    
C79   C83   D    
C20   C21   S    
N7    N27   A    
C17   H5    S    
C90   H54   S    
C86   H34   S    
N14   N19   A    
C64   H51   S    
C11   H106  S    
C49   C53   A    
C87   H52   S    
C66   H70   S    
C79   H39   S    
C56   C58   S    
C91   H56   S    
N19   Ni1   S    
C31   C56   A    
C26   C109  A    
C23   C25   S    
C74   C85   S    
C16   O2    S    
C88   N25   A    
C1    H1    S    
C90   C103  A    
C85   H32   S    
C30   C65   S    
C8    H98   S    
C93   N6    A    
C62   N29   A    
C105  N9    A    
N20   Ni4   S    
C27   C114  A    
C78   C84   S    
C58   C67   S    
C48   C52   A    
C60   O11   S    
C91   N4    A    
N3    Ni4   S    
N17   Ni8   S    
N32   Ni2   S    
C95   O4    S    
C71   H45   S    
C120  H83   S    
C89   N2    A    
C23   H21   S    
C18   H9    S    
C115  N19   A    
C1    C96   A    
C20   H14   S    
C65   H26   S    
C90   N3    A    
N12   Ni2   S    
C22   O4    S    
C106  H58   S    
C81   C85   D    
C8    H101  S    
C49   C110  S    
C62   C102  A    
C40   H75   S    
C46   C50   A    
