data_mof_unit_44472.cif
_audit_creation_date              2012-12-10T16:52:04-0500
_audit_creation_method            fapswitch 2.2
_symmetry_space_group_name_H-M    P1
_symmetry_Int_Tables_number       1
_space_group_crystal_system       triclinic
_cell_length_a                    7.770737
_cell_length_b                    8.552882
_cell_length_c                    14.917117
_cell_angle_alpha                 90.809946
_cell_angle_beta                  85.845256
_cell_angle_gamma                 93.787757
_cell_volume                      986.61540175

loop_
_atom_site_label
_atom_site_type_symbol
_atom_type_description
_atom_site_fract_x
_atom_site_fract_y
_atom_site_fract_z
_atom_type_partial_charge
C1    C     C_R   0.545885 0.794744 0.498239 0.996693
C2    C     C_R   0.556594 0.627834 0.810569 -0.241487
C3    C     C_R   0.495047 0.510034 0.232392 -0.095707
C4    C     C_R   0.504963 0.489990 0.767606 -0.095706
C5    C     C_R   0.541938 0.649318 0.185699 -0.042614
C6    C     C_R   0.458113 0.350698 0.814297 -0.042589
C7    C     C_R   0.546385 0.644747 0.091499 0.053989
C8    C     C_R   0.453682 0.355263 0.908495 0.054055
C9    C     C_R   0.495380 0.503002 0.047057 0.042501
C10   C     C_R   0.504674 0.497012 0.952938 0.042468
C11   C     C_R   0.436048 0.367149 0.096799 0.111533
C12   C     C_R   0.454116 0.205256 0.501774 0.996563
C13   C     C_R   0.563990 0.632868 0.903194 0.111526
C14   C     C_R   0.609111 0.776320 0.040910 -0.324840
C15   C     C_R   0.390986 0.223680 0.959080 -0.324797
C16   C     C_2   0.584635 0.798180 0.234826 0.383303
C17   C     C_2   0.415446 0.201829 0.765159 0.383130
C18   C     C_2   0.703530 0.913502 0.901258 0.358537
C19   C     C_2   0.296527 0.086507 0.098729 0.358546
C20   C     C_R   0.622202 0.771517 0.947650 0.003028
C21   C     C_R   0.377861 0.228492 0.052340 0.003001
C22   C     C_2   0.569988 0.958383 0.496806 -0.330030
C23   C     C_2   0.430014 0.041617 0.503224 -0.330023
C24   C     C_R   0.501455 0.496107 0.672558 0.934087
C25   C     C_R   0.498547 0.503906 0.327442 0.934295
C26   C     C_R   0.443408 0.372192 0.189427 -0.241553
H1    H     H_    0.414049 0.268454 0.229777 0.181507
H2    H     H_    0.467965 0.093846 0.784520 0.068291
H3    H     H_    0.689430 0.027991 0.932229 0.073117
H4    H     H_    0.310658 0.972016 0.067768 0.073114
H5    H     H_    0.585925 0.731579 0.770221 0.181494
H6    H     H_    0.655782 0.883166 0.073471 0.141030
H7    H     H_    0.344353 0.116825 0.926513 0.141075
H8    H     H_    0.702088 0.009744 0.490231 0.192754
H9    H     H_    0.297914 0.990256 0.509800 0.192764
H10   H     H_    0.013815 0.382810 0.432255 0.204132
H11   H     H_    0.986184 0.617190 0.567745 0.204136
H12   H     H_    0.532400 0.906239 0.215365 0.068224
N1    N     N_2   0.950330 0.457950 0.475660 -0.160978
N2    N     N_2   0.049670 0.542050 0.524340 -0.160974
O1    O     O_R   0.389250 0.738570 0.505970 -0.628706
O2    O     O_2   0.317495 0.197691 0.704731 -0.550616
O3    O     O_2   0.796277 0.904189 0.832020 -0.558687
O4    O     O_2   0.203740 0.095823 0.167953 -0.558699
O5    O     O_R   0.610750 0.261430 0.494030 -0.628710
O6    O     O_R   0.678390 0.711620 0.490370 -0.601575
O7    O     O_R   0.321610 0.288380 0.509630 -0.601606
O8    O     O_R   0.355420 0.513510 0.639950 -0.579953
O9    O     O_R   0.644580 0.486490 0.360050 -0.579944
O10   O     O_R   0.644560 0.486560 0.624350 -0.634691
O11   O     O_R   0.355440 0.513440 0.375650 -0.634677
O12   O     O_2   0.682339 0.802235 0.295356 -0.550756
Zn1   Zn    Zn3+2 0.306940 0.517990 0.510420 1.005518
Zn2   Zn    Zn3+2 0.693060 0.482010 0.489580 1.005508

loop_
_geom_bond_atom_site_label_1
_geom_bond_atom_site_label_2
_ccdc_geom_bond_type
C2    C4    A    
C25   O11   A    
C6    C17   S    
C8    C15   A    
C3    C26   A    
C5    C7    A    
C9    C10   A    
C23   H9    S    
C11   C26   A    
C15   C21   A    
O7    Zn1   S    
O6    Zn2   S    
C3    C5    A    
C1    C22   S    
C18   H3    S    
C18   O3    D    
C9    C11   A    
C12   C23   S    
O1    Zn1   S    
C26   H1    S    
O10   Zn2   S    
C12   O7    A    
C4    C24   S    
C1    O1    A    
C19   C21   S    
C11   C21   A    
O5    Zn2   S    
N2    Zn1   S    
H11   N2    S    
C18   C20   S    
C7    C14   A    
C24   O10   A    
O8    Zn1   S    
C22   H8    S    
C25   O9    A    
C1    O6    A    
N1    Zn2   S    
O9    Zn2   S    
C24   O8    A    
C14   C20   A    
C3    C25   S    
C19   O4    D    
C8    C10   A    
C4    C6    A    
C14   H6    S    
N1    N2    D    
C7    C9    A    
C2    C13   A    
C17   O2    D    
C2    H5    S    
C5    C16   S    
C6    C8    A    
C13   C20   A    
C17   H2    S    
C22   C23   D    
C19   H4    S    
C15   H7    S    
H10   N1    S    
C16   O12   D    
C16   H12   S    
C12   O5    A    
O11   Zn1   S    
C10   C13   A    
