data_mof_unit_42231.cif
_audit_creation_date              2012-12-11T17:43:36-0500
_audit_creation_method            fapswitch 2.2
_symmetry_space_group_name_H-M    P1
_symmetry_Int_Tables_number       1
_space_group_crystal_system       triclinic
_cell_length_a                    15.05287
_cell_length_b                    15.171415
_cell_length_c                    17.109821
_cell_angle_alpha                 108.656297
_cell_angle_beta                  106.353461
_cell_angle_gamma                 108.978902
_cell_volume                      3160.04408723

loop_
_atom_site_label
_atom_site_type_symbol
_atom_type_description
_atom_site_fract_x
_atom_site_fract_y
_atom_site_fract_z
_atom_type_partial_charge
C1    C     C_R   0.088290 0.285802 0.070401 -0.172965
C2    C     C_R   0.048448 0.097174 0.114829 -0.244256
C3    C     C_R   0.990088 0.913274 0.031900 0.058155
C4    C     C_R   0.003249 0.097808 0.031788 0.055794
C5    C     C_R   0.044563 0.004838 0.115768 0.045942
C6    C     C_R   0.957356 0.008298 0.947565 0.043306
C7    C     C_R   0.999883 0.087698 0.845959 -0.185158
C8    C     C_R   0.048980 0.935120 0.230978 -0.193778
C9    C     C_R   0.884526 0.006502 0.685161 -0.105624
C10   C     C_R   0.208641 0.005015 0.365709 -0.129020
C11   C     C_R   0.465060 0.553652 0.260552 -0.295147
C12   C     C_R   0.906797 0.720089 0.967229 -0.135408
C13   C     C_R   0.525665 0.380649 0.656707 -0.281051
C14   C     C_R   0.467053 0.539355 0.176291 -0.171911
C15   C     C_R   0.505738 0.365869 0.727890 -0.186877
C16   C     C_R   0.934898 0.508659 0.743501 -0.140952
C17   C     C_R   0.061976 0.547705 0.264032 -0.129749
C18   C     C_R   0.441071 0.439748 0.111062 0.110684
C19   C     C_R   0.483498 0.436637 0.785400 0.130756
C20   C     C_R   0.418833 0.356059 0.133296 -0.257579
C21   C     C_R   0.478989 0.520563 0.769032 -0.236975
C22   C     C_R   0.416817 0.370463 0.217569 -0.206002
C23   C     C_R   0.025825 0.560997 0.738274 0.093273
C24   C     C_R   0.497995 0.534587 0.697654 -0.256784
C25   C     C_R   0.436538 0.468249 0.280553 0.639226
C26   C     C_R   0.524014 0.466600 0.642640 0.633891
C27   C     C_R   0.514396 0.403776 0.002652 -0.209649
C28   C     C_R   0.380979 0.433465 0.875393 -0.193953
C29   C     C_R   0.535446 0.414118 0.930609 0.049619
C30   C     C_R   0.369557 0.437791 0.954514 0.056671
C31   C     C_R   0.466124 0.425193 0.863538 0.037885
C32   C     C_R   0.437240 0.422630 0.019320 0.032093
C33   C     C_R   0.976220 0.086743 0.760512 0.258883
C34   C     C_R   0.967824 0.531008 0.270377 0.107598
C35   C     C_R   0.103214 0.934354 0.311719 0.271700
C36   C     C_R   0.952599 0.560375 0.353398 0.094033
C37   C     C_R   0.029757 0.588911 0.665092 0.081366
C38   C     C_R   0.122294 0.686565 0.601539 0.207667
C39   C     C_R   0.850357 0.494022 0.425970 0.172469
C40   C     C_R   0.768560 0.202877 0.812714 -0.118977
C41   C     C_R   0.278771 0.784472 0.176705 -0.132230
C42   C     C_R   0.119761 0.667027 0.675251 -0.219513
C43   C     C_R   0.856613 0.501224 0.349465 -0.192012
C44   C     C_R   0.940527 0.534381 0.582935 -0.243544
C45   C     C_R   0.745645 0.196588 0.726165 0.073963
C46   C     C_R   0.038039 0.629993 0.437650 -0.182271
C47   C     C_R   0.940149 0.553134 0.509285 0.077369
C48   C     C_R   0.033418 0.626673 0.516856 0.072800
C49   C     C_R   0.695875 0.100744 0.641142 0.125148
C50   C     C_R   0.440927 0.854882 0.322353 0.114995
C51   C     C_R   0.586846 0.027390 0.395485 -0.197829
C52   C     C_R   0.585944 0.914278 0.558298 -0.230224
C53   C     C_R   0.497484 0.946581 0.318829 -0.171559
C54   C     C_R   0.648368 0.003843 0.640263 -0.156860
C55   C     C_R   0.481547 0.839754 0.398335 -0.266514
C56   C     C_R   0.333938 0.781460 0.254701 0.071295
C57   C     C_R   0.686119 0.106092 0.559068 -0.267970
C58   C     C_R   0.564420 0.922365 0.476906 0.197732
C59   C     C_R   0.615978 0.018236 0.476620 0.170297
C60   C     C_R   0.815441 0.928846 0.695796 -0.144981
C61   C     C_R   0.259769 0.076989 0.339362 -0.134151
C62   C     C_R   0.836003 0.932836 0.782052 -0.210744
C63   C     C_R   0.205823 0.078033 0.258723 -0.160991
C64   C     C_R   0.263493 0.537327 0.953754 -0.122778
C65   C     C_R   0.698555 0.401701 0.992145 -0.140786
C66   C     C_R   0.929381 0.011315 0.857934 0.103904
C67   C     C_R   0.291093 0.464188 0.971196 0.081192
C68   C     C_R   0.100094 0.006425 0.203391 0.083837
C69   C     C_R   0.773195 0.297252 0.734851 -0.118329
C70   C     C_R   0.272431 0.689411 0.252592 -0.111754
C71   C     C_R   0.246196 0.434921 0.023822 -0.099243
C72   C     C_R   0.705051 0.501824 0.921253 -0.125690
C73   C     C_R   0.108228 0.593475 0.819781 -0.118107
C74   C     C_R   0.888289 0.463044 0.184107 -0.115994
C75   C     C_R   0.915439 0.199859 0.990625 -0.113981
C76   C     C_R   0.081532 0.805928 0.045051 -0.102538
C77   C     C_R   0.002375 0.191731 0.033055 0.062256
C78   C     C_R   0.640399 0.435168 0.942745 0.062392
C79   C     C_R   0.991592 0.817352 0.024473 0.051836
C80   C     C_3   0.354210 0.508757 0.370075 0.144637
C81   C     C_3   0.334446 0.499020 0.450453 -0.176257
C82   C     C_3   0.246577 0.525175 0.458265 -1.042064
C83   C     C_3   0.645919 0.518759 0.590096 0.240712
C84   C     C_3   0.707718 0.636563 0.654684 -0.402781
C85   C     C_3   0.819185 0.678796 0.664302 -0.939722
C86   C     C_R   0.947443 0.915372 0.949138 -0.245943
H1    H     H_    0.166157 0.308470 0.117501 0.097615
H2    H     H_    0.462183 0.576270 0.812444 0.139642
H3    H     H_    0.397647 0.304886 0.233239 0.148518
H4    H     H_    0.494189 0.599559 0.685910 0.140487
H5    H     H_    0.567624 0.397043 0.055469 0.134275
H6    H     H_    0.326379 0.442217 0.825222 0.149006
H7    H     H_    0.110221 0.678548 0.439689 0.169255
H8    H     H_    0.872120 0.473127 0.574847 0.159611
H9    H     H_    0.788198 0.449658 0.285561 0.147452
H10   H     H_    0.188686 0.711834 0.739553 0.144917
H11   H     H_    0.856293 0.487069 0.699415 0.084139
H12   H     H_    0.826445 0.702560 0.933104 0.100714
H13   H     H_    0.139688 0.595510 0.318510 0.110545
H14   H     H_    0.724458 0.179868 0.558763 0.137213
H15   H     H_    0.441605 0.769054 0.402059 0.110311
H16   H     H_    0.654982 0.996635 0.702183 0.130565
H17   H     H_    0.469800 0.959095 0.259753 0.125388
H18   H     H_    0.626362 0.100226 0.393976 0.159203
H19   H     H_    0.546634 0.840847 0.559070 0.138381
H20   H     H_    0.866713 0.004254 0.618484 0.148734
H21   H     H_    0.250851 0.004298 0.428041 0.151691
H22   H     H_    0.745290 0.865728 0.637173 0.142724
H23   H     H_    0.073917 0.147136 0.902395 0.139355
H24   H     H_    0.341386 0.131684 0.381220 0.144432
H25   H     H_    0.780409 0.872887 0.789047 0.128542
H26   H     H_    0.246937 0.133376 0.238600 0.122024
H27   H     H_    0.756175 0.139895 0.831123 0.095940
H28   H     H_    0.308354 0.837361 0.150022 0.087647
H29   H     H_    0.287163 0.577748 0.915817 0.095773
H30   H     H_    0.670090 0.338568 0.009305 0.097043
H31   H     H_    0.763297 0.321214 0.681389 0.096038
H32   H     H_    0.294657 0.653263 0.294310 0.070680
H33   H     H_    0.248353 0.376763 0.045998 0.113476
H34   H     H_    0.967317 0.880105 0.189764 0.143619
H35   H     H_    0.684507 0.537166 0.878015 0.105106
H36   H     H_    0.188664 0.647795 0.843962 0.086106
H37   H     H_    0.805608 0.433941 0.162663 0.098643
H38   H     H_    0.835332 0.143615 0.965000 0.094811
H39   H     H_    0.161127 0.866856 0.082127 0.103962
H40   H     H_    0.913968 0.845515 0.885043 0.140833
H41   H     H_    0.086093 0.168420 0.178516 0.137289
H42   H     H_    0.279792 0.457628 0.306536 0.080266
H43   H     H_    0.380008 0.591634 0.383591 0.084335
H44   H     H_    0.313723 0.417955 0.441450 0.217277
H45   H     H_    0.485378 0.630945 0.309914 0.136608
H46   H     H_    0.406534 0.553844 0.514697 0.220500
H47   H     H_    0.265746 0.605911 0.467108 0.279687
H48   H     H_    0.235783 0.519929 0.518497 0.290521
H49   H     H_    0.172529 0.469235 0.396063 0.271201
H50   H     H_    0.650604 0.506722 0.524385 0.196180
H51   H     H_    0.681790 0.474595 0.616858 0.069158
H52   H     H_    0.669182 0.678322 0.627194 0.219540
H53   H     H_    0.709889 0.651928 0.723373 0.186479
H54   H     H_    0.860148 0.641449 0.695545 0.261740
H55   H     H_    0.862690 0.763958 0.709574 0.276130
H56   H     H_    0.542273 0.325468 0.612528 0.141104
H57   H     H_    0.819762 0.664115 0.596585 0.282450
H58   H     H_    0.486936 0.605303 0.161114 0.142175
H59   H     H_    0.508329 0.299963 0.738577 0.150075
H60   H     H_    0.400473 0.279162 0.084394 0.153923
I1    I     I_    0.264409 0.803953 0.623554 -0.458564
I2    I     I_    0.707262 0.375605 0.402045 -0.525162
I3    I     I_    0.079923 0.205497 0.745351 -0.420474
I4    I     I_    0.025716 0.826417 0.351728 -0.414724
N1    N     N_R   0.055660 0.348550 0.045620 -0.035201
N2    N     N_R   0.185200 0.638170 0.176300 -0.038400
N3    N     N_R   0.201680 0.494570 0.045620 -0.047713
N4    N     N_R   0.798320 0.505430 0.954380 -0.038741
N5    N     N_R   0.068420 0.560530 0.871650 -0.036706
N6    N     N_R   0.931580 0.439470 0.128350 -0.045187
N7    N     N_R   0.948070 0.295860 0.997670 -0.037951
N8    N     N_R   0.051930 0.704140 0.002330 -0.045614
N9    N     N_R   0.944340 0.651450 0.954380 -0.042245
N10   N     N_R   0.960830 0.507850 0.823700 -0.035465
N11   N     N_R   0.039170 0.492150 0.176300 -0.045107
N12   N     N_R   0.811290 0.303410 0.871650 -0.042788
N13   N     N_R   0.188710 0.696590 0.128350 -0.038732
N14   N     N_R   0.205200 0.552990 0.997670 -0.043196
N15   N     N_R   0.794800 0.447010 0.002330 -0.038093
N16   N     N_R   0.814800 0.361830 0.823700 -0.041775
Ni1   Ni    Ni4+2 0.119340 0.493420 0.109960 0.211943
Ni2   Ni    Ni4+2 0.880660 0.506580 0.890040 0.217539
Ni3   Ni    Ni4+2 0.872590 0.372590 0.000000 0.223342
Ni4   Ni    Ni4+2 0.127410 0.627410 0.000000 0.219529
O1    O     O_3   0.432786 0.479475 0.362975 -0.640513
O2    O     O_3   0.539217 0.480627 0.570717 -0.667258

loop_
_geom_bond_atom_site_label_1
_geom_bond_atom_site_label_2
_ccdc_geom_bond_type
C1    H1    S    
N16   Ni2   S    
C72   H35   S    
C27   C29   A    
C1    C77   A    
C14   C18   A    
N14   Ni4   S    
C76   C79   A    
C41   H28   S    
C64   N14   A    
C19   C31   S    
C85   H57   S    
C81   C82   S    
C15   C19   A    
N12   Ni3   S    
C76   N8    A    
C6    C66   S    
C83   C84   S    
C42   H10   S    
N1    N7    A    
C19   C21   A    
C24   C26   A    
C38   C42   A    
C11   C14   A    
C16   H11   S    
C57   C59   A    
C86   H40   S    
C11   C25   A    
C49   C54   A    
C71   N3    A    
C12   C79   A    
C65   N15   A    
N6    Ni3   S    
C82   H49   S    
C49   C57   A    
N9    Ni2   S    
C60   C62   A    
C37   C42   A    
C61   C63   A    
N13   Ni4   S    
C69   N16   A    
C72   C78   A    
N7    Ni3   S    
N12   N16   A    
C29   C78   S    
C40   H27   S    
C84   H53   S    
C28   C30   A    
C22   C25   A    
C39   I2    S    
C43   H9    S    
N4    N15   A    
C27   H5    S    
C10   C35   A    
C80   H43   S    
C35   I4    S    
C18   C20   A    
C30   C67   S    
C60   H22   S    
C44   C47   A    
C17   N11   A    
C2    H41   S    
C75   N7    A    
C74   H37   S    
N5    N10   A    
C21   H2    S    
C26   O2    S    
C64   H29   S    
N3    Ni1   S    
C3    C86   A    
C9    C33   A    
C76   H39   S    
C7    C33   A    
N4    Ni2   S    
C10   H21   S    
C23   C73   A    
C5    C68   S    
C61   H24   S    
C52   C54   A    
C46   C48   A    
N15   Ni3   S    
C40   C45   A    
C14   H58   S    
C50   C53   A    
C72   N4    A    
C62   C66   A    
N3    N14   A    
C45   C69   A    
C75   H38   S    
C64   C67   A    
C70   N2    A    
C84   C85   S    
C4    C6    A    
C85   H55   S    
C15   H59   S    
N8    Ni4   S    
C81   H46   S    
C39   C43   A    
C80   H42   S    
C58   C59   A    
C23   C37   S    
C57   H14   S    
C50   C56   S    
C7    H23   S    
C24   H4    S    
C51   C53   A    
C8    C35   A    
C82   H48   S    
C2    C4    A    
C41   C56   A    
C40   N12   A    
C75   C77   A    
C47   C48   A    
C45   C49   S    
C83   O2    S    
C73   N5    A    
C74   N6    A    
C28   H6    S    
C13   H56   S    
C62   H25   S    
C36   C46   A    
C17   H13   S    
C85   H54   S    
C83   H50   S    
N11   Ni1   S    
C52   C58   A    
C34   C74   A    
C20   C22   A    
N6    N11   A    
C8    C68   A    
C16   C23   A    
C56   C70   A    
C41   N13   A    
N8    N9    A    
C65   H30   S    
C20   H60   S    
C13   C26   A    
C21   C24   A    
C10   C61   A    
C18   C32   S    
C17   C34   A    
C83   H51   S    
N2    Ni1   S    
C8    H34   S    
C39   C47   A    
C63   C68   A    
C65   C78   A    
C51   H18   S    
C27   C32   A    
C63   H26   S    
C12   H12   S    
C54   H16   S    
C28   C31   A    
C80   C81   S    
C3    C5    A    
C11   H45   S    
C52   H19   S    
C55   H15   S    
C50   C55   A    
C6    C86   A    
C71   H33   S    
C9    C60   A    
C82   H47   S    
C13   C15   A    
C9    H20   S    
C4    C77   S    
C29   C31   A    
C33   I3    S    
C7    C66   A    
C30   C32   A    
N5    Ni4   S    
C25   O1    S    
C81   H44   S    
C46   H7    S    
C37   C44   A    
N1    Ni1   S    
C69   H31   S    
C22   H3    S    
C38   C48   A    
C1    N1    A    
C67   C71   A    
N10   Ni2   S    
C12   N9    A    
C38   I1    S    
N2    N13   A    
C44   H8    S    
C84   H52   S    
C2    C5    A    
C3    C79   S    
C70   H32   S    
C51   C59   A    
C16   N10   A    
C34   C36   S    
C73   H36   S    
C55   C58   A    
C53   H17   S    
C36   C43   A    
C80   O1    S    
