data_mof_unit_21200.cif
_audit_creation_date              2012-12-10T16:50:09-0500
_audit_creation_method            fapswitch 2.2
_symmetry_space_group_name_H-M    P1
_symmetry_Int_Tables_number       1
_space_group_crystal_system       triclinic
_cell_length_a                    23.506161
_cell_length_b                    8.723401
_cell_length_c                    7.421404
_cell_angle_alpha                 102.089719
_cell_angle_beta                  94.797196
_cell_angle_gamma                 92.097323
_cell_volume                      1480.53318

loop_
_atom_site_label
_atom_site_type_symbol
_atom_type_description
_atom_site_fract_x
_atom_site_fract_y
_atom_site_fract_z
_atom_type_partial_charge
C1    C     C_R   0.496381 0.200756 0.455714 0.887494
C2    C     C_R   0.503619 0.799244 0.544286 0.887489
C3    C     C_R   0.232067 0.532584 0.369890 -0.099659
C4    C     C_R   0.767933 0.467397 0.630097 -0.099662
C5    C     C_R   0.291121 0.535437 0.356861 0.132463
C6    C     C_R   0.708880 0.464555 0.643135 0.132463
C7    C     C_R   0.327949 0.501704 0.504420 -0.047494
C8    C     C_R   0.672051 0.498287 0.495575 -0.047502
C9    C     C_R   0.303927 0.466293 0.659394 -0.256959
C10   C     C_R   0.696072 0.533688 0.340592 -0.256952
C11   C     C_R   0.244977 0.463384 0.669100 -0.107092
C12   C     C_R   0.755021 0.536585 0.330876 -0.107094
C13   C     C_R   0.209151 0.496615 0.524317 0.329001
C14   C     C_R   0.790848 0.503356 0.475661 0.329006
C15   C     C_2   0.485516 0.036247 0.439667 -0.028254
C16   C     C_2   0.514484 0.963753 0.560333 -0.028246
C17   C     C_R   0.390822 0.501499 0.501342 0.798773
C18   C     C_R   0.609178 0.498499 0.498657 0.798771
C19   C     C_R   0.883003 0.643850 0.538348 0.541319
C20   C     C_R   0.116996 0.356120 0.461625 0.541319
C21   C     C_R   0.876350 0.368787 0.407177 0.542398
C22   C     C_R   0.123649 0.631183 0.592798 0.542399
C23   C     C_R   0.935919 0.364173 0.418233 -0.046926
C24   C     C_R   0.064080 0.635796 0.581740 -0.046926
C25   C     C_R   0.969874 0.502924 0.492813 -0.052666
C26   C     C_R   0.030124 0.497046 0.507160 -0.052666
C27   C     C_R   0.943595 0.646901 0.553077 -0.024987
C28   C     C_R   0.056404 0.353069 0.446895 -0.024987
C29   C     C_R   0.961648 0.222547 0.358850 -0.169978
C30   C     C_R   0.038350 0.777423 0.641123 -0.169978
C31   C     C_R   0.021096 0.213990 0.372454 0.138230
C32   C     C_R   0.978902 0.785980 0.627518 0.138229
Cu1   Cu    Cu3+1 0.506340 0.517380 0.684380 0.941352
Cu2   Cu    Cu3+1 0.493660 0.482620 0.315620 0.941351
H1    H     H_    0.935065 0.116572 0.301468 0.188074
H2    H     H_    0.064934 0.883398 0.698505 0.188074
H3    H     H_    0.203226 0.557687 0.259237 0.134977
H4    H     H_    0.796775 0.442296 0.740751 0.134977
H5    H     H_    0.330831 0.438397 0.772400 0.161824
H6    H     H_    0.669167 0.561582 0.227585 0.161826
H7    H     H_    0.227106 0.434827 0.788617 0.144496
H8    H     H_    0.772890 0.565132 0.211351 0.144490
H9    H     H_    0.455269 0.379542 0.948476 0.225373
H10   H     H_    0.544731 0.620457 0.051524 0.225373
N1    N     N_R   0.851480 0.506341 0.468475 -0.466329
N2    N     N_R   0.148519 0.493629 0.531500 -0.466330
N3    N     N_2   0.484110 0.456420 0.038520 -0.218551
N4    N     N_2   0.515890 0.543580 0.961480 -0.218550
O1    O     O_R   0.504120 0.286130 0.619770 -0.593745
O2    O     O_R   0.495880 0.713870 0.380230 -0.593746
O3    O     O_R   0.493410 0.256770 0.308360 -0.579236
O4    O     O_R   0.506590 0.743230 0.691640 -0.579234
O5    O     O_R   0.423230 0.514630 0.655730 -0.590122
O6    O     O_R   0.576770 0.485370 0.344270 -0.590122
O7    O     O_R   0.412530 0.485280 0.344320 -0.580649
O8    O     O_R   0.587470 0.514720 0.655680 -0.580649
O9    O     O_2   0.855223 0.775213 0.595153 -0.529874
O10   O     O_2   0.144776 0.224758 0.404819 -0.529875
O11   O     O_2   0.843253 0.236292 0.337996 -0.529728
O12   O     O_2   0.156745 0.763677 0.661982 -0.529728
C33   C     C_3   0.044258 0.054595 0.305829 -0.738444
H11   H     H_    0.009669 0.961206 0.256950 0.202895
H12   H     H_    0.069938 0.056994 0.187428 0.260379
H13   H     H_    0.070489 0.019985 0.420668 0.262919
C34   C     C_3   0.955740 0.945375 0.694142 -0.738443
H14   H     H_    0.990330 0.038764 0.743021 0.202895
H15   H     H_    0.929509 0.979985 0.579303 0.262920
H16   H     H_    0.930061 0.942977 0.812544 0.260379
C35   C     C_3   0.312686 0.575586 0.185709 -0.811065
H17   H     H_    0.344865 0.675635 0.224475 0.241204
H18   H     H_    0.331655 0.471761 0.104256 0.238115
H19   H     H_    0.277800 0.610337 0.094516 0.224116
C36   C     C_3   0.687316 0.424415 0.814295 -0.811046
H20   H     H_    0.655136 0.324363 0.775534 0.241201
H21   H     H_    0.722202 0.389670 0.905499 0.224107
H22   H     H_    0.668347 0.528248 0.895742 0.238112
C37   C     C_3   0.436191 0.958500 0.301285 -0.841587
H23   H     H_    0.411305 0.046368 0.244415 0.231501
H24   H     H_    0.452319 0.877797 0.182498 0.264275
H25   H     H_    0.406067 0.894244 0.370426 0.222161
C38   C     C_3   0.563810 0.041501 0.698715 -0.841558
H26   H     H_    0.588699 0.953631 0.755571 0.231496
H27   H     H_    0.593933 0.105767 0.629576 0.222155
H28   H     H_    0.547683 0.122198 0.817514 0.264266

loop_
_geom_bond_atom_site_label_1
_geom_bond_atom_site_label_2
_ccdc_geom_bond_type
C33   H13   S    
C36   H20   S    
C31   C33   S    
C38   H26   S    
C37   H23   S    
C19   O9    S    
Cu1   O4    S    
Cu2   O3    S    
C23   C29   A    
C24   C26   A    
C21   O11   S    
C22   O12   S    
C13   N2    S    
Cu1   O1    S    
C15   C16   D    
C9    H5    S    
C10   H6    S    
C35   H18   S    
C5    C35   S    
C2    O2    A    
C7    C17   S    
C12   H8    S    
C1    C15   S    
C2    C16   S    
C17   O7    A    
C3    C13   A    
C18   O8    A    
Cu1   O8    S    
Cu2   O7    S    
C36   H21   S    
C33   H11   S    
C10   C12   A    
C38   H27   S    
C14   N1    S    
C21   N1    A    
C37   H24   S    
Cu1   O5    S    
Cu2   O2    S    
C4    C6    A    
C5    C7    A    
C6    C8    A    
C20   C28   A    
C34   H15   S    
C25   C26   A    
C8    C18   S    
C35   H19   S    
C1    O3    A    
N3    N4    D    
C34   H16   S    
C33   H12   S    
Cu1   Cu2   S    
C9    C11   A    
C2    O4    A    
C22   N2    A    
C12   C14   A    
Cu2   O6    S    
C21   C23   A    
C36   H22   S    
C22   C24   A    
C20   O10   S    
C17   O5    A    
C38   H28   S    
C19   C27   A    
C6    C36   S    
C37   H25   S    
C7    C9    A    
C27   C32   A    
C28   C31   A    
C4    H4    S    
C3    C5    A    
C19   N1    A    
C25   C27   A    
C29   H1    S    
C26   C28   A    
C30   H2    S    
C29   C31   A    
C30   C32   A    
C11   C13   A    
C15   C37   S    
C1    O1    A    
C16   C38   S    
C11   H7    S    
C23   C25   A    
C4    C14   A    
C35   H17   S    
C24   C30   A    
C18   O6    A    
C3    H3    S    
C8    C10   A    
C34   H14   S    
Cu1   N4    S    
Cu2   N3    S    
H9    N3    S    
C20   N2    A    
H10   N4    S    
C32   C34   S    
