data_mof_unit_59163.cif
_audit_creation_date              2012-12-10T17:50:38-0500
_audit_creation_method            fapswitch 2.2
_symmetry_space_group_name_H-M    P1
_symmetry_Int_Tables_number       1
_space_group_crystal_system       triclinic
_cell_length_a                    15.677119
_cell_length_b                    10.670148
_cell_length_c                    10.00787
_cell_angle_alpha                 91.118126
_cell_angle_beta                  90.694423
_cell_angle_gamma                 93.886375
_cell_volume                      1669.76891293

loop_
_atom_site_label
_atom_site_type_symbol
_atom_type_description
_atom_site_fract_x
_atom_site_fract_y
_atom_site_fract_z
_atom_type_partial_charge
C1    C     C_R   0.503929 0.260875 0.497934 0.931051
C2    C     C_R   0.702035 0.088022 0.715162 -0.290040
C3    C     C_R   0.702105 0.956539 0.716137 0.616414
C4    C     C_R   0.338316 0.499605 0.499235 0.925851
C5    C     C_R   0.639436 0.884962 0.642413 -0.168416
C6    C     C_R   0.573769 0.942212 0.572770 -0.068569
C7    C     C_R   0.574424 0.073582 0.571757 0.028453
C8    C     C_R   0.513571 0.128671 0.490587 -0.292593
C9    C     C_R   0.461356 0.055923 0.398975 0.421486
C10   C     C_R   0.451691 0.927662 0.414591 0.395742
C11   C     C_R   0.508020 0.872069 0.501008 -0.261609
C12   C     C_3   0.083033 0.493219 0.497918 -0.091696
C13   C     C_R   0.375098 0.358521 0.141409 -0.044697
C14   C     C_R   0.300547 0.311836 0.079578 -0.256315
C15   C     C_R   0.294348 0.312783 0.942777 -0.333164
C16   C     C_R   0.502255 0.739179 0.501079 0.948309
C17   C     C_R   0.366445 0.349430 0.865575 0.600653
C18   C     C_R   0.436325 0.426632 0.927380 -0.056374
C19   C     C_R   0.438679 0.427329 0.071493 -0.064852
C20   C     C_R   0.555081 0.578221 0.074750 0.436566
C21   C     C_R   0.558752 0.572052 0.931344 0.437000
C22   C     C_R   0.661624 0.500312 0.500742 0.837063
C23   C     C_3   0.977834 0.608411 0.531216 0.362683
C24   C     C_3   0.968384 0.410436 0.593009 -0.376575
C25   C     C_3   0.022639 0.374908 0.469245 -0.365768
C26   C     C_1   0.249362 0.497413 0.497648 -0.165393
C27   C     C_1   0.750258 0.497858 0.502302 -0.217587
C28   C     C_3   0.030897 0.527075 0.620633 0.461785
C29   C     C_3   0.775692 0.930810 0.912503 -0.316435
C30   C     C_3   0.384810 0.831442 0.228104 -0.157327
C31   C     C_3   0.678326 0.666873 0.177618 -0.203875
C32   C     C_3   0.329307 0.187747 0.703109 0.079290
C33   C     C_3   0.369630 0.081623 0.778350 -0.414738
C34   C     C_3   0.916000 0.492804 0.502002 -0.081709
C35   C     C_3   0.329615 0.952984 0.733959 -0.894398
C36   C     C_3   0.695815 0.588619 0.856319 -0.212908
C37   C     C_3   0.896024 0.301393 0.250677 -0.338222
C38   C     C_3   0.004426 0.722800 0.251360 -0.302757
C39   C     C_3   0.014392 0.811745 0.604953 -0.236908
C40   C     C_3   0.081220 0.477479 0.833355 0.084006
C41   C     C_3   0.027087 0.496473 0.957495 -0.281987
C42   C     C_3   0.931181 0.483824 0.925849 -0.826835
C43   C     C_3   0.470591 0.110098 0.181587 -0.335109
C44   C     C_3   0.028850 0.573044 0.408002 0.380129
C45   C     C_3   0.968166 0.456360 0.380337 0.502625
C46   C     C_1   0.173946 0.495268 0.497184 0.062818
C47   C     C_1   0.825388 0.495377 0.502888 0.050410
C48   C     C_R   0.639156 0.145794 0.643970 -0.221712
H1    H     H_    0.044055 0.280282 0.444417 0.171471
H2    H     H_    0.810270 0.024748 0.924949 0.144671
H3    H     H_    0.814799 0.862532 0.963116 0.181210
H4    H     H_    0.347816 0.740866 0.206224 0.184692
H5    H     H_    0.451323 0.820015 0.194580 0.170563
H6    H     H_    0.354880 0.904015 0.169013 0.179325
H7    H     H_    0.720446 0.732746 0.119910 0.143162
H8    H     H_    0.698354 0.569015 0.164803 0.133887
H9    H     H_    0.688715 0.696329 0.283755 0.183595
H10   H     H_    0.338075 0.170240 0.594599 0.166999
H11   H     H_    0.258946 0.184814 0.714106 0.113908
H12   H     H_    0.644131 0.784424 0.638416 0.181152
H13   H     H_    0.439445 0.085781 0.760187 0.244490
H14   H     H_    0.359861 0.092320 0.887194 0.213664
H15   H     H_    0.260872 0.944352 0.760290 0.257094
H16   H     H_    0.362773 0.878263 0.785078 0.269855
H17   H     H_    0.335461 0.939146 0.624488 0.285433
H18   H     H_    0.731047 0.625167 0.768304 0.220670
H19   H     H_    0.686794 0.484333 0.844494 0.128046
H20   H     H_    0.738479 0.611656 0.942782 0.127158
H21   H     H_    0.849829 0.285225 0.333125 0.175628
H22   H     H_    0.946243 0.232851 0.254660 0.167057
H23   H     H_    0.381268 0.339244 0.244632 0.242104
H24   H     H_    0.860189 0.284364 0.155064 0.179638
H25   H     H_    0.980918 0.793322 0.322360 0.192164
H26   H     H_    0.949986 0.661681 0.209494 0.188625
H27   H     H_    0.034043 0.775177 0.167204 0.176179
H28   H     H_    0.029827 0.797890 0.711931 0.209164
H29   H     H_    0.993406 0.908471 0.595978 0.170107
H30   H     H_    0.072655 0.805629 0.543212 0.172783
H31   H     H_    0.149514 0.485941 0.865242 0.138695
H32   H     H_    0.069479 0.379962 0.792425 0.113065
H33   H     H_    0.042233 0.426072 0.033104 0.210555
H34   H     H_    0.248967 0.268855 0.137612 0.178537
H35   H     H_    0.044132 0.591462 0.001163 0.235351
H36   H     H_    0.914488 0.549289 0.846192 0.280907
H37   H     H_    0.894831 0.507532 0.016210 0.262442
H38   H     H_    0.911271 0.385834 0.894161 0.225972
H39   H     H_    0.505722 0.023647 0.167843 0.139464
H40   H     H_    0.518087 0.191990 0.184111 0.196020
H41   H     H_    0.429739 0.117588 0.091676 0.180278
H42   H     H_    0.235220 0.273222 0.898517 0.139921
H43   H     H_    0.939854 0.342589 0.665140 0.175069
H44   H     H_    0.644489 0.247154 0.641439 0.169499
H45   H     H_    0.752352 0.146276 0.765131 0.139625
H46   H     H_    0.712701 0.928666 0.963260 0.177939
N1    N     N_R   0.499210 0.498800 0.142780 -0.175971
N2    N     N_R   0.499180 0.498720 0.857170 -0.166361
O1    O     O_R   0.500000 0.316780 0.614690 -0.572066
O2    O     O_3   0.378731 0.859164 0.366047 -0.609325
O3    O     O_3   0.592456 0.682720 0.142459 -0.596085
O4    O     O_3   0.369804 0.308538 0.733913 -0.602650
O5    O     O_3   0.618338 0.649111 0.865993 -0.575277
O6    O     O_3   0.933099 0.425395 0.252510 -0.622039
O7    O     O_3   0.067094 0.653102 0.311770 -0.594583
O8    O     O_3   0.946539 0.726373 0.562336 -0.602668
O9    O     O_3   0.068747 0.574132 0.741951 -0.632296
O10   O     O_3   0.417979 0.109477 0.296161 -0.602882
O11   O     O_R   0.499990 0.316750 0.385360 -0.624052
O12   O     O_R   0.376780 0.500000 0.614650 -0.561556
O13   O     O_R   0.376770 0.499980 0.385310 -0.641170
O14   O     O_R   0.500010 0.683250 0.614640 -0.598441
O15   O     O_R   0.500000 0.683220 0.385310 -0.567960
O16   O     O_R   0.623230 0.500020 0.614690 -0.619140
O17   O     O_R   0.623220 0.500000 0.385350 -0.618229
O18   O     O_3   0.767247 0.895282 0.776167 -0.598252
Zn1   Zn    Zn3+2 0.500010 0.500020 0.653130 1.000906
Zn2   Zn    Zn3+2 0.499990 0.499980 0.346870 0.958494

loop_
_geom_bond_atom_site_label_1
_geom_bond_atom_site_label_2
_ccdc_geom_bond_type
C4    O13   A    
C37   H21   S    
C1    C8    S    
C18   N2    A    
C41   C42   S    
C32   H10   S    
C29   O18   S    
C36   H19   S    
C16   O14   A    
C7    C8    A    
C30   H6    S    
C43   H41   S    
C12   C28   S    
C43   H40   S    
C39   H29   S    
O12   Zn1   S    
C38   H26   S    
C5    C6    A    
C36   H18   S    
C35   H17   S    
C41   H35   S    
C18   C19   A    
C10   O2    S    
O13   Zn2   S    
C22   O17   A    
C33   H14   S    
C40   H32   S    
N2    Zn1   S    
O15   Zn2   S    
C42   H38   S    
C31   O3    S    
C31   H8    S    
O1    Zn1   S    
C9    C10   A    
C28   O9    S    
C38   H27   S    
O17   Zn2   S    
C21   O5    S    
C13   C14   A    
C44   O7    S    
C29   H2    S    
C30   H5    S    
C13   C19   A    
C39   H30   S    
C39   O8    S    
C42   H36   S    
C24   C25   S    
C12   C46   S    
C45   O6    S    
C1    O1    A    
C6    C11   A    
C34   C45   S    
C8    C9    A    
C13   H23   S    
C2    C48   A    
C9    O10   S    
C39   H28   S    
C24   C34   S    
C23   C44   S    
C32   O4    S    
C36   O5    S    
C43   O10   S    
C38   O7    S    
C4    O12   A    
C11   C16   S    
C23   O8    S    
N1    Zn2   S    
C23   C34   S    
C41   H33   S    
C17   C18   A    
C40   H31   S    
C42   H37   S    
C23   C28   S    
C35   H16   S    
C1    O11   A    
C40   C41   S    
C20   N1    A    
C22   O16   A    
C22   C27   S    
C29   H46   S    
C14   H34   S    
C24   H43   S    
C25   C45   S    
C19   N1    A    
C44   C45   S    
C29   H3    S    
C27   C47   T    
C15   C17   A    
C30   H4    S    
C5    H12   S    
C2    H45   S    
C24   C28   S    
C3    C5    A    
C3    O18   S    
C4    C26   S    
C36   H20   S    
C6    C7    A    
C21   N2    A    
C30   O2    S    
C12   C25   S    
C43   H39   S    
C7    C48   A    
C31   H9    S    
C2    C3    A    
C12   C44   S    
C32   C33   S    
C15   H42   S    
C37   O6    S    
C20   O3    S    
C33   C35   S    
C17   O4    S    
C25   H1    S    
O11   Zn2   S    
C10   C11   A    
C26   C46   T    
C20   C21   A    
C33   H13   S    
C48   H44   S    
C37   H24   S    
C14   C15   A    
C35   H15   S    
C34   C47   S    
C32   H11   S    
C31   H7    S    
C37   H22   S    
O14   Zn1   S    
O16   Zn1   S    
C16   O15   A    
C40   O9    S    
C38   H25   S    
