data_mof_unit_30856.cif
_audit_creation_date              2012-12-11T16:26:26-0500
_audit_creation_method            fapswitch 2.2
_symmetry_space_group_name_H-M    P1
_symmetry_Int_Tables_number       1
_space_group_crystal_system       triclinic
_cell_length_a                    14.007643
_cell_length_b                    14.006114
_cell_length_c                    31.887555
_cell_angle_alpha                 90.003502
_cell_angle_beta                  90.016717
_cell_angle_gamma                 119.991001
_cell_volume                      5418.43562218

loop_
_atom_site_label
_atom_site_type_symbol
_atom_type_description
_atom_site_fract_x
_atom_site_fract_y
_atom_site_fract_z
_atom_type_partial_charge
C1    C     C_R   0.567538 0.444037 0.810467 0.539954
C2    C     C_R   0.443761 0.568136 0.189280 0.540297
C3    C     C_3   0.447546 0.185935 0.442344 -0.429691
C4    C     C_3   0.677856 0.647523 0.061846 -0.275592
C5    C     C_3   0.695289 0.762301 0.053254 -0.450964
C6    C     C_3   0.959648 0.316223 0.435583 -0.275730
C7    C     C_3   0.055685 0.295587 0.442597 -0.445801
C8    C     C_3   0.352342 0.030324 0.061813 -0.275593
C9    C     C_3   0.237490 0.933087 0.053253 -0.450892
C10   C     C_3   0.684566 0.640588 0.435196 -0.275727
C11   C     C_3   0.705908 0.757533 0.442179 -0.446036
C12   C     C_3   0.320430 0.966391 0.562637 -0.275549
C13   C     C_R   0.432341 0.876361 0.310496 0.541125
C14   C     C_3   0.302905 0.063646 0.553849 -0.450308
C15   C     C_3   0.076119 0.385362 0.931927 -0.279182
C16   C     C_3   0.198123 0.464486 0.940807 -0.433439
C17   C     C_3   0.644969 0.680995 0.563371 -0.275670
C18   C     C_3   0.761694 0.701581 0.556699 -0.446432
C19   C     C_3   0.309133 0.923450 0.931774 -0.279154
C20   C     C_3   0.266545 0.801511 0.940699 -0.433468
C21   C     C_3   0.041221 0.357607 0.564350 -0.275457
C22   C     C_3   0.946070 0.240514 0.557330 -0.446468
C23   C     C_3   0.615053 0.690721 0.931991 -0.279180
C24   C     C_R   0.124355 0.556219 0.189281 0.540388
C25   C     C_3   0.536121 0.733859 0.940851 -0.433409
C26   C     C_1   0.015841 0.526742 0.017184 -0.042152
C27   C     C_1   0.522128 0.006945 0.480105 -0.040115
C28   C     C_1   0.473312 0.489078 0.017188 -0.042178
C29   C     C_1   0.002195 0.518939 0.481127 -0.040704
C30   C     C_1   0.510604 0.983966 0.017160 -0.042231
C31   C     C_1   0.481955 0.480069 0.480649 -0.044165
C32   C     C_1   0.524444 0.012433 0.517657 -0.041122
C33   C     C_R   0.876096 0.432143 0.689452 0.540638
C34   C     C_1   0.010711 0.525066 0.979615 -0.044566
C35   C     C_1   0.484963 0.477421 0.518201 -0.042017
C36   C     C_1   0.514149 0.989188 0.979594 -0.044487
C37   C     C_1   0.996319 0.516016 0.518671 -0.040648
C38   C     C_1   0.475019 0.485647 0.979617 -0.044514
C39   C     C_R   0.933899 0.472928 0.850889 0.002836
C40   C     C_R   0.540221 0.071469 0.647986 0.003094
C41   C     C_R   0.527152 0.461017 0.850890 0.002816
C42   C     C_R   0.930573 0.469863 0.648462 0.003195
C43   C     C_R   0.539077 0.066136 0.850882 0.002837
C44   C     C_R   0.555993 0.123499 0.810465 0.540031
C45   C     C_R   0.530499 0.460250 0.648255 0.003111
C46   C     C_R   0.471763 0.932912 0.351093 0.004067
C47   C     C_R   0.072298 0.540496 0.147742 0.003105
C48   C     C_R   0.461353 0.529055 0.351207 0.002561
C49   C     C_R   0.468071 0.927544 0.147725 0.003135
C50   C     C_R   0.068763 0.538874 0.351405 0.002522
C51   C     C_R   0.459467 0.531793 0.147742 0.003097
C52   C     C_R   0.922625 0.553186 0.873223 -0.137384
C53   C     C_R   0.630824 0.078027 0.626475 -0.137395
C54   C     C_R   0.446789 0.369541 0.873192 -0.137393
C55   C     C_R   0.567900 0.443888 0.689409 0.540520
C56   C     C_R   0.924744 0.554139 0.626824 -0.137673
C57   C     C_R   0.630612 0.077631 0.873277 -0.137438
C58   C     C_R   0.445715 0.370110 0.626795 -0.137591
C59   C     C_R   0.553801 0.924098 0.373167 -0.137993
C60   C     C_R   0.078213 0.631017 0.126378 -0.137260
C61   C     C_R   0.371823 0.443509 0.372615 -0.137258
C62   C     C_R   0.552393 0.921245 0.126314 -0.137212
C63   C     C_R   0.073543 0.628596 0.372953 -0.138510
C64   C     C_R   0.368944 0.447251 0.126350 -0.137267
C65   C     C_R   0.954876 0.574688 0.914997 -0.138793
C66   C     C_R   0.876517 0.432490 0.810466 0.539934
C67   C     C_R   0.622757 0.052688 0.583953 -0.136309
C68   C     C_R   0.425302 0.380286 0.914965 -0.138765
C69   C     C_R   0.952734 0.572648 0.584549 -0.135880
C70   C     C_R   0.619801 0.045347 0.915045 -0.138771
C71   C     C_R   0.427540 0.378837 0.584408 -0.136489
C72   C     C_R   0.574329 0.955241 0.415087 -0.137172
C73   C     C_R   0.053657 0.623476 0.083778 -0.136790
C74   C     C_R   0.381773 0.423771 0.414728 -0.138545
C75   C     C_R   0.569316 0.945747 0.083716 -0.136795
C76   C     C_R   0.045283 0.618990 0.415207 -0.135028
C77   C     C_R   0.556167 0.124198 0.689350 0.540570
C78   C     C_R   0.376519 0.430219 0.083755 -0.136817
C79   C     C_R   0.000226 0.517678 0.934863 0.046798
C80   C     C_R   0.524217 0.019956 0.562450 0.047225
C81   C     C_R   0.482441 0.482591 0.934864 0.046847
C82   C     C_R   0.987123 0.507663 0.563417 0.046689
C83   C     C_R   0.517375 0.999758 0.934845 0.046884
C84   C     C_R   0.493415 0.477434 0.562971 0.046965
C85   C     C_R   0.514160 0.996538 0.435379 0.051021
C86   C     C_R   0.022561 0.525674 0.062011 0.047735
C87   C     C_R   0.481058 0.488844 0.435917 0.043903
C88   C     C_R   0.444053 0.567698 0.310488 0.540578
C89   C     C_R   0.502801 0.977147 0.061986 0.047736
C90   C     C_R   0.011546 0.519786 0.436387 0.045752
C91   C     C_R   0.474343 0.496851 0.062019 0.047719
C92   C     C_R   0.022103 0.444493 0.911863 0.033286
C93   C     C_R   0.429782 0.004409 0.584277 0.035484
C94   C     C_R   0.555755 0.577619 0.911895 0.033288
C95   C     C_R   0.001520 0.428247 0.585449 0.034339
C96   C     C_R   0.422338 0.977685 0.911783 0.033274
C97   C     C_R   0.573394 0.571371 0.584789 0.034622
C98   C     C_R   0.438136 0.015045 0.412766 0.033500
C99   C     C_R   0.431829 0.875608 0.189277 0.540395
C100  C     C_R   0.007361 0.431133 0.083659 0.035855
C101  C     C_R   0.574381 0.569518 0.414043 0.034043
C102  C     C_R   0.423693 0.992635 0.083669 0.035889
C103  C     C_R   0.998184 0.426276 0.414421 0.033920
C104  C     C_R   0.568876 0.576125 0.083698 0.035855
C105  C     C_R   0.987535 0.422074 0.869886 -0.120482
C106  C     C_R   0.438939 0.030381 0.627063 -0.112932
C107  C     C_R   0.578148 0.565470 0.869919 -0.120441
C108  C     C_R   0.973456 0.410670 0.628028 -0.112305
C109  C     C_R   0.434548 0.012279 0.869813 -0.120446
C110  C     C_R   0.123759 0.555972 0.310511 0.540910
C111  C     C_R   0.590584 0.561686 0.627484 -0.112255
C112  C     C_R   0.417420 0.982373 0.370598 -0.118195
C113  C     C_R   0.032562 0.439709 0.126534 -0.112873
C114  C     C_R   0.563455 0.588156 0.371613 -0.113121
C115  C     C_R   0.407182 0.967523 0.126550 -0.112918
C116  C     C_R   0.026460 0.436901 0.371866 -0.111879
C117  C     C_R   0.560270 0.592765 0.126566 -0.112901
C118  C     C_3   0.969932 0.322191 0.061765 -0.275593
C119  C     C_3   0.067358 0.304887 0.053194 -0.450902
C120  C     C_3   0.373972 0.063033 0.433373 -0.281133
Cr1   Cr    Cr6+3 0.504240 0.249200 0.750000 1.005707
Cr2   Cr    Cr6+3 0.744960 0.495760 0.750000 1.005615
Cr3   Cr    Cr6+3 0.750800 0.255040 0.750000 1.005575
Cr4   Cr    Cr6+3 0.249200 0.504240 0.250000 1.005641
Cr5   Cr    Cr6+3 0.495760 0.744960 0.250000 1.005664
Cr6   Cr    Cr6+3 0.255040 0.750800 0.250000 1.005948
H1    H     H_    0.881969 0.594084 0.859386 0.135259
H2    H     H_    0.600806 0.890801 0.141751 0.130983
H3    H     H_    0.105727 0.708240 0.357977 0.132256
H4    H     H_    0.290150 0.398734 0.141796 0.130817
H5    H     H_    0.026333 0.368814 0.142751 0.125991
H6    H     H_    0.355278 0.991040 0.353529 0.120808
H7    H     H_    0.631170 0.657379 0.142806 0.125981
H8    H     H_    0.020829 0.366598 0.355375 0.127002
H9    H     H_    0.342731 0.974031 0.142805 0.125904
H10   H     H_    0.633627 0.653147 0.355199 0.126798
H11   H     H_    0.368075 0.023818 0.643413 0.126034
H12   H     H_    0.710031 0.109447 0.641743 0.131421
H13   H     H_    0.998406 0.361635 0.852555 0.119819
H14   H     H_    0.655149 0.632287 0.643878 0.126613
H15   H     H_    0.363244 0.001244 0.852437 0.119845
H16   H     H_    0.979861 0.346520 0.644583 0.126545
H17   H     H_    0.638674 0.636744 0.852617 0.119871
H18   H     H_    0.063861 0.695622 0.067319 0.104143
H19   H     H_    0.633095 0.941496 0.432322 0.104987
H20   H     H_    0.304387 0.368311 0.067273 0.104124
H21   H     H_    0.055347 0.690844 0.431928 0.106065
H22   H     H_    0.631054 0.935294 0.067225 0.104146
H23   H     H_    0.405775 0.288017 0.859332 0.135282
H24   H     H_    0.310124 0.361519 0.431373 0.104269
H25   H     H_    0.695128 0.063845 0.567352 0.104877
H26   H     H_    0.938758 0.631515 0.932487 0.105952
H27   H     H_    0.365600 0.306900 0.567807 0.104158
H28   H     H_    0.692731 0.061625 0.932580 0.105999
H29   H     H_    0.942184 0.634047 0.567782 0.104987
H30   H     H_    0.368373 0.307368 0.932428 0.105972
H31   H     H_    0.130659 0.374044 0.034165 0.160914
H32   H     H_    0.104856 0.299665 0.083175 0.143375
H33   H     H_    0.038755 0.226791 0.035621 0.128200
H34   H     H_    0.892034 0.601205 0.641753 0.130922
H35   H     H_    0.908667 0.253740 0.081663 0.136470
H36   H     H_    0.927721 0.317291 0.031700 0.147271
H37   H     H_    0.514629 0.200351 0.464480 0.162036
H38   H     H_    0.484233 0.231441 0.412742 0.161352
H39   H     H_    0.397557 0.218802 0.456669 0.134321
H40   H     H_    0.305223 0.052668 0.412860 0.127999
H41   H     H_    0.335907 0.018208 0.462918 0.145302
H42   H     H_    0.626204 0.756534 0.034184 0.160854
H43   H     H_    0.700502 0.805042 0.083226 0.143357
H44   H     H_    0.773420 0.811711 0.035716 0.128242
H45   H     H_    0.712198 0.118481 0.859494 0.135303
H46   H     H_    0.746243 0.654616 0.081779 0.136478
H47   H     H_    0.682746 0.610176 0.031793 0.147287
H48   H     H_    0.091180 0.290275 0.412134 0.142610
H49   H     H_    0.121152 0.363223 0.461511 0.156220
H50   H     H_    0.026162 0.216598 0.459617 0.129550
H51   H     H_    0.919710 0.311369 0.466143 0.151107
H52   H     H_    0.896225 0.249267 0.415737 0.136683
H53   H     H_    0.243088 0.869856 0.034066 0.160758
H54   H     H_    0.194966 0.895398 0.083233 0.143501
H55   H     H_    0.187984 0.961957 0.035850 0.128228
H56   H     H_    0.397910 0.290813 0.641980 0.130811
H57   H     H_    0.345406 0.091723 0.081735 0.136470
H58   H     H_    0.389611 0.072457 0.031744 0.147362
H59   H     H_    0.712008 0.798608 0.411707 0.142096
H60   H     H_    0.638226 0.755832 0.460891 0.155240
H61   H     H_    0.784697 0.806488 0.459386 0.129971
H62   H     H_    0.689279 0.605465 0.465772 0.151592
H63   H     H_    0.751258 0.643629 0.415345 0.136151
H64   H     H_    0.298311 0.101938 0.583720 0.143603
H65   H     H_    0.371680 0.126557 0.534581 0.161660
H66   H     H_    0.224489 0.034632 0.536456 0.127984
H67   H     H_    0.597149 0.886399 0.358963 0.132369
H68   H     H_    0.315016 0.923446 0.532715 0.146433
H69   H     H_    0.252383 0.905550 0.582790 0.136567
H70   H     H_    0.242499 0.502998 0.911192 0.159482
H71   H     H_    0.208941 0.530256 0.962988 0.157195
H72   H     H_    0.235224 0.418236 0.955051 0.139617
H73   H     H_    0.032778 0.345133 0.961477 0.145482
H74   H     H_    0.069799 0.318773 0.911099 0.128957
H75   H     H_    0.802221 0.707528 0.587295 0.142428
H76   H     H_    0.759727 0.633597 0.538087 0.155523
H77   H     H_    0.811241 0.780249 0.539500 0.129976
H78   H     H_    0.108418 0.709798 0.141852 0.130834
H79   H     H_    0.610114 0.685186 0.532661 0.151979
H80   H     H_    0.648258 0.748322 0.582906 0.136287
H81   H     H_    0.261061 0.757114 0.911122 0.159478
H82   H     H_    0.321431 0.790954 0.962996 0.157185
H83   H     H_    0.183079 0.764214 0.954826 0.139758
H84   H     H_    0.312020 0.966830 0.961299 0.145409
H85   H     H_    0.248819 0.929502 0.910881 0.129032
H86   H     H_    0.910768 0.199615 0.587795 0.142532
H87   H     H_    0.880292 0.241910 0.538354 0.154929
H88   H     H_    0.976426 0.191668 0.540368 0.130117
H89   H     H_    0.292075 0.396360 0.357673 0.130855
H90   H     H_    0.081046 0.392909 0.533795 0.151671
H91   H     H_    0.105009 0.354874 0.584239 0.136568
H92   H     H_    0.497702 0.739882 0.911226 0.159539
H93   H     H_    0.470289 0.678983 0.963006 0.157184
H94   H     H_    0.582489 0.817169 0.955118 0.139531
H95   H     H_    0.655200 0.687455 0.961552 0.145487
H96   H     H_    0.681717 0.750921 0.911190 0.128944
O1    O     O_R   0.480350 0.140770 0.796330 -0.520437
O2    O     O_R   0.140770 0.480350 0.203670 -0.521388
O3    O     O_R   0.519650 0.660420 0.296330 -0.521857
O4    O     O_R   0.339580 0.859230 0.203670 -0.521463
O5    O     O_R   0.514930 0.348530 0.793250 -0.499669
O6    O     O_R   0.833600 0.485070 0.706750 -0.499043
O7    O     O_R   0.651470 0.166400 0.793250 -0.499637
O8    O     O_R   0.514930 0.348530 0.706750 -0.499049
O9    O     O_R   0.833600 0.485070 0.793250 -0.499668
O10   O     O_R   0.651470 0.166400 0.706750 -0.499113
O11   O     O_R   0.348530 0.514930 0.293250 -0.498886
O12   O     O_R   0.660420 0.519650 0.703670 -0.521664
O13   O     O_R   0.485070 0.833600 0.206750 -0.499151
O14   O     O_R   0.166400 0.651470 0.293250 -0.498977
O15   O     O_R   0.348530 0.514930 0.206750 -0.499265
O16   O     O_R   0.485070 0.833600 0.293250 -0.499359
O17   O     O_R   0.166400 0.651470 0.206750 -0.499260
O18   O     O_3   0.666667 0.333333 0.750000 -0.225507
O19   O     O_3   0.333333 0.666667 0.250000 -0.225574
O20   O     O_R   0.859230 0.339580 0.796330 -0.520560
O21   O     O_R   0.480350 0.140770 0.703670 -0.521392
O22   O     O_R   0.660420 0.519650 0.796330 -0.520517
O23   O     O_R   0.859230 0.339580 0.703670 -0.521809
O24   O     O_R   0.140770 0.480350 0.296330 -0.521432
O25   O     O_R   0.519650 0.660420 0.203670 -0.521382
O26   O     O_R   0.339580 0.859230 0.296330 -0.520434

loop_
_geom_bond_atom_site_label_1
_geom_bond_atom_site_label_2
_ccdc_geom_bond_type
C118  H35   S    
C65   C79   A    
C46   C112  A    
C46   C59   A    
C19   H84   S    
C19   C20   S    
Cr1   O8    S    
C91   C104  A    
C2    O25   A    
C33   O6    A    
C117  H7    S    
C39   C66   S    
C108  H16   S    
C72   C85   A    
C120  H40   S    
C61   H89   S    
C59   H67   S    
Cr2   O9    S    
C69   H29   S    
C11   H61   S    
C68   C81   A    
C49   C62   A    
C48   C114  A    
C17   H80   S    
C51   C64   A    
C71   C84   A    
C13   C46   S    
C89   C102  A    
C58   C71   A    
C54   C68   A    
C63   C76   A    
C102  C115  A    
C36   C83   S    
C15   C16   S    
C11   H60   S    
C7    H48   S    
C60   C73   A    
C50   C110  S    
C99   O13   A    
C47   C113  A    
C16   H72   S    
C5    H42   S    
C12   C93   S    
C27   C85   S    
C118  C119  S    
C85   C98   A    
C17   C97   S    
C42   C56   A    
C15   C92   S    
C87   C101  A    
C34   C79   S    
C60   H78   S    
Cr2   O18   S    
Cr3   O10   S    
C23   H95   S    
C76   H21   S    
C8    C9    S    
C7    H49   S    
C10   H62   S    
C5    H44   S    
C48   C88   S    
C33   O23   A    
C18   H77   S    
C69   C82   A    
C57   C70   A    
C18   H75   S    
Cr6   O14   S    
C9    H53   S    
C3    H37   S    
C59   C72   A    
C14   H66   S    
C8    H58   S    
C23   C25   S    
C39   C52   A    
C47   C60   A    
C21   H91   S    
C21   C22   S    
C6    H52   S    
Cr4   O15   S    
C101  C114  A    
C55   O8    A    
C25   H92   S    
Cr6   O4    S    
C12   H68   S    
C30   C89   S    
Cr5   O3    S    
Cr6   O17   S    
C29   C90   S    
C52   H1    S    
C110  O14   A    
C111  H14   S    
C54   H23   S    
C50   C63   A    
C24   O2    A    
C45   C58   A    
C81   C94   A    
C94   C107  A    
C19   H85   S    
C10   H63   S    
C98   C112  A    
C42   C108  A    
C100  C113  A    
C110  O24   A    
Cr6   O26   S    
C53   H12   S    
Cr4   O2    S    
C31   C87   S    
C77   O21   A    
C95   C108  A    
C49   C99   S    
Cr3   O23   S    
C43   C57   A    
Cr5   O16   S    
C106  H11   S    
Cr2   O22   S    
C21   C95   S    
Cr4   O11   S    
C6    C103  S    
C67   H25   S    
C66   O9    A    
Cr5   O25   S    
C22   H86   S    
C14   H64   S    
C44   O7    A    
C16   H71   S    
C113  H5    S    
Cr5   O13   S    
C1    O22   A    
C32   C80   S    
C93   C106  A    
C105  H13   S    
C15   H73   S    
C88   O3    A    
Cr3   O7    S    
C23   H96   S    
C28   C38   T    
C37   C82   S    
C26   C86   S    
Cr2   O6    S    
C7    H50   S    
Cr6   O19   S    
C17   C18   S    
Cr1   O1    S    
C21   H90   S    
C18   H76   S    
C44   O1    A    
C20   H83   S    
C112  H6    S    
C78   C91   A    
Cr5   O19   S    
C70   C83   A    
C9    H54   S    
C79   C92   A    
C6    C7    S    
C24   O17   A    
C3    H38   S    
C14   H65   S    
C8    H57   S    
C1    C41   S    
Cr2   O12   S    
C12   C14   S    
C56   C69   A    
C4    H47   S    
C22   H88   S    
C6    H51   S    
C74   C87   A    
C12   H69   S    
C31   C35   T    
C62   C75   A    
C25   H93   S    
C100  C118  S    
C84   C97   A    
C55   O12   A    
C107  H17   S    
C56   H34   S    
C86   C100  A    
C3    H39   S    
C40   C106  A    
Cr3   O18   S    
C39   C105  A    
C33   C42   S    
C118  H36   S    
C77   O10   A    
C5    H43   S    
C82   C95   A    
C4    H46   S    
C49   C115  A    
C27   C32   T    
C70   H28   S    
C24   C47   S    
C64   C78   A    
C10   C101  S    
C67   C80   A    
C64   H4    S    
C4    C5    S    
C68   H30   S    
C35   C84   S    
C45   C111  A    
C2    O15   A    
C98   C120  S    
C13   O16   A    
C61   C74   A    
C78   H20   S    
Cr1   O18   S    
C66   O20   A    
C96   C109  A    
C104  C117  A    
Cr1   O21   S    
C2    C51   S    
Cr1   O5    S    
C23   C94   S    
C30   C36   T    
C88   O11   A    
C58   H56   S    
C10   C11   S    
C65   H26   S    
C17   H79   S    
C103  C116  A    
Cr4   O19   S    
C26   C34   T    
C38   C81   S    
C62   H2    S    
C15   H74   S    
C1    O5    A    
C48   C61   A    
C115  H9    S    
C43   C44   S    
C119  H32   S    
C97   C111  A    
C83   C96   A    
C4    C104  S    
C75   H22   S    
C16   H70   S    
C51   C117  A    
C11   H59   S    
C119  H31   S    
C28   C91   S    
C50   C116  A    
C63   H3    S    
C41   C54   A    
Cr4   O24   S    
C53   C67   A    
C90   C103  A    
C99   O4    A    
C9    H55   S    
C3    C120  S    
C75   C89   A    
C114  H10   S    
C19   C96   S    
C41   C107  A    
C92   C105  A    
C13   O26   A    
C116  H8    S    
C45   C55   S    
C119  H33   S    
C40   C53   A    
C22   H87   S    
C29   C37   T    
C20   H82   S    
C40   C77   S    
C74   H24   S    
C25   H94   S    
C109  H15   S    
C73   C86   A    
C43   C109  A    
C20   H81   S    
C80   C93   A    
C8    C102  S    
Cr3   O20   S    
C52   C65   A    
C72   H19   S    
C120  H41   S    
C76   C90   A    
C57   H45   S    
C73   H18   S    
C71   H27   S    
