data_mof_unit_47942.cif
_audit_creation_date              2012-12-10T17:35:50-0500
_audit_creation_method            fapswitch 2.2
_symmetry_space_group_name_H-M    P1
_symmetry_Int_Tables_number       1
_space_group_crystal_system       triclinic
_cell_length_a                    10.570577
_cell_length_b                    11.998213
_cell_length_c                    12.843663
_cell_angle_alpha                 93.273825
_cell_angle_beta                  88.997252
_cell_angle_gamma                 87.149338
_cell_volume                      1623.92771224

loop_
_atom_site_label
_atom_site_type_symbol
_atom_type_description
_atom_site_fract_x
_atom_site_fract_y
_atom_site_fract_z
_atom_type_partial_charge
C1    C     C_R   0.491131 0.521870 0.700469 0.892366
C2    C     C_R   0.595861 0.162902 0.595391 0.273751
C3    C     C_R   0.542391 0.859380 0.547178 -0.096518
C4    C     C_R   0.457609 0.140620 0.452822 -0.096517
C5    C     C_R   0.537010 0.976314 0.538850 0.082569
C6    C     C_R   0.462990 0.023686 0.461150 0.082569
C7    C     C_R   0.742434 0.501281 0.499239 0.882446
C8    C     C_R   0.257566 0.498719 0.500761 0.882443
C9    C     C_3   0.956582 0.449898 0.580817 0.117469
C10   C     C_3   0.043418 0.550102 0.419183 0.117469
C11   C     C_3   0.037429 0.553101 0.590221 -0.311238
C12   C     C_R   0.508869 0.478130 0.299531 0.892364
C13   C     C_3   0.962571 0.446899 0.409779 -0.311239
C14   C     C_3   0.123075 0.495933 0.502075 -0.104656
C15   C     C_3   0.876925 0.504067 0.497925 -0.104655
C16   C     C_3   0.042821 0.392274 0.494773 0.209907
C17   C     C_3   0.957179 0.607726 0.505227 0.209909
C18   C     C_R   0.523488 0.464043 0.187645 -0.098028
C19   C     C_R   0.476512 0.535957 0.812355 -0.098027
C20   C     C_R   0.507166 0.650056 0.968751 0.085885
C21   C     C_R   0.492833 0.349944 0.031249 0.085885
C22   C     C_R   0.497512 0.639720 0.861501 -0.302587
C23   C     C_R   0.444125 0.445834 0.871403 0.127968
C24   C     C_R   0.502488 0.360280 0.138498 -0.302587
C25   C     C_3   0.095339 0.270842 0.489162 -0.379546
C26   C     C_3   0.990973 0.188901 0.472263 -0.864450
C27   C     C_3   0.904661 0.729158 0.510837 -0.379544
C28   C     C_3   0.009027 0.811099 0.527736 -0.864447
C29   C     C_3   0.644121 0.642538 0.171545 -0.352489
C30   C     C_3   0.763666 0.591589 0.218729 -0.907173
C31   C     C_3   0.355876 0.357463 0.828455 -0.352494
C32   C     C_3   0.236332 0.408414 0.781273 -0.907175
C33   C     C_R   0.555874 0.554166 0.128597 0.127966
C34   C     C_R   0.483100 0.448055 0.975360 0.045362
C35   C     C_R   0.516899 0.551945 0.024640 0.045362
C36   C     C_R   0.396309 0.953292 0.393882 -0.380645
C37   C     C_R   0.603691 0.046708 0.606118 -0.380645
C38   C     C_R   0.404139 0.837098 0.404609 0.273751
H1    H     H_    0.070748 0.593811 0.663821 0.151160
H2    H     H_    0.852462 0.458371 0.715842 0.176756
H3    H     H_    0.147548 0.541629 0.284163 0.176756
H4    H     H_    0.026323 0.637444 0.288407 0.174609
H5    H     H_    0.920925 0.198524 0.537642 0.272919
H6    H     H_    0.942126 0.203227 0.397998 0.259707
H7    H     H_    0.032966 0.102038 0.468411 0.241443
H8    H     H_    0.164809 0.258202 0.423163 0.204789
H9    H     H_    0.144740 0.253803 0.562631 0.211462
H10   H     H_    0.057875 0.796773 0.602001 0.259706
H11   H     H_    0.079075 0.801476 0.462357 0.272919
H12   H     H_    0.929252 0.406189 0.336178 0.151161
H13   H     H_    0.967034 0.897961 0.531588 0.241443
H14   H     H_    0.855260 0.746197 0.437369 0.211463
H15   H     H_    0.835191 0.741799 0.576837 0.204788
H16   H     H_    0.741959 0.541826 0.285915 0.257296
H17   H     H_    0.818517 0.537593 0.159033 0.254170
H18   H     H_    0.822515 0.660563 0.246755 0.238508
H19   H     H_    0.681237 0.691945 0.108694 0.216006
H20   H     H_    0.593880 0.702384 0.228906 0.230999
H21   H     H_    0.181482 0.462410 0.840970 0.254172
H22   H     H_    0.258038 0.458177 0.714087 0.257294
H23   H     H_    0.494407 0.286733 0.182940 0.171034
H24   H     H_    0.177482 0.339441 0.753247 0.238508
H25   H     H_    0.406116 0.297618 0.771093 0.231000
H26   H     H_    0.318762 0.308056 0.891306 0.216006
H27   H     H_    0.412484 0.798293 0.003609 0.188420
H28   H     H_    0.570559 0.806235 0.987964 0.171484
H29   H     H_    0.587516 0.201707 0.996390 0.188420
H30   H     H_    0.429440 0.193765 0.012035 0.171484
H31   H     H_    0.758437 0.206784 0.662123 0.167332
H32   H     H_    0.629531 0.224201 0.740901 0.163511
H33   H     H_    0.241563 0.793216 0.337877 0.167332
H34   H     H_    0.505593 0.713266 0.817059 0.171034
H35   H     H_    0.370469 0.775799 0.259099 0.163510
H36   H     H_    0.400597 0.178317 0.393713 0.125184
H37   H     H_    0.599403 0.821683 0.606287 0.125185
H38   H     H_    0.338732 0.987745 0.333299 0.142213
H39   H     H_    0.661268 0.012255 0.666701 0.142213
H40   H     H_    0.973676 0.362547 0.711587 0.174608
N1    N     N_R   0.523490 0.207800 0.519350 -0.097887
N2    N     N_R   0.476510 0.792200 0.480650 -0.097887
N3    N     N_3   0.900424 0.396047 0.668033 -0.447849
N4    N     N_3   0.099576 0.603952 0.331967 -0.447849
N5    N     N_3   0.500116 0.759640 0.020091 -0.494932
N6    N     N_3   0.499883 0.240360 0.979908 -0.494931
N7    N     N_3   0.663151 0.234393 0.665178 -0.384423
N8    N     N_3   0.336849 0.765606 0.334822 -0.384424
O1    O     O_R   0.506270 0.421700 0.658830 -0.598424
O2    O     O_R   0.493730 0.578300 0.341170 -0.598423
O3    O     O_R   0.491200 0.609310 0.646410 -0.636860
O4    O     O_R   0.508800 0.390690 0.353590 -0.636859
O5    O     O_R   0.693580 0.406210 0.506230 -0.578669
O6    O     O_R   0.306420 0.593790 0.493770 -0.578669
O7    O     O_R   0.678510 0.593830 0.493810 -0.646800
O8    O     O_R   0.321490 0.406170 0.506190 -0.646799
Zn1   Zn    Zn3+2 0.510060 0.374730 0.508290 0.946450
Zn2   Zn    Zn3+2 0.489940 0.625270 0.491710 0.946449

loop_
_geom_bond_atom_site_label_1
_geom_bond_atom_site_label_2
_ccdc_geom_bond_type
C1    O1    A    
O2    Zn2   S    
C24   H23   S    
C5    C37   A    
H4    N4    S    
C26   H6    S    
O4    Zn1   S    
C2    C37   A    
C30   H16   S    
C38   N2    A    
C38   N8    S    
C18   C24   A    
C12   O4    A    
C9    C16   S    
C5    C6    A    
C11   C14   S    
H27   N5    S    
C10   C17   S    
C29   C33   S    
O6    Zn2   S    
C2    N7    S    
C34   C35   A    
C2    N1    A    
C36   H38   S    
C26   H7    S    
C33   C35   A    
H28   N5    S    
C20   C35   A    
C11   C17   S    
O1    Zn1   S    
C1    O3    A    
C8    O6    A    
N2    Zn2   S    
C3    H37   S    
C25   H9    S    
C4    H36   S    
C7    C15   S    
H29   N6    S    
C3    N2    A    
H2    N3    S    
C22   H34   S    
C26   H5    S    
C9    N3    S    
C7    O7    A    
C1    C19   S    
C12   O2    A    
C17   C27   S    
C31   H25   S    
C19   C22   A    
C8    O8    A    
C4    N1    A    
C4    C6    A    
C10   C14   S    
C21   C34   A    
C25   C26   S    
C30   H18   S    
C10   N4    S    
H30   N6    S    
C19   C23   A    
N1    Zn1   S    
C29   C30   S    
H33   N8    S    
C28   H11   S    
C31   C32   S    
C21   N6    S    
C23   C34   A    
C7    O5    A    
C11   H1    S    
C9    C11   S    
C20   C22   A    
O7    Zn2   S    
C13   C15   S    
C14   C16   S    
C21   C24   A    
C13   C16   S    
C32   H22   S    
H31   N7    S    
C27   H14   S    
C16   C25   S    
C15   C17   S    
C28   H10   S    
C8    C14   S    
C31   H26   S    
C29   H19   S    
C3    C5    A    
C10   C13   S    
C27   H15   S    
C30   H17   S    
O3    Zn2   S    
C36   C38   A    
C9    C15   S    
C32   H24   S    
H40   N3    S    
C37   H39   S    
H3    N4    S    
C28   H13   S    
C6    C36   A    
O8    Zn1   S    
C18   C33   A    
H35   N8    S    
O5    Zn1   S    
C13   H12   S    
C29   H20   S    
C20   N5    S    
C12   C18   S    
C27   C28   S    
C32   H21   S    
H32   N7    S    
C25   H8    S    
C23   C31   S    
