data_mof_unit_67296.cif
_audit_creation_date              2013-03-05T16:02:15-0500
_audit_creation_method            fapswitch 2.2
_symmetry_space_group_name_H-M    P1
_symmetry_Int_Tables_number       1
_space_group_crystal_system       triclinic
_cell_length_a                    8.643875
_cell_length_b                    14.534088
_cell_length_c                    14.998258
_cell_angle_alpha                 96.855773
_cell_angle_beta                  98.116539
_cell_angle_gamma                 91.762156
_cell_volume                      1849.8579732

loop_
_atom_site_label
_atom_site_type_symbol
_atom_site_description
_atom_site_fract_x
_atom_site_fract_y
_atom_site_fract_z
_atom_type_partial_charge
P1    P     P_3+3 0.018600 0.416790 0.295970 0.690947
O1    O     O_2   0.841230 0.444160 0.280430 -0.338335
O2    O     O_3   0.112860 0.447350 0.393710 -0.258355
O3    O     O_3   0.597940 0.615700 0.327690 -0.343274
O4    O     O_2   0.682943 0.544156 0.171671 -0.384415
O5    O     O_3   0.016815 0.299032 0.246554 -0.599290
O6    O     O_3   0.568767 0.707108 0.171292 -0.467045
H1    H     H_    0.521953 0.787772 0.285904 0.049945
C1    C     C_3   0.464309 0.859768 0.169477 -0.136969
H2    H     H_    0.583136 0.891441 0.176151 0.201932
P2    P     P_3+3 0.635660 0.716530 0.560900 0.486164
P3    P     P_3+3 0.052638 0.785285 0.383538 0.596209
O7    O     O_2   0.802240 0.729740 0.532850 -0.343548
O8    O     O_3   0.017180 0.664790 0.371080 -0.279628
O9    O     O_2   0.978937 0.824588 0.466890 -0.347424
O10   O     O_3   0.665381 0.754322 0.677249 -0.606071
O11   O     O_3   0.935459 0.829982 0.294587 -0.529264
C2    C     C_3   0.994787 0.803840 0.213042 0.861100
H3    H     H_    0.118312 0.830064 0.222264 -0.074767
C3    C     C_3   0.907876 0.851089 0.134332 0.954847
C4    C     C_3   0.183884 0.757674 0.660114 0.747084
H4    H     H_    0.066725 0.787133 0.650192 0.113105
C5    C     C_3   0.307714 0.837787 0.686787 -0.220214
H5    H     H_    0.422894 0.809047 0.701983 0.131677
H6    H     H_    0.313224 0.878324 0.629254 0.150186
Ba1   Ba    Ba6+2 0.833400 0.543310 0.453520 1.748510
C6    C     C_3   0.000520 0.221459 0.293685 0.780694
C7    C     C_3   0.010866 0.134474 0.223453 0.614323
H7    H     H_    0.007405 0.070837 0.257600 0.148396
C8    C     C_3   0.753589 0.694800 0.728507 0.027978
H8    H     H_    0.875840 0.697749 0.714246 0.111836
H9    H     H_    0.704082 0.622254 0.712235 0.144575
C9    C     C_3   0.747094 0.729133 0.830022 0.740784
P4    P     P_3+3 0.171090 0.583290 0.704030 0.533963
O12   O     O_2   0.348480 0.555870 0.719620 -0.384568
O13   O     O_3   0.076830 0.552730 0.606300 -0.327294
O14   O     O_3   0.591760 0.384380 0.672320 -0.353611
O15   O     O_3   0.191983 0.704123 0.732881 -0.566575
P5    P     P_3+3 0.139931 0.215265 0.630726 0.588197
O16   O     O_3   0.629090 0.386350 0.459240 -0.287150
O17   O     O_3   0.172520 0.335290 0.628920 -0.397175
O18   O     O_2   0.264614 0.168033 0.578664 -0.316400
O19   O     O_3   0.195776 0.187850 0.741520 -0.473542
Ba2   Ba    Ba6+2 0.356420 0.456770 0.546480 1.751143
P6    P     P_3+3 0.550908 0.598600 0.209693 0.550215
C10   C     C_3   0.471266 0.769494 0.213356 0.742122
H10   H     H_    0.391851 0.907770 0.207085 0.149294
O20   O     O_3   0.560610 0.613730 0.540770 -0.373646
C11   C     C_3   0.511564 0.284978 0.256007 1.027613
C12   C     C_3   0.570068 0.242833 0.168253 0.033584
H11   H     H_    0.525210 0.280296 0.110580 0.096589
H12   H     H_    0.698248 0.253431 0.176092 0.137142
P7    P     P_3+3 0.555745 0.267619 0.438534 0.673851
O21   O     O_2   0.387460 0.270290 0.467210 -0.278689
O22   O     O_3   0.535561 0.222757 0.321538 -0.479752
C13   C     C_3   0.196008 0.267437 0.805092 0.135424
H13   H     H_    0.302736 0.311667 0.805104 0.135886
H14   H     H_    0.093535 0.309757 0.788556 -0.016233
C14   C     C_3   0.194213 0.240086 0.901336 0.361418
H15   H     H_    0.204446 0.305365 0.949307 0.013651
P8    P     P_3+3 0.636955 0.398542 0.788903 0.576039
C15   C     C_3   0.634268 0.219051 0.753265 0.825821
O23   O     O_2   0.508779 0.457636 0.825332 -0.357500
O24   O     O_3   0.603340 0.288689 0.821678 -0.497613
H16   H     H_    0.549954 0.220570 0.690294 0.070414
H17   H     H_    0.639509 0.068773 0.731656 0.198194
C16   C     C_3   0.612556 0.124139 0.784154 -0.583118
H18   H     H_    0.489797 0.113464 0.794671 0.260589
H19   H     H_    0.690050 0.119372 0.848918 0.295235
C17   C     C_R   0.838145 0.450412 0.833333 0.202275
C18   C     C_R   0.905440 0.454779 0.926467 -0.162890
C19   C     C_R   0.045805 0.465531 0.113421 -0.106922
C20   C     C_R   0.897958 0.423471 0.082960 -0.168825
C21   C     C_R   0.822350 0.424864 0.994352 0.634622
C22   C     C_R   0.108469 0.478032 0.208201 0.290387
H20   H     H_    0.833957 0.391566 0.128331 0.137826
C23   C     C_R   0.259209 0.519669 0.233745 0.260456
C24   C     C_R   0.077894 0.524492 0.794413 0.119678
C25   C     C_R   0.145967 0.528337 0.888308 -0.077280
C26   C     C_R   0.061719 0.491746 0.953400 -0.007980
C27   C     C_R   0.295410 0.569315 0.920194 0.066584
C28   C     C_R   0.366827 0.567702 0.009404 -0.074988
C29   C     C_R   0.286138 0.534035 0.074929 -0.126761
C30   C     C_R   0.131042 0.497401 0.047378 0.063383
C31   C     C_R   0.352613 0.541926 0.168149 0.037229
C32   C     C_R   0.926440 0.481498 0.769098 0.085031
H21   H     H_    0.485411 0.596383 0.026461 0.226157
H22   H     H_    0.360504 0.603324 0.876709 0.207942
C33   C     C_R   0.701332 0.937140 0.548527 -0.044586
C34   C     C_R   0.516447 0.798825 0.496255 0.184045
C35   C     C_R   0.372972 0.764117 0.445104 -0.339989
C36   C     C_R   0.261898 0.824049 0.411368 0.216060
C37   C     C_R   0.304140 0.917461 0.414844 -0.218106
C38   C     C_R   0.453909 0.953216 0.455784 -0.048939
C39   C     C_R   0.557601 0.896005 0.502525 -0.071738
H23   H     H_    0.341088 0.690997 0.439121 0.212249
C40   C     C_R   0.637791 0.088186 0.498559 -0.165844
C41   C     C_R   0.743017 0.032511 0.547478 -0.126392
C42   C     C_R   0.677037 0.185723 0.502612 0.220193
C43   C     C_R   0.825774 0.221257 0.545329 -0.293362
C44   C     C_R   0.938463 0.164176 0.582105 0.219709
C45   C     C_R   0.894494 0.070664 0.586749 0.288636
C46   C     C_R   0.506324 0.041956 0.440791 0.410620
H24   H     H_    0.217404 0.962649 0.387592 0.207562
H25   H     H_    0.857532 0.293739 0.545566 0.161539
H26   H     H_    0.781921 0.894583 0.584171 0.204723
N1    N     N_R   0.279229 0.897698 0.767502 0.318867
O25   O     O_R   0.274323 0.863684 0.843468 -0.178693
O26   O     O_R   0.288838 0.987122 0.768454 -0.248945
N2    N     N_R   0.852259 0.219589 0.323393 0.157175
O27   O     O_R   0.805511 0.141596 0.346667 -0.411145
O28   O     O_R   0.823454 0.295626 0.370508 -0.397164
N3    N     N_R   0.114120 0.221318 0.375369 0.230874
O29   O     O_R   0.106660 0.286817 0.441414 -0.315731
O30   O     O_R   0.158017 0.141797 0.398704 -0.419734
O31   O     O_3   0.882909 0.127925 0.153603 -0.692538
H27   H     H_    0.901301 0.175886 0.113991 0.385685
O32   O     O_3   0.150236 0.138323 0.186162 -0.681433
H28   H     H_    0.152088 0.079221 0.145632 0.384478
N4    N     N_R   0.758526 0.831317 0.845967 0.242644
O33   O     O_R   0.883129 0.876437 0.831616 -0.256351
O34   O     O_R   0.644872 0.878002 0.874225 -0.318647
N5    N     N_R   0.876482 0.693779 0.888084 0.182247
O35   O     O_R   0.848671 0.651751 0.956421 -0.386071
O36   O     O_R   0.020187 0.718675 0.882291 -0.391973
O37   O     O_3   0.605131 0.696143 0.853514 -0.717782
H29   H     H_    0.518022 0.718777 0.812737 0.341392
O38   O     O_3   0.319653 0.731251 0.208953 -0.833641
H30   H     H_    0.277692 0.716283 0.143661 0.307667
N6    N     N_R   0.348334 0.299834 0.240809 0.175550
O39   O     O_R   0.274010 0.307651 0.160427 -0.484935
O40   O     O_R   0.299147 0.339200 0.312143 -0.411055
O41   O     O_3   0.588745 0.370666 0.285951 -0.724801
H31   H     H_    0.558850 0.410800 0.238027 0.253256
O42   O     O_3   0.530297 0.147614 0.148505 -0.557157
H32   H     H_    0.418601 0.141872 0.121333 0.397394
N7    N     N_R   0.396427 0.846910 0.073619 0.267178
O43   O     O_R   0.442009 0.781619 0.017506 -0.312547
O44   O     O_R   0.317475 0.913108 0.040911 -0.222792
O45   O     O_3   0.011142 0.868768 0.072999 -0.713788
H33   H     H_    0.042501 0.808009 0.045563 0.345777
N8    N     N_R   0.047186 0.190217 0.907515 0.232435
O46   O     O_R   0.007879 0.110489 0.858924 -0.236001
O47   O     O_R   0.955338 0.224951 0.963052 -0.436967
N9    N     N_R   0.327387 0.184557 0.928418 0.246604
O48   O     O_R   0.466440 0.224313 0.948757 -0.384067
O49   O     O_R   0.306881 0.099297 0.944438 -0.227435
O50   O     O_3   0.786916 0.229759 0.733871 -0.826233
H34   H     H_    0.854100 0.249023 0.792335 0.332477
O51   O     O_3   0.980777 0.706395 0.192147 -0.695006
H35   H     H_    0.019599 0.689612 0.133589 0.294796
O52   O     O_3   0.664717 0.400480 0.975853 -0.676086
H36   H     H_    0.621070 0.394594 0.032649 0.307700
O53   O     O_3   0.313732 0.539590 0.324667 -0.711131
H37   H     H_    0.405610 0.501784 0.337088 0.362663
O54   O     O_3   0.859243 0.471734 0.679917 -0.705773
H38   H     H_    0.924451 0.428411 0.647352 0.331958
N10   N     N_R   0.007460 0.012995 0.626903 0.249041
O55   O     O_R   0.126939 0.991013 0.586540 -0.393244
O56   O     O_R   0.982406 0.974741 0.697869 -0.312161
N11   N     N_R   0.487752 0.054377 0.346936 0.257443
O57   O     O_R   0.350540 0.065844 0.303675 -0.381852
O58   O     O_R   0.592290 0.020652 0.299681 -0.329234
O59   O     O_3   0.780329 0.793293 0.089319 -0.681035
H39   H     H_    0.740443 0.819939 0.033166 0.384466
O60   O     O_3   0.853816 0.935666 0.169567 -0.720890
H40   H     H_    0.795548 0.962313 0.117560 0.393753
O61   O     O_3   0.207999 0.707195 0.578247 -0.758342
H41   H     H_    0.311470 0.679935 0.589641 0.311347

loop_
_geom_bond_atom_site_label_1
_geom_bond_atom_site_label_2
_geom_bond_distance
_ccdc_geom_bond_type
P8    C17   1.873216 S    
C44   C45   1.412359 A    
C20   C21   1.398453 A    
C36   C37   1.387988 A    
N6    O40   1.284542 A    
C26   C30   1.443371 A    
O38   H30   0.990882 S    
C45   N10   1.422496 S    
N11   O57   1.294654 A    
Ba1   Ba2   4.716737 S    
N5    O35   1.300550 A    
P5    O17   1.762505 S    
P7    O21   1.574352 D    
C13   H13   1.108056 S    
N7    O44   1.300239 A    
C7    H7    1.111012 S    
C43   H25   1.079899 S    
O37   H29   0.991173 S    
C4    O61   1.398556 S    
C15   C16   1.521163 S    
O6    P6    1.752038 S    
C10   O38   1.397422 S    
O59   H39   0.991071 S    
C27   C28   1.395354 A    
P1    O1    1.588049 D    
C12   O42   1.401887 S    
N9    O48   1.297425 A    
C8    H8    1.107909 S    
N5    O36   1.300688 A    
O10   C8    1.398064 S    
C28   H21   1.078935 S    
C3    O59   1.405129 S    
C40   C41   1.420893 A    
O31   H27   0.991396 S    
O11   C2    1.407586 S    
P4    O12   1.588460 D    
P8    O23   1.543094 D    
C32   O54   1.369961 S    
N2    O27   1.294687 A    
C9    O37   1.409278 S    
C15   O24   1.412403 S    
C7    O31   1.404439 S    
N9    O49   1.301646 A    
C35   H23   1.079655 S    
O32   H28   0.993263 S    
C1    N7    1.461880 S    
C4    O15   1.409384 S    
O5    C6    1.413962 S    
C6    N2    1.415491 S    
C33   H26   1.074198 S    
C12   H12   1.101608 S    
N1    O25   1.300447 A    
N11   O58   1.297789 A    
C17   C18   1.428525 A    
C1    H2    1.099004 S    
P4    O13   1.579469 S    
C15   H16   1.111405 S    
Ba1   O20   3.003317 S    
C24   C32   1.414634 A    
H17   C16   1.110779 S    
C23   C31   1.417260 A    
C14   H15   1.113344 S    
C15   O50   1.398704 S    
C4    H4    1.109218 S    
N10   O56   1.299184 A    
N1    O26   1.298038 A    
C21   O52   1.378129 S    
P2    O20   1.587996 S    
C19   C22   1.435979 A    
C37   H24   1.080902 S    
C18   C26   1.423422 A    
C40   C42   1.439594 A    
N4    O34   1.301950 A    
P5    C44   1.883734 S    
P5    O18   1.548443 D    
H1    C10   1.111618 S    
O3    P6    1.744902 S    
P7    O22   1.779923 S    
O2    Ba2   2.871633 S    
C46   N11   1.427763 S    
C16   H18   1.103583 S    
P1    C22   1.911685 S    
O6    C10   1.411032 S    
O42   H32   0.990470 S    
P4    Ba2   3.426958 S    
O45   H33   0.991014 S    
C14   N8    1.463452 S    
C35   C36   1.398586 A    
C25   C27   1.400831 A    
C24   C25   1.441449 A    
C2    H3    1.106858 S    
P5    O19   1.759679 S    
P2    Ba1   3.453618 S    
C11   O22   1.411724 S    
O4    P6    1.544499 D    
C28   C29   1.406789 A    
P7    C42   1.872155 S    
P1    O5    1.780762 S    
P1    O2    1.579593 S    
N10   O55   1.298387 A    
C33   C39   1.410960 A    
P8    O24   1.753397 S    
P6    C31   1.869152 S    
C23   O53   1.371641 S    
P2    O10   1.746062 S    
O3    Ba1   2.886542 S    
C29   C30   1.413749 A    
P3    O9    1.540050 D    
O16   Ba2   3.002353 S    
C5    H5    1.096304 S    
C5    N1    1.459466 S    
C12   H11   1.107124 S    
O1    Ba1   2.825450 S    
C37   C38   1.407490 A    
C40   C46   1.424623 A    
O8    Ba1   2.841313 S    
O12   Ba2   2.825963 S    
C22   C23   1.402120 A    
O53   H37   0.988361 S    
C19   C30   1.425886 A    
C6    N3    1.458139 S    
Ba1   O13   2.871041 S    
O61   H41   0.990403 S    
C29   C31   1.424406 A    
P3    O8    1.751724 S    
C38   C46   1.407605 A    
C1    H10   1.108981 S    
C4    C5    1.533865 S    
P1    Ba1   3.426307 S    
C20   H20   1.072386 S    
N8    O47   1.299998 A    
O7    Ba1   2.862826 S    
O13   Ba2   3.018541 S    
C17   C32   1.416028 A    
C14   N9    1.464522 S    
N4    O33   1.300831 A    
N3    O29   1.299344 A    
N7    O43   1.300004 A    
C11   O41   1.388725 S    
O54   H38   0.989387 S    
C8    C9    1.553966 S    
P4    O15   1.755303 S    
P3    C36   1.852416 S    
O2    Ba1   3.017524 S    
C19   C20   1.391415 A    
C34   C39   1.434679 A    
C18   C21   1.426355 A    
O14   P8    1.722976 S    
O16   P7    1.795938 S    
C3    O60   1.399522 S    
C11   N6    1.424430 S    
O51   H35   0.990251 S    
C13   C14   1.544305 S    
C33   C41   1.423920 A    
C3    O45   1.408252 S    
O14   Ba2   2.885982 S    
N6    O39   1.302908 A    
C41   C45   1.424229 A    
C42   C43   1.406309 A    
P4    C24   1.938931 S    
P3    O11   1.758871 S    
C8    H9    1.111646 S    
P2    O7    1.568594 D    
P2    C34   1.871644 S    
Ba1   O16   2.858697 S    
C34   C35   1.407667 A    
O41   H31   0.990254 S    
O60   H40   0.992604 S    
C43   C44   1.395907 A    
O17   Ba2   2.841937 S    
C13   H14   1.110093 S    
C2    C3    1.550618 S    
O50   H34   0.985957 S    
C5    H6    1.106901 S    
C38   C39   1.412008 A    
N2    O28   1.289507 A    
C27   H22   1.072268 S    
C25   C26   1.437750 A    
Ba2   O21   2.863007 S    
O19   C13   1.408241 S    
C1    C10   1.535580 S    
O52   H36   0.990669 S    
C9    N4    1.473815 S    
C11   C12   1.541997 S    
C6    C7    1.559323 S    
C9    N5    1.463002 S    
N8    O46   1.301365 A    
C7    O32   1.400297 S    
C16   H19   1.110055 S    
C2    O51   1.411194 S    
Ba2   O20   2.858046 S    
N3    O30   1.299340 A    
