data_mof_unit_54644.cif
_audit_creation_date              2012-12-11T14:41:59-0500
_audit_creation_method            fapswitch 2.2
_symmetry_space_group_name_H-M    P1
_symmetry_Int_Tables_number       1
_space_group_crystal_system       triclinic
_cell_length_a                    19.008102
_cell_length_b                    10.909263
_cell_length_c                    18.822443
_cell_angle_alpha                 90.075915
_cell_angle_beta                  90.318123
_cell_angle_gamma                 89.890771
_cell_volume                      3903.03366886

loop_
_atom_site_label
_atom_site_type_symbol
_atom_type_description
_atom_site_fract_x
_atom_site_fract_y
_atom_site_fract_z
_atom_type_partial_charge
C1    C     C_R   0.726549 0.957627 0.854582 0.540584
C2    C     C_R   0.273459 0.957488 0.145419 0.537470
C3    C     C_R   0.226549 0.457627 0.854582 0.540584
C4    C     C_R   0.773459 0.457488 0.145419 0.537470
C5    C     C_R   0.692584 0.456532 0.037904 -0.024522
C6    C     C_R   0.307268 0.457097 0.962307 -0.024877
C7    C     C_R   0.192584 0.956532 0.037904 -0.024522
C8    C     C_R   0.807268 0.957097 0.962307 -0.024877
C9    C     C_R   0.757521 0.426319 0.071721 0.024117
C10   C     C_R   0.242568 0.426352 0.928248 0.023220
C11   C     C_R   0.257520 0.926319 0.071721 0.024117
C12   C     C_R   0.742568 0.926352 0.928248 0.023220
C13   C     C_R   0.815522 0.390714 0.030619 -0.143906
C14   C     C_R   0.184722 0.389753 0.969142 -0.143818
C15   C     C_R   0.315522 0.890714 0.030619 -0.143906
C16   C     C_R   0.684722 0.889754 0.969142 -0.143818
C17   C     C_R   0.811211 0.388178 0.958013 -0.137356
C18   C     C_R   0.188908 0.386902 0.041746 -0.137706
C19   C     C_R   0.311211 0.888178 0.958013 -0.137356
C20   C     C_R   0.688908 0.886902 0.041746 -0.137707
C21   C     C_R   0.747058 0.410195 0.924336 0.015736
C22   C     C_R   0.252834 0.409682 0.075640 0.016148
C23   C     C_R   0.247058 0.910195 0.924336 0.015736
C24   C     C_R   0.752834 0.909682 0.075640 0.016148
C25   C     C_R   0.561202 0.276048 0.519859 -0.131637
C26   C     C_R   0.542128 0.273612 0.448942 -0.129721
C27   C     C_R   0.061206 0.776047 0.519858 -0.131638
C28   C     C_R   0.042131 0.773610 0.448941 -0.129721
C29   C     C_R   0.513110 0.166683 0.419512 0.028887
C30   C     C_R   0.553098 0.171168 0.561469 0.030987
C31   C     C_R   0.013111 0.666683 0.419512 0.028886
C32   C     C_R   0.053101 0.671168 0.561469 0.030984
C33   C     C_R   0.512374 0.057900 0.458907 -0.138172
C34   C     C_R   0.532594 0.060025 0.529827 -0.130293
C35   C     C_R   0.012375 0.557900 0.458907 -0.138171
C36   C     C_R   0.032597 0.560026 0.529827 -0.130291
C37   C     C_R   0.786890 0.308426 0.528168 -0.124263
C38   C     C_R   0.189072 0.369719 0.460524 -0.135991
C39   C     C_R   0.286871 0.808405 0.528164 -0.124263
C40   C     C_R   0.689069 0.869731 0.460522 -0.135984
C41   C     C_R   0.789322 0.322711 0.455584 -0.134921
C42   C     C_R   0.185359 0.375310 0.533129 -0.134540
C43   C     C_R   0.289304 0.822696 0.455580 -0.134926
C44   C     C_R   0.685357 0.875323 0.533127 -0.134536
C45   C     C_R   0.529895 0.177687 0.850914 0.561133
C46   C     C_R   0.470178 0.177481 0.149131 0.549531
C47   C     C_R   0.029895 0.677687 0.850914 0.561133
C48   C     C_R   0.970178 0.677481 0.149131 0.549531
C49   C     C_R   0.752326 0.418569 0.423632 0.029960
C50   C     C_R   0.240892 0.425652 0.572916 0.034838
C51   C     C_R   0.252326 0.918576 0.423633 0.029957
C52   C     C_R   0.740890 0.925659 0.572914 0.034839
C53   C     C_R   0.708899 0.495334 0.464736 -0.137548
C54   C     C_R   0.301618 0.466842 0.538566 -0.140428
C55   C     C_R   0.208916 0.995361 0.464742 -0.137549
C56   C     C_R   0.801617 0.966847 0.538565 -0.140420
C57   C     C_R   0.705790 0.479873 0.537959 -0.152445
C58   C     C_R   0.306711 0.455970 0.465067 -0.136429
C59   C     C_R   0.205805 0.979893 0.537964 -0.152451
C60   C     C_R   0.806711 0.955973 0.465066 -0.136424
C61   C     C_R   0.745958 0.387717 0.570021 0.033634
C62   C     C_R   0.250525 0.405715 0.425928 0.031913
C63   C     C_R   0.245956 0.887714 0.570021 0.033630
C64   C     C_R   0.750525 0.905720 0.425927 0.031913
C65   C     C_R   0.738133 0.364520 0.852619 0.553198
C66   C     C_R   0.261844 0.364271 0.147363 0.547696
C67   C     C_R   0.238133 0.864520 0.852619 0.553198
C68   C     C_R   0.761845 0.864271 0.147363 0.547695
C69   C     C_R   0.726872 0.956917 0.646489 0.536309
C70   C     C_R   0.271953 0.955454 0.352501 0.544484
C71   C     C_R   0.226873 0.456915 0.646490 0.536306
C72   C     C_R   0.771953 0.455452 0.352500 0.544486
C73   C     C_R   0.564714 0.180349 0.637665 0.568067
C74   C     C_R   0.472389 0.176021 0.354153 0.548054
C75   C     C_R   0.064715 0.680349 0.637665 0.568067
C76   C     C_R   0.972389 0.676021 0.354153 0.548054
C77   C     C_R   0.738371 0.358063 0.644658 0.540351
C78   C     C_R   0.260767 0.362327 0.353832 0.546848
C79   C     C_R   0.238371 0.858063 0.644658 0.540348
C80   C     C_R   0.760767 0.862328 0.353832 0.546850
C81   C     C_2   0.497920 0.169034 0.921234 -0.112058
C82   C     C_2   0.502269 0.168581 0.078867 -0.111141
C83   C     C_2   0.997920 0.669033 0.921234 -0.112058
C84   C     C_2   0.002269 0.668581 0.078867 -0.111141
C85   C     C_2   0.492618 0.068608 0.038196 -0.164885
C86   C     C_2   0.507451 0.068750 0.961619 -0.165530
C87   C     C_2   0.992618 0.568608 0.038196 -0.164885
C88   C     C_2   0.007451 0.568750 0.961619 -0.165530
C89   C     C_R   0.688265 0.446269 0.963919 -0.137249
C90   C     C_R   0.311485 0.446543 0.036274 -0.136580
C91   C     C_R   0.188265 0.946269 0.963919 -0.137249
C92   C     C_R   0.811485 0.946542 0.036274 -0.136580
Cr1   Cr    Cr6+3 0.769270 0.163730 0.750710 1.018663
Cr2   Cr    Cr6+3 0.230730 0.163730 0.249290 1.020406
Cr3   Cr    Cr6+3 0.269270 0.663730 0.750710 1.018663
Cr4   Cr    Cr6+3 0.730730 0.663730 0.249290 1.020407
Cr5   Cr    Cr6+3 0.612620 0.009790 0.748780 1.003776
Cr6   Cr    Cr6+3 0.387380 0.009790 0.251220 1.006965
Cr7   Cr    Cr6+3 0.112620 0.509790 0.748780 1.003774
Cr8   Cr    Cr6+3 0.887380 0.509790 0.251220 1.006964
Cr9   Cr    Cr6+3 0.614160 0.322500 0.747710 0.990917
Cr10  Cr    Cr6+3 0.385840 0.322500 0.252290 0.996724
Cr11  Cr    Cr6+3 0.114160 0.822500 0.747710 0.990917
Cr12  Cr    Cr6+3 0.885840 0.822500 0.252290 0.996725
H1    H     H_    0.472692 0.984381 0.061040 0.137295
H2    H     H_    0.527293 0.984411 0.938533 0.137515
H3    H     H_    0.972691 0.484381 0.061040 0.137295
H4    H     H_    0.027293 0.484411 0.938533 0.137515
H5    H     H_    0.822940 0.262472 0.424918 0.123665
H6    H     H_    0.137240 0.343812 0.557582 0.127415
H7    H     H_    0.322909 0.762443 0.424910 0.123662
H8    H     H_    0.637237 0.843827 0.557579 0.127417
H9    H     H_    0.680351 0.571068 0.441000 0.132776
H10   H     H_    0.344514 0.507808 0.568277 0.119373
H11   H     H_    0.180384 0.071114 0.441009 0.132791
H12   H     H_    0.844514 0.007809 0.568277 0.119373
H13   H     H_    0.672598 0.539616 0.569360 0.116636
H14   H     H_    0.355126 0.482833 0.439366 0.127330
H15   H     H_    0.172628 0.039653 0.569368 0.116640
H16   H     H_    0.855127 0.982831 0.439366 0.127330
H17   H     H_    0.524959 0.251184 0.056446 0.114723
H18   H     H_    0.475351 0.251804 0.943882 0.114000
H19   H     H_    0.024959 0.751184 0.056446 0.114723
H20   H     H_    0.975351 0.751804 0.943882 0.114001
H21   H     H_    0.638069 0.461098 0.937625 0.136176
H22   H     H_    0.361531 0.461855 0.062727 0.136620
H23   H     H_    0.138069 0.961098 0.937625 0.136176
H24   H     H_    0.861531 0.961854 0.062726 0.136621
H25   H     H_    0.866140 0.369248 0.054144 0.125065
H26   H     H_    0.134266 0.367760 0.945484 0.125383
H27   H     H_    0.366140 0.869249 0.054144 0.125065
H28   H     H_    0.634266 0.867760 0.945484 0.125383
H29   H     H_    0.857505 0.361466 0.928404 0.138973
H30   H     H_    0.142708 0.359491 0.071157 0.138063
H31   H     H_    0.357505 0.861466 0.928404 0.138973
H32   H     H_    0.642709 0.859491 0.071157 0.138063
H33   H     H_    0.578519 0.361588 0.543154 0.130002
H34   H     H_    0.544896 0.358047 0.418843 0.125462
H35   H     H_    0.078525 0.861585 0.543152 0.130007
H36   H     H_    0.044900 0.858045 0.418842 0.125464
H37   H     H_    0.491170 0.973924 0.436792 0.127826
H38   H     H_    0.527818 0.976749 0.560628 0.129481
H39   H     H_    0.991170 0.473925 0.436793 0.127823
H40   H     H_    0.027821 0.476749 0.560628 0.129482
H41   H     H_    0.816715 0.233765 0.551335 0.134406
H42   H     H_    0.144836 0.330465 0.431994 0.126683
H43   H     H_    0.316681 0.733727 0.551328 0.134412
H44   H     H_    0.644833 0.830481 0.431991 0.126685
O1    O     O_R   0.784320 0.290430 0.830510 -0.507837
O2    O     O_R   0.215680 0.290430 0.169490 -0.511925
O3    O     O_R   0.284320 0.790430 0.830510 -0.507837
O4    O     O_R   0.715680 0.790430 0.169490 -0.511926
O5    O     O_R   0.554640 0.080370 0.673500 -0.505100
O6    O     O_R   0.445360 0.080370 0.326500 -0.502433
O7    O     O_R   0.054640 0.580370 0.673500 -0.505100
O8    O     O_R   0.945360 0.580370 0.326500 -0.502432
O9    O     O_R   0.543920 0.282180 0.666790 -0.527714
O10   O     O_R   0.456080 0.282180 0.333210 -0.535195
O11   O     O_R   0.043920 0.782180 0.666790 -0.527712
O12   O     O_R   0.956080 0.782180 0.333210 -0.535194
O13   O     O_R   0.679040 0.374160 0.674430 -0.525550
O14   O     O_R   0.320960 0.374160 0.325570 -0.504700
O15   O     O_R   0.179040 0.874160 0.674430 -0.525550
O16   O     O_R   0.820960 0.874160 0.325570 -0.504701
O17   O     O_3   0.665350 0.165340 0.749070 -0.265285
O18   O     O_3   0.334650 0.165340 0.250930 -0.238042
O19   O     O_3   0.165350 0.665340 0.749070 -0.265286
O20   O     O_3   0.834650 0.665340 0.250930 -0.238041
O21   O     O_R   0.762640 0.040960 0.825200 -0.486647
O22   O     O_R   0.237360 0.040960 0.174800 -0.489024
O23   O     O_R   0.262640 0.540960 0.825200 -0.486647
O24   O     O_R   0.737360 0.540960 0.174800 -0.489025
O25   O     O_R   0.667400 0.923970 0.829950 -0.530245
O26   O     O_R   0.332600 0.923970 0.170050 -0.533340
O27   O     O_R   0.167400 0.423970 0.829950 -0.530245
O28   O     O_R   0.832600 0.423970 0.170050 -0.533340
O29   O     O_R   0.553960 0.081340 0.821780 -0.490673
O30   O     O_R   0.446040 0.081340 0.178220 -0.498505
O31   O     O_R   0.053960 0.581340 0.821780 -0.490673
O32   O     O_R   0.946040 0.581340 0.178220 -0.498505
O33   O     O_R   0.543180 0.283240 0.826740 -0.523468
O34   O     O_R   0.456820 0.283240 0.173260 -0.526940
O35   O     O_R   0.043180 0.783240 0.826740 -0.523468
O36   O     O_R   0.956820 0.783240 0.173260 -0.526940
O37   O     O_R   0.678360 0.375140 0.822710 -0.506053
O38   O     O_R   0.321640 0.375140 0.177290 -0.508184
O39   O     O_R   0.178360 0.875140 0.822710 -0.506053
O40   O     O_R   0.821640 0.875140 0.177290 -0.508185
O41   O     O_R   0.785050 0.289380 0.670560 -0.522580
O42   O     O_R   0.214950 0.289380 0.329440 -0.528941
O43   O     O_R   0.285050 0.789380 0.670560 -0.522577
O44   O     O_R   0.714950 0.789380 0.329440 -0.528937
O45   O     O_R   0.763320 0.039990 0.676930 -0.510763
O46   O     O_R   0.236680 0.039990 0.323070 -0.510256
O47   O     O_R   0.263320 0.539990 0.676930 -0.510766
O48   O     O_R   0.736680 0.539990 0.323070 -0.510252
O49   O     O_R   0.668130 0.922920 0.670000 -0.536214
O50   O     O_R   0.331870 0.922920 0.330000 -0.522416
O51   O     O_R   0.168130 0.422920 0.670000 -0.536215
O52   O     O_R   0.831870 0.422920 0.330000 -0.522421
C93   C     C_R   0.629432 0.501251 0.076912 0.046193
C94   C     C_R   0.606705 0.443617 0.139541 -0.066601
C95   C     C_R   0.551699 0.494087 0.179097 -0.078414
C96   C     C_R   0.515958 0.597717 0.154437 -0.102492
C97   C     C_R   0.536025 0.652591 0.090774 -0.119468
C98   C     C_R   0.592555 0.605047 0.052284 -0.087657
H45   H     H_    0.633080 0.362112 0.158977 0.092554
H46   H     H_    0.536629 0.452548 0.228913 0.126344
H47   H     H_    0.472838 0.635635 0.184741 0.100090
H48   H     H_    0.508466 0.733158 0.071764 0.086540
H49   H     H_    0.608452 0.650880 0.004016 0.097854
C99   C     C_R   0.370319 0.502553 0.923645 0.045171
C100  C     C_R   0.393661 0.445259 0.861016 -0.065527
C101  C     C_R   0.448768 0.496092 0.821987 -0.077499
C102  C     C_R   0.483971 0.599789 0.847162 -0.103338
C103  C     C_R   0.463279 0.654351 0.910824 -0.119169
C104  C     C_R   0.406667 0.606417 0.948796 -0.087844
H50   H     H_    0.367732 0.363672 0.841207 0.098352
H51   H     H_    0.464331 0.454811 0.772171 0.136164
H52   H     H_    0.527165 0.637989 0.817263 0.102789
H53   H     H_    0.490434 0.734943 0.930253 0.086556
H54   H     H_    0.390337 0.651927 0.997116 0.097944
C105  C     C_R   0.129431 0.001250 0.076912 0.046193
C106  C     C_R   0.106705 0.943616 0.139542 -0.066601
C107  C     C_R   0.051700 0.994086 0.179098 -0.078412
C108  C     C_R   0.015958 0.097716 0.154438 -0.102491
C109  C     C_R   0.036024 0.152590 0.090774 -0.119468
C110  C     C_R   0.092554 0.105046 0.052284 -0.087658
H55   H     H_    0.133080 0.862111 0.158978 0.092554
H56   H     H_    0.036630 0.952548 0.228914 0.126344
H57   H     H_    0.972838 0.135634 0.184742 0.100089
H58   H     H_    0.008465 0.233156 0.071765 0.086540
H59   H     H_    0.108451 0.150879 0.004016 0.097854
C111  C     C_R   0.870319 0.002553 0.923645 0.045171
C112  C     C_R   0.893661 0.945259 0.861016 -0.065527
C113  C     C_R   0.948768 0.996093 0.821987 -0.077499
C114  C     C_R   0.983971 0.099789 0.847162 -0.103338
C115  C     C_R   0.963279 0.154351 0.910824 -0.119170
C116  C     C_R   0.906667 0.106417 0.948796 -0.087844
H60   H     H_    0.867732 0.863672 0.841207 0.098352
H61   H     H_    0.964331 0.954811 0.772171 0.136164
H62   H     H_    0.027165 0.137989 0.817263 0.102788
H63   H     H_    0.990434 0.234943 0.930253 0.086556
H64   H     H_    0.890337 0.151926 0.997116 0.097944

loop_
_geom_bond_atom_site_label_1
_geom_bond_atom_site_label_2
_ccdc_geom_bond_type
C58   C62   A    
C95   C96   A    
Cr6   O6    S    
Cr11  O19   S    
C73   O5    A    
C55   C59   A    
C80   O44   A    
C112  H60   S    
C14   C18   A    
Cr1   O1    S    
C35   C36   A    
C28   H36   S    
C84   C87   D    
C87   C88   S    
C3    O23   A    
C106  C107  A    
Cr2   O18   S    
C32   C75   S    
C31   C76   S    
C45   O33   A    
C21   C89   A    
C97   C98   A    
C84   H19   S    
C15   C19   A    
C78   O42   A    
Cr1   O21   S    
C50   C54   A    
C91   H23   S    
C114  H62   S    
C37   C41   A    
Cr11  O35   S    
C32   C36   A    
C56   C60   A    
C66   O2    A    
Cr8   O8    S    
C101  H51   S    
C5    C93   S    
Cr6   O26   S    
C85   H1    S    
C6    C99   S    
C99   C104  A    
C19   H31   S    
C108  H57   S    
Cr4   O4    S    
C73   O9    A    
C58   H14   S    
C9    C13   A    
C113  C114  A    
C74   O6    A    
C93   C94   A    
Cr7   O31   S    
C23   C67   S    
C57   C61   A    
C46   O30   A    
C103  H53   S    
C22   C66   S    
C47   O31   A    
C52   C69   S    
C46   C82   S    
C52   C56   A    
C11   C15   A    
C98   H49   S    
C89   H21   S    
C38   H42   S    
C105  C106  A    
C29   C33   A    
C53   H9    S    
C49   C72   S    
Cr7   O7    S    
C96   H47   S    
Cr8   O28   S    
C59   H15   S    
C112  C113  A    
Cr4   O20   S    
C60   H16   S    
C116  H64   S    
C8    C92   A    
C51   C70   S    
Cr5   O5    S    
C83   H20   S    
Cr6   O30   S    
C18   C22   A    
C82   H17   S    
C51   C55   A    
C81   C86   D    
C2    O26   A    
Cr10  O14   S    
C71   O47   A    
C88   H4    S    
C70   O46   A    
C44   C52   A    
C42   H6    S    
C109  H58   S    
Cr1   O17   S    
Cr10  O18   S    
C79   O43   A    
C114  C115  A    
C69   O49   A    
C96   C97   A    
C64   C80   S    
Cr10  O10   S    
C86   H2    S    
C1    C12   S    
C43   H7    S    
Cr12  O12   S    
Cr9   O37   S    
C2    C11   S    
C92   H24   S    
C41   C49   A    
C67   O39   A    
C107  C108  A    
Cr7   O19   S    
Cr11  O11   S    
C77   O13   A    
Cr12  O40   S    
C65   O37   A    
Cr5   O25   S    
C94   C95   A    
Cr6   O50   S    
C67   O3    A    
Cr10  O34   S    
C34   H38   S    
C12   C16   A    
Cr11  O39   S    
C103  C104  A    
C47   O35   A    
C10   C14   A    
C61   C77   S    
C48   O36   A    
C30   C73   S    
C30   C34   A    
C101  C102  A    
C25   C30   A    
C63   C79   S    
C29   C74   S    
C33   H37   S    
C25   C26   A    
C85   C86   S    
C115  H63   S    
C76   O8    A    
C80   O16   A    
C25   H33   S    
C48   C84   S    
C113  H61   S    
Cr4   O48   S    
C7    C11   A    
C102  C103  A    
Cr2   O42   S    
C5    C9    A    
C68   O4    A    
Cr5   O49   S    
C72   O52   A    
C7    C105  S    
C22   C90   A    
Cr5   O29   S    
C109  C110  A    
C8    C111  S    
C100  C101  A    
C16   C20   A    
C1    O25   A    
C69   O45   A    
C33   C34   A    
C56   H12   S    
C87   H3    S    
C50   C71   S    
Cr10  O38   S    
C20   H32   S    
C74   O10   A    
Cr9   O17   S    
Cr1   O45   S    
C110  H59   S    
Cr6   O18   S    
C2    O22   A    
C44   H8    S    
C3    O27   A    
Cr12  O36   S    
C42   C50   A    
C78   O14   A    
C47   C83   S    
C94   H45   S    
C66   O38   A    
C17   H29   S    
C24   C92   A    
C23   C91   A    
Cr3   O3    S    
C111  C112  A    
C39   H43   S    
Cr8   O32   S    
Cr8   O52   S    
C7    C91   A    
C48   O32   A    
Cr9   O33   S    
C19   C23   A    
C57   H13   S    
C54   C58   A    
C75   O11   A    
C104  H54   S    
C14   H26   S    
C115  C116  A    
C76   O12   A    
C40   H44   S    
Cr3   O47   S    
Cr3   O43   S    
C4    O24   A    
C21   C65   S    
C27   C32   A    
Cr2   O46   S    
C59   C63   A    
C62   C78   S    
C28   C31   A    
C45   C81   S    
C79   O15   A    
C26   H34   S    
Cr3   O19   S    
Cr4   O24   S    
C72   O48   A    
C37   C61   A    
Cr12  O20   S    
C71   O51   A    
Cr1   O41   S    
Cr2   O2    S    
C82   C85   D    
C39   C63   A    
C95   H46   S    
Cr11  O15   S    
C107  H56   S    
C40   C64   A    
C60   C64   A    
C81   H18   S    
Cr8   O20   S    
C100  H50   S    
C77   O41   A    
C46   O34   A    
Cr9   O13   S    
C36   H40   S    
C3    C10   S    
C6    C90   A    
C102  H52   S    
Cr2   O22   S    
C45   O29   A    
C105  C110  A    
C43   C51   A    
Cr12  O16   S    
Cr7   O27   S    
C55   H11   S    
C97   H48   S    
Cr5   O17   S    
C54   H10   S    
C1    O21   A    
C53   C57   A    
C18   H30   S    
C93   C98   A    
C31   C35   A    
C111  C116  A    
C65   O1    A    
Cr4   O44   S    
C16   H28   S    
C27   H35   S    
C49   C53   A    
C6    C10   A    
C24   C68   S    
Cr9   O9    S    
C13   C17   A    
C38   C42   A    
C75   O7    A    
C90   H22   S    
C40   C44   A    
C15   H27   S    
C99   C100  A    
C68   O40   A    
C26   C29   A    
C70   O50   A    
C108  C109  A    
C4    O28   A    
C39   C43   A    
Cr7   O51   S    
C27   C28   A    
C13   H25   S    
C41   H5    S    
C37   H41   S    
C4    C9    S    
C106  H55   S    
C83   C88   D    
Cr3   O23   S    
C20   C24   A    
C5    C89   A    
C8    C12   A    
C35   H39   S    
C38   C62   A    
C17   C21   A    
