data_mof_unit_20626.cif
_audit_creation_date              2012-12-10T16:58:31-0500
_audit_creation_method            fapswitch 2.2
_symmetry_space_group_name_H-M    P1
_symmetry_Int_Tables_number       1
_space_group_crystal_system       triclinic
_cell_length_a                    7.802389
_cell_length_b                    8.666591
_cell_length_c                    23.290094
_cell_angle_alpha                 91.818095
_cell_angle_beta                  84.517532
_cell_angle_gamma                 93.36945
_cell_volume                      1564.42411538

loop_
_atom_site_label
_atom_site_type_symbol
_atom_type_description
_atom_site_fract_x
_atom_site_fract_y
_atom_site_fract_z
_atom_type_partial_charge
C1    C     C_R   0.544733 0.794163 0.498555 0.880865
C2    C     C_R   0.547562 0.370583 0.294678 0.308134
C3    C     C_R   0.424187 0.660520 0.762065 0.355787
C4    C     C_R   0.577295 0.378626 0.234753 0.383377
C5    C     C_R   0.510925 0.555494 0.791532 0.111126
C6    C     C_R   0.569710 0.520241 0.207898 0.093471
C7    C     C_2   0.566892 0.955928 0.504331 0.099132
C8    C     C_2   0.432457 0.044208 0.497195 0.120037
C9    C     C_R   0.500578 0.503719 0.610506 0.957674
C10   C     C_R   0.500103 0.499449 0.389648 0.944036
C11   C     C_R   0.423902 0.449332 0.123769 0.605507
C12   C     C_R   0.455216 0.205949 0.502057 0.912631
C13   C     C_R   0.612075 0.668148 0.878300 0.590561
C14   C     C_R   0.686991 0.603066 0.112994 0.655722
C15   C     C_R   0.390745 0.465211 0.883527 0.638137
C16   C     C_R   0.659575 0.634865 0.056031 -0.162802
C17   C     C_R   0.394633 0.455916 0.943526 -0.158863
C18   C     C_R   0.528702 0.545803 0.030116 -0.090552
C19   C     C_R   0.514126 0.556921 0.970621 -0.078669
C20   C     C_R   0.414819 0.443945 0.063728 -0.111806
C21   C     C_R   0.619878 0.668749 0.938327 -0.123597
C22   C     C_R   0.754452 0.753980 0.025056 0.412711
C23   C     C_R   0.596438 0.433667 0.762212 0.144205
C24   C     C_R   0.288411 0.346763 0.976861 0.402079
C25   C     C_R   0.730221 0.775116 0.967180 0.122849
C26   C     C_R   0.297972 0.340939 0.036448 0.125803
C27   C     C_3   0.702589 0.035278 0.935023 -0.530107
C28   C     C_3   0.294212 0.087506 0.078011 -0.522161
C29   C     C_3   0.858712 0.372964 0.802013 -0.621215
C30   C     C_3   0.743261 0.874575 0.226367 -0.453780
C31   C     C_3   0.537504 0.153221 0.665424 -0.590445
C32   C     C_3   0.278352 0.819751 0.334080 -0.542846
C33   C     C_R   0.542091 0.655895 0.241229 0.117776
C34   C     C_R   0.588191 0.412817 0.702436 0.073241
C35   C     C_R   0.499584 0.647100 0.300854 0.046643
C36   C     C_R   0.502494 0.519707 0.672754 -0.224361
C37   C     C_R   0.506055 0.504270 0.327495 -0.238925
C38   C     C_R   0.421620 0.644297 0.702428 0.264478
Cl1   Cl    Cl    0.890263 0.892451 0.058885 -0.543071
Cl2   Cl    Cl    0.958621 0.672818 0.564858 -0.329601
Cl3   Cl    Cl    0.142003 0.209777 0.946669 -0.519664
Cl4   Cl    Cl    0.320209 0.783463 0.665321 -0.495480
Cl5   Cl    Cl    0.558119 0.192444 0.328769 -0.563365
Cl6   Cl    Cl    0.315785 0.810435 0.800760 -0.498004
Cl7   Cl    Cl    0.627942 0.213206 0.192325 -0.600666
Cl8   Cl    Cl    0.768927 0.021967 0.528987 -0.439920
Cl9   Cl    Cl    0.228830 0.978504 0.473761 -0.455217
Cl10  Cl    Cl    0.041282 0.327049 0.435161 -0.355720
H1    H     H_    0.903339 0.889774 0.905941 0.314056
H2    H     H_    0.911580 0.287482 0.829096 0.274634
H3    H     H_    0.868997 0.487885 0.824125 0.270832
H4    H     H_    0.937458 0.377143 0.759693 0.245322
H5    H     H_    0.477695 0.876342 0.222115 0.276883
H6    H     H_    0.797367 0.940674 0.188242 0.297865
H7    H     H_    0.837400 0.787794 0.234284 0.225439
H8    H     H_    0.729978 0.953391 0.264754 0.270435
H9    H     H_    0.774107 0.250290 0.686193 0.259437
H10   H     H_    0.478963 0.113707 0.708206 0.267086
H11   H     H_    0.603728 0.055515 0.642981 0.280276
H12   H     H_    0.599079 0.001155 0.906797 0.252090
H13   H     H_    0.434061 0.185995 0.639318 0.225153
H14   H     H_    0.502683 0.794427 0.373472 0.228572
H15   H     H_    0.262085 0.939445 0.351100 0.295579
H16   H     H_    0.195716 0.738111 0.362008 0.247254
H17   H     H_    0.235428 0.812568 0.289890 0.216581
H18   H     H_    0.780041 0.135775 0.916067 0.253740
H19   H     H_    0.643267 0.071299 0.978278 0.226681
H20   H     H_    0.109142 0.253866 0.099283 0.308667
H21   H     H_    0.208374 0.002256 0.103097 0.267362
H22   H     H_    0.404357 0.122044 0.103241 0.254398
H23   H     H_    0.343375 0.031360 0.036640 0.233966
H24   H     H_    0.663109 0.213533 0.781692 0.260622
N1    N     N_R   0.562511 0.522676 0.146656 -0.317640
N2    N     N_2   0.457443 0.784084 0.333308 -0.281729
N3    N     N_R   0.502595 0.565218 0.852923 -0.313278
N4    N     N_2   0.950330 0.457950 0.484560 0.134440
N5    N     N_2   0.049670 0.542050 0.515440 0.140136
N6    N     N_2   0.812833 0.908679 0.940226 -0.226169
N7    N     N_2   0.199384 0.220351 0.066811 -0.232906
N8    N     N_2   0.680694 0.328031 0.794220 -0.321634
N9    N     N_2   0.576565 0.802148 0.215427 -0.289924
N10   N     N_2   0.660392 0.282647 0.672238 -0.289760
O1    O     O_R   0.389250 0.738570 0.503790 -0.570998
O2    O     O_2   0.715921 0.764908 0.844584 -0.543932
O3    O     O_2   0.836899 0.647962 0.134373 -0.502955
O4    O     O_2   0.278655 0.374988 0.854959 -0.495144
O5    O     O_R   0.610750 0.261430 0.496210 -0.567689
O6    O     O_R   0.678390 0.711620 0.493890 -0.566074
O7    O     O_R   0.321610 0.288380 0.506110 -0.556379
O8    O     O_R   0.355400 0.513520 0.588790 -0.584053
O9    O     O_R   0.644600 0.486480 0.411210 -0.595552
O10   O     O_R   0.644550 0.486570 0.578900 -0.574183
O11   O     O_R   0.355450 0.513430 0.421100 -0.594546
O12   O     O_2   0.295914 0.383664 0.159486 -0.537157
Zn1   Zn    Zn3+2 0.306930 0.518000 0.506610 1.159957
Zn2   Zn    Zn3+2 0.693070 0.482000 0.493390 1.159095

loop_
_geom_bond_atom_site_label_1
_geom_bond_atom_site_label_2
_ccdc_geom_bond_type
C15   N3    A    
O6    Zn2   S    
C35   N2    S    
C5    N3    S    
Cl10  N4    S    
C28   H21   S    
C27   N6    S    
C7    C8    D    
C30   H6    S    
C13   O2    S    
C31   N10   S    
C10   C37   S    
C31   H10   S    
C35   C37   A    
C24   C26   A    
C38   Cl4   S    
C27   H12   S    
C32   N2    S    
H9    N10   S    
O10   Zn2   S    
H1    N6    S    
H5    N9    S    
C18   C19   A    
C31   H11   S    
C28   N7    S    
C31   H13   S    
C17   C19   A    
O9    Zn2   S    
C13   N3    A    
C3    C38   A    
C22   C25   A    
C9    C36   S    
C23   N8    S    
C18   C20   A    
C4    Cl7   S    
C1    O6    A    
O11   Zn1   S    
C24   Cl3   S    
C9    O10   A    
C29   H2    S    
C3    Cl6   S    
C11   C20   A    
C17   C24   A    
C25   N6    S    
C14   N1    A    
C12   O7    A    
O8    Zn1   S    
N4    N5    D    
C32   H15   S    
C4    C6    A    
C11   N1    A    
C10   O11   A    
C30   H8    S    
N5    Zn1   S    
O7    Zn1   S    
C2    C4    A    
C7    Cl8   S    
C5    C23   A    
C2    Cl5   S    
C8    C12   S    
C23   C34   A    
O1    Zn1   S    
O5    Zn2   S    
C13   C21   A    
C32   H16   S    
C15   O4    S    
C11   O12   S    
C10   O9    A    
C14   C16   A    
C28   H23   S    
C6    N1    S    
C29   H3    S    
C15   C17   A    
C21   C25   A    
C16   C22   A    
C12   O5    A    
C19   C21   A    
C1    C7    S    
C28   H22   S    
C14   O3    S    
C3    C5    A    
C9    O8    A    
C1    O1    A    
C30   H7    S    
C26   N7    S    
C6    C33   A    
C30   N9    S    
C36   C38   A    
C8    Cl9   S    
H24   N8    S    
C27   H18   S    
N4    Zn2   S    
C2    C37   A    
C29   N8    S    
C20   C26   A    
H20   N7    S    
C22   Cl1   S    
C33   C35   A    
C34   C36   A    
C27   H19   S    
C16   C18   A    
Cl2   N5    S    
H14   N2    S    
C34   N10   S    
C33   N9    S    
C32   H17   S    
C29   H4    S    
