data_mof_unit_31685.cif
_audit_creation_date              2012-12-10T17:22:53-0500
_audit_creation_method            fapswitch 2.2
_symmetry_space_group_name_H-M    P1
_symmetry_Int_Tables_number       1
_space_group_crystal_system       triclinic
_cell_length_a                    10.130503
_cell_length_b                    10.500841
_cell_length_c                    10.795008
_cell_angle_alpha                 90.196512
_cell_angle_beta                  97.163015
_cell_angle_gamma                 80.773685
_cell_volume                      1124.49598147

loop_
_atom_site_label
_atom_site_type_symbol
_atom_type_description
_atom_site_fract_x
_atom_site_fract_y
_atom_site_fract_z
_atom_type_partial_charge
C1    C     C_R   0.441317 0.508958 0.266788 0.868633
C2    C     C_R   0.558683 0.491043 0.733212 0.868636
C3    C     C_R   0.500282 0.257603 0.499855 0.870127
C4    C     C_R   0.499718 0.742397 0.500144 0.870115
C5    C     C_3   0.624737 0.021333 0.481089 -0.183829
C6    C     C_3   0.375261 0.978667 0.518907 -0.183818
C7    C     C_3   0.529034 0.954010 0.391724 0.277359
C8    C     C_3   0.470965 0.045989 0.608272 0.277360
C9    C     C_3   0.498885 0.877203 0.500862 -0.075358
C10   C     C_3   0.501113 0.122798 0.499135 -0.075378
C11   C     C_3   0.593646 0.943352 0.592952 -0.269115
C12   C     C_3   0.406352 0.056648 0.407044 -0.269102
C13   C     C_2   0.403056 0.522547 0.132876 -0.189129
C14   C     C_2   0.596944 0.477457 0.867125 -0.189131
C15   C     C_2   0.500321 0.477527 0.063225 -0.204486
C16   C     C_2   0.499677 0.522475 0.936775 -0.204489
C17   C     C_2   0.071992 0.490016 0.489051 -0.122376
C18   C     C_2   0.928008 0.509984 0.510949 -0.122376
H1    H     H_    0.725003 0.042050 0.463774 0.153381
H2    H     H_    0.274995 0.957951 0.536222 0.153374
H3    H     H_    0.667340 0.893768 0.669315 0.139526
H4    H     H_    0.332659 0.106233 0.330681 0.139529
H5    H     H_    0.411318 0.587774 0.895019 0.190967
H6    H     H_    0.588678 0.412224 0.104980 0.190967
H7    H     H_    0.893510 0.578226 0.580364 0.158253
H8    H     H_    0.106490 0.421774 0.419635 0.158251
H9    H     H_    0.878339 0.384036 0.383285 0.160084
H10   H     H_    0.121660 0.615964 0.616715 0.160084
N1    N     N_2   0.157310 0.552180 0.551120 -0.192755
N2    N     N_2   0.842690 0.447820 0.448880 -0.192756
O1    O     O_R   0.568940 0.489500 0.307530 -0.606215
O2    O     O_R   0.431060 0.510500 0.692470 -0.606212
O3    O     O_R   0.348880 0.522990 0.340350 -0.609399
O4    O     O_R   0.651120 0.477010 0.659650 -0.609401
O5    O     O_R   0.610000 0.297210 0.483560 -0.623596
O6    O     O_R   0.390000 0.702790 0.516440 -0.623593
O7    O     O_R   0.389940 0.330700 0.516390 -0.601488
O8    O     O_R   0.610060 0.669300 0.483610 -0.601491
Zn1   Zn    Zn3+2 0.646930 0.477640 0.478080 0.936927
Zn2   Zn    Zn3+2 0.353070 0.522360 0.521920 0.936931
N3    N     N_2   0.560459 0.896820 0.274554 -0.292639
H11   H     H_    0.492950 0.838515 0.238260 0.208747
C19   C     C_3   0.588297 0.986027 0.183247 -0.796882
H12   H     H_    0.618939 0.932141 0.100048 0.238165
H13   H     H_    0.671987 0.036643 0.222443 0.247849
H14   H     H_    0.496791 0.057988 0.153679 0.227946
N4    N     N_2   0.439544 0.103178 0.725443 -0.292590
H15   H     H_    0.507100 0.161458 0.761752 0.208662
C20   C     C_3   0.411652 0.013956 0.816744 -0.796563
H16   H     H_    0.381082 0.067857 0.899950 0.238134
H17   H     H_    0.503130 0.941908 0.846298 0.227877
H18   H     H_    0.327873 0.963405 0.777557 0.247753
C21   C     C_R   0.731286 0.404862 0.919266 0.124535
C22   C     C_R   0.781988 0.285867 0.868985 -0.121673
C23   C     C_R   0.907546 0.217834 0.918621 -0.142787
C24   C     C_R   0.983658 0.267877 0.018537 -0.130269
C25   C     C_R   0.934655 0.386355 0.068682 -0.141945
C26   C     C_R   0.809787 0.455317 0.018607 -0.153168
H19   H     H_    0.724039 0.245137 0.792164 0.113360
H20   H     H_    0.945676 0.126047 0.879812 0.128676
H21   H     H_    0.080727 0.215000 0.056919 0.121308
H22   H     H_    0.993957 0.425372 0.145711 0.140356
H23   H     H_    0.773981 0.547802 0.057531 0.150868
C27   C     C_R   0.268717 0.595149 0.080737 0.124535
C28   C     C_R   0.190208 0.544696 0.981400 -0.153166
C29   C     C_R   0.065340 0.613663 0.931329 -0.141948
C30   C     C_R   0.016346 0.732144 0.981472 -0.130272
C31   C     C_R   0.092469 0.782186 0.081382 -0.142782
C32   C     C_R   0.218026 0.714149 0.131015 -0.121668
H24   H     H_    0.226006 0.452208 0.942477 0.150865
H25   H     H_    0.006032 0.574646 0.854303 0.140357
H26   H     H_    0.919278 0.785024 0.943093 0.121310
H27   H     H_    0.054346 0.873977 0.120189 0.128680
H28   H     H_    0.275983 0.754879 0.207831 0.113357

loop_
_geom_bond_atom_site_label_1
_geom_bond_atom_site_label_2
_ccdc_geom_bond_type
C23   C24   A    
C4    O6    A    
C17   N1    D    
N3    H11   S    
C6    C9    S    
C1    O3    A    
C25   H22   S    
N4    C20   S    
C21   C22   A    
C17   H8    S    
H10   N1    S    
C5    C11   S    
O7    Zn2   S    
C6    C12   S    
O8    Zn1   S    
C15   C16   S    
C12   H4    S    
C1    O1    A    
C24   C25   A    
C2    O2    A    
C30   H26   S    
N4    H15   S    
C31   C32   A    
C20   H17   S    
C18   N2    D    
C2    O4    A    
O2    Zn2   S    
C29   C30   A    
C23   H20   S    
H9    N2    S    
N3    C19   S    
C18   H7    S    
C22   H19   S    
C7    C12   S    
O3    Zn2   S    
O4    Zn1   S    
O6    Zn2   S    
C5    C7    S    
C6    C8    S    
C31   H27   S    
C11   H3    S    
C30   C31   A    
O5    Zn1   S    
C19   H12   S    
C9    C11   S    
C29   H25   S    
C3    O5    A    
C20   H18   S    
C17   C18   S    
C32   H28   S    
C27   C32   A    
C19   H13   S    
C10   C12   S    
C15   H6    S    
C4    O8    A    
C20   H16   S    
C16   H5    S    
C13   C15   D    
C14   C16   D    
C1    C13   S    
C26   H23   S    
C7    C9    S    
C22   C23   A    
C21   C26   A    
C5    H1    S    
C6    H2    S    
C27   C28   A    
C8    N4    S    
C5    C10   S    
C3    C10   S    
C25   C26   A    
C13   C27   S    
C8    C11   S    
N1    Zn2   S    
O1    Zn1   S    
N2    Zn1   S    
C7    N3    S    
C2    C14   S    
C19   H14   S    
C14   C21   S    
C3    O7    A    
C8    C10   S    
C28   C29   A    
C24   H21   S    
C4    C9    S    
C28   H24   S    
