data_mof_unit_10860.cif
_audit_creation_date              2012-12-10T16:44:17-0500
_audit_creation_method            fapswitch 2.2
_symmetry_space_group_name_H-M    P1
_symmetry_Int_Tables_number       1
_space_group_crystal_system       triclinic
_cell_length_a                    7.427244
_cell_length_b                    8.689452
_cell_length_c                    13.401488
_cell_angle_alpha                 93.985389
_cell_angle_beta                  77.257787
_cell_angle_gamma                 103.087544
_cell_volume                      821.526695882

loop_
_atom_site_label
_atom_site_type_symbol
_atom_type_description
_atom_site_fract_x
_atom_site_fract_y
_atom_site_fract_z
_atom_type_partial_charge
C1    C     C_R   0.545478 0.800194 0.502755 0.870327
C2    C     C_R   0.416927 0.511564 0.976014 0.097082
C3    C     C_R   0.465286 0.556583 0.872045 0.082124
C4    C     C_R   0.558740 0.549533 0.035656 0.075168
C5    C     C_R   0.738989 0.643471 0.993687 0.098169
C6    C     C_R   0.775638 0.701650 0.895391 -0.217446
C7    C     C_R   0.640046 0.661303 0.836136 -0.203237
C8    C     C_R   0.527882 0.495236 0.135390 -0.310734
C9    C     C_R   0.842905 0.633630 0.152731 0.424499
C10   C     C_R   0.336747 0.496588 0.806947 -0.114514
C11   C     C_2   0.571877 0.968044 0.503056 -0.379279
C12   C     C_R   0.399347 0.498268 0.694530 0.779752
C13   C     C_2   0.427902 0.032057 0.498347 -0.381144
C14   C     C_R   0.454383 0.199826 0.497665 0.887831
C15   C     C_R   0.602205 0.512537 0.305752 0.814073
C16   C     C_R   0.880340 0.680988 0.051092 -0.284718
C17   C     C_R   0.664074 0.541495 0.195397 -0.152119
C18   C     C_R   0.151968 0.417251 0.849474 -0.190864
C19   C     C_R   0.097720 0.388224 0.953532 -0.150598
C20   C     C_R   0.228479 0.431590 0.016068 -0.165532
Cu1   Cu    Cu3+1 0.321300 0.483160 0.488710 0.940643
Cu2   Cu    Cu3+1 0.678700 0.516840 0.511290 0.948646
H1    H     H_    0.288489 0.960818 0.495556 0.174982
H2    H     H_    0.010913 0.617795 0.579192 0.220887
H3    H     H_    0.989150 0.382397 0.420703 0.228893
H4    H     H_    0.910052 0.778998 0.864000 0.143447
H5    H     H_    0.019290 0.749564 0.017663 0.153248
H6    H     H_    0.396847 0.417570 0.169319 0.168385
H7    H     H_    0.050409 0.373235 0.801702 0.163871
H8    H     H_    0.175933 0.404101 0.095796 0.147525
H9    H     H_    0.954248 0.327687 0.985658 0.147744
H10   H     H_    0.673231 0.716466 0.762584 0.162671
H11   H     H_    0.711125 0.039244 0.506731 0.177301
N1    N     N_2   0.947230 0.542220 0.528320 -0.222885
N2    N     N_2   0.052770 0.457780 0.471680 -0.209851
O1    O     O_R   0.383920 0.714220 0.492660 -0.584375
O2    O     O_R   0.685730 0.742660 0.511730 -0.597277
O3    O     O_R   0.275440 0.478800 0.636790 -0.585969
O4    O     O_R   0.577250 0.507240 0.655860 -0.579496
O5    O     O_R   0.314270 0.257340 0.488270 -0.591015
O6    O     O_R   0.616080 0.285780 0.507340 -0.581383
O7    O     O_R   0.422750 0.492760 0.344140 -0.582368
O8    O     O_R   0.724560 0.521200 0.363210 -0.544784
O9    O     O_3   0.982467 0.672999 0.209170 -0.567506
C21   C     C_3   0.005945 0.834755 0.237425 0.075532
H12   H     H_    0.868801 0.863689 0.277476 0.128204
H13   H     H_    0.067343 0.910304 0.169191 0.129398
C22   C     C_3   0.141204 0.873154 0.310280 -0.737915
H14   H     H_    0.280225 0.846727 0.272716 0.245170
H15   H     H_    0.161933 0.000426 0.332601 0.185187
H16   H     H_    0.082055 0.801430 0.380106 0.264253

loop_
_geom_bond_atom_site_label_1
_geom_bond_atom_site_label_2
_ccdc_geom_bond_type
C2    C4    A    
C6    C7    A    
Cu1   N2    S    
C13   C14   S    
C15   O7    A    
C8    C17   A    
C1    C11   S    
C1    O2    A    
C4    C8    A    
C19   H9    S    
C12   O4    A    
C22   H15   S    
C2    C3    A    
C15   O8    A    
C18   H7    S    
C20   H8    S    
C21   H12   S    
C11   C13   D    
C6    H4    S    
Cu1   O5    S    
C10   C12   S    
H3    N2    S    
C14   O6    A    
Cu2   N1    S    
Cu2   O4    S    
C16   H5    S    
C22   H14   S    
C9    C16   A    
C10   C18   A    
C18   C19   A    
C3    C7    A    
C21   H13   S    
C12   O3    A    
C5    C6    A    
C8    H6    S    
C3    C10   A    
Cu2   O6    S    
C14   O5    A    
Cu1   O7    S    
C11   H11   S    
O9    C21   S    
C13   H1    S    
C15   C17   S    
N1    N2    D    
C21   C22   S    
C9    C17   A    
Cu1   O1    S    
C9    O9    S    
C7    H10   S    
Cu1   Cu2   S    
Cu2   O2    S    
C2    C20   A    
C22   H16   S    
H2    N1    S    
Cu1   O3    S    
C19   C20   A    
C1    O1    A    
C4    C5    A    
C5    C16   A    
Cu2   O8    S    
