data_mof_unit_56793.cif
_audit_creation_date              2012-10-26T20:06:13-0400
_audit_creation_method            fapswitch 2.2
_symmetry_space_group_name_H-M    P1
_symmetry_Int_Tables_number       1
_space_group_crystal_system       triclinic
_cell_length_a                    9.52558
_cell_length_b                    10.840393
_cell_length_c                    13.510954
_cell_angle_alpha                 91.248082
_cell_angle_beta                  72.573536
_cell_angle_gamma                 89.905522
_cell_volume                      1330.75571745

loop_
_atom_site_label
_atom_site_type_symbol
_atom_type_description
_atom_site_fract_x
_atom_site_fract_y
_atom_site_fract_z
_atom_type_partial_charge
C1    C     C_R   0.498920 0.737804 0.502394 0.550249
C2    C     C_R   0.376577 0.507639 0.813530 -0.002124
C3    C     C_R   0.612517 0.936618 0.526232 -0.160604
C4    C     C_R   0.421700 0.497080 0.699830 0.520018
C5    C     C_R   0.609400 0.064320 0.529262 -0.210703
C6    C     C_R   0.490899 0.128154 0.512390 0.012093
C7    C     C_R   0.366758 0.062152 0.503706 0.258999
C8    C     C_R   0.372101 0.934448 0.498926 -0.115010
C9    C     C_R   0.495302 0.871436 0.508534 -0.027033
C10   C     C_R   0.894616 0.574757 0.569220 0.348776
C11   C     C_R   0.045500 0.571681 0.569616 -0.029044
C12   C     C_R   0.443853 0.513297 0.975151 0.030573
C13   C     C_R   0.104205 0.427492 0.431551 0.013959
C14   C     C_R   0.954108 0.422338 0.434325 0.359950
C15   C     C_R   0.497608 0.262103 0.504069 0.545293
C16   C     C_R   0.579224 0.501877 0.299532 0.564218
C17   C     C_R   0.802071 0.435074 0.019387 0.272004
C18   C     C_R   0.625683 0.496213 0.184698 -0.044631
C19   C     C_R   0.250110 0.577646 0.862191 -0.094797
C20   C     C_R   0.223794 0.620204 0.963552 -0.093462
C21   C     C_R   0.319346 0.589533 0.019648 -0.103596
C22   C     C_3   0.142604 0.149223 0.589635 0.028262
C23   C     C_R   0.472095 0.471305 0.870878 0.024580
C24   C     C_3   0.024556 0.049708 0.620124 -0.289545
C25   C     C_3   0.892198 0.094887 0.708593 -0.495544
C26   C     C_3   0.832228 0.739892 0.693977 -0.022566
C27   C     C_3   0.842375 0.694322 0.798373 -0.260309
C28   C     C_3   0.906987 0.792444 0.854287 -0.487085
C29   C     C_3   0.930764 0.220588 0.382059 0.007363
C30   C     C_3   0.068261 0.165118 0.302412 -0.282110
C31   C     C_3   0.054342 0.025900 0.288714 -0.461149
C32   C     C_3   0.970970 0.281155 0.946067 0.004034
C33   C     C_3   0.048617 0.232736 0.021327 -0.251023
C34   C     C_R   0.547739 0.486113 0.028433 -0.023604
C35   C     C_3   0.096706 0.098385 0.995922 -0.498951
C36   C     C_R   0.687690 0.436914 0.972676 0.017562
C37   C     C_R   0.710406 0.391944 0.871293 -0.141433
C38   C     C_R   0.599161 0.399035 0.825173 -0.121024
C39   C     C_R   0.516133 0.505849 0.135563 -0.182671
C40   C     C_R   0.772851 0.475674 0.123128 0.112992
Cu1   Cu    Cu3+1 0.359340 0.499980 0.500000 0.929162
Cu2   Cu    Cu3+1 0.640660 0.500020 0.500000 1.057794
H1    H     H_    0.700316 0.112867 0.544072 0.118278
H2    H     H_    0.617870 0.351373 0.751262 0.133372
H3    H     H_    0.706880 0.889244 0.537038 0.147459
H4    H     H_    0.088947 0.238293 0.582782 0.158729
H5    H     H_    0.194879 0.163851 0.652763 0.115074
H6    H     H_    0.986854 0.023436 0.552409 0.160753
H7    H     H_    0.072445 0.966759 0.644904 0.142180
H8    H     H_    0.925334 0.113663 0.779408 0.134271
H9    H     H_    0.805801 0.023398 0.726029 0.139308
H10   H     H_    0.844802 0.179956 0.686562 0.134958
H11   H     H_    0.746802 0.813597 0.710941 0.148806
H12   H     H_    0.279584 0.885071 0.486777 0.138803
H13   H     H_    0.934505 0.784537 0.646722 0.096480
H14   H     H_    0.730290 0.670906 0.848158 0.186312
H15   H     H_    0.911314 0.609498 0.787089 0.172775
H16   H     H_    0.020278 0.815889 0.806807 0.138197
H17   H     H_    0.911700 0.756664 0.929630 0.162682
H18   H     H_    0.837218 0.877058 0.869537 0.146512
H19   H     H_    0.833087 0.172698 0.371747 0.174220
H20   H     H_    0.932840 0.201918 0.462381 0.103420
H21   H     H_    0.086638 0.209261 0.226452 0.180522
H22   H     H_    0.166714 0.181623 0.328091 0.189709
H23   H     H_    0.083060 0.625380 0.624746 0.118426
H24   H     H_    0.034400 0.979884 0.364260 0.160475
H25   H     H_    0.157815 0.988209 0.234093 0.151178
H26   H     H_    0.962320 0.005122 0.256455 0.152034
H27   H     H_    0.043996 0.265278 0.865567 0.141053
H28   H     H_    0.869129 0.226417 0.953889 0.107238
H29   H     H_    0.146863 0.289898 0.017468 0.200902
H30   H     H_    0.971231 0.239206 0.101131 0.186202
H31   H     H_    0.999603 0.039090 0.001980 0.148826
H32   H     H_    0.153345 0.065992 0.051486 0.150230
H33   H     H_    0.174195 0.089324 0.916175 0.145340
H34   H     H_    0.186327 0.374034 0.374537 0.144543
H35   H     H_    0.813255 0.349450 0.826851 0.123875
H36   H     H_    0.404514 0.525327 0.182336 0.149259
H37   H     H_    0.177277 0.607923 0.819282 0.131637
H38   H     H_    0.297027 0.631424 0.096051 0.123969
H39   H     H_    0.131034 0.681154 0.997798 0.140735
I1    I     I_    0.956021 0.519087 0.176205 -0.381778
N1    N     N_R   0.147940 0.499970 0.499970 -0.292420
N2    N     N_R   0.852060 0.500060 0.499990 -0.202145
O1    O     O_R   0.381250 0.680340 0.500010 -0.519168
O2    O     O_3   0.783987 0.644440 0.639526 -0.530101
O3    O     O_3   0.912064 0.347041 0.364357 -0.522599
O4    O     O_3   0.946201 0.410167 0.960768 -0.562679
O5    O     O_R   0.618820 0.680370 0.500010 -0.462552
O6    O     O_R   0.323240 0.499950 0.650980 -0.524458
O7    O     O_R   0.560810 0.499980 0.650980 -0.462191
O8    O     O_R   0.381180 0.319630 0.499990 -0.471036
O9    O     O_R   0.618750 0.319660 0.499990 -0.508061
O10   O     O_R   0.439190 0.500020 0.349020 -0.516165
O11   O     O_R   0.676760 0.500050 0.349020 -0.423150
O12   O     O_3   0.244127 0.120524 0.491279 -0.580102

loop_
_geom_bond_atom_site_label_1
_geom_bond_atom_site_label_2
_ccdc_geom_bond_type
C31   H24   S    
C35   H32   S    
C30   H22   S    
C17   O4    S    
Cu1   Cu2   S    
C19   C20   A    
C14   N2    A    
C26   H13   S    
C7    C8    A    
C31   H25   S    
C7    O12   S    
C12   C23   A    
C35   H33   S    
C26   C27   S    
C37   C38   A    
C36   C37   A    
C14   O3    S    
C30   C31   S    
Cu2   O9    S    
Cu2   O7    S    
C18   C40   A    
C25   H8    S    
C33   H30   S    
C15   O8    A    
C35   H31   S    
C8    C9    A    
C17   C36   A    
C13   C14   A    
C4    O7    A    
C22   H5    S    
C6    C15   S    
C20   H39   S    
C4    O6    A    
C28   H18   S    
C1    O1    A    
C31   H26   S    
C29   H19   S    
Cu2   O11   S    
C24   H6    S    
C39   H36   S    
C40   I1    S    
C1    C9    S    
C24   C25   S    
C27   H15   S    
C8    H12   S    
C27   H14   S    
C32   H28   S    
C11   N1    A    
C37   H35   S    
C12   C21   A    
C3    H3    S    
C34   C39   A    
C17   C40   A    
C2    C4    S    
C18   C39   A    
C25   H9    S    
C38   H2    S    
C29   C30   S    
C3    C9    A    
Cu1   O10   S    
C13   H34   S    
C26   O2    S    
Cu2   N2    S    
C19   H37   S    
C32   H27   S    
C22   H4    S    
C22   C24   S    
C32   O4    S    
C12   C34   A    
C26   H11   S    
C2    C23   A    
C28   H17   S    
C24   H7    S    
C29   H20   S    
C10   O2    S    
C16   O11   A    
C1    O5    A    
C2    C19   A    
C22   O12   S    
C3    C5    A    
C15   O9    A    
C6    C7    A    
C28   H16   S    
C23   C38   A    
Cu1   O1    S    
C13   N1    A    
C16   O10   A    
Cu2   O5    S    
C32   C33   S    
C25   H10   S    
C5    C6    A    
C21   H38   S    
C10   N2    A    
C33   C35   S    
Cu1   O6    S    
C34   C36   A    
C5    H1    S    
C29   O3    S    
C10   C11   A    
C33   H29   S    
Cu1   O8    S    
C20   C21   A    
C16   C18   S    
C27   C28   S    
C30   H21   S    
C11   H23   S    
Cu1   N1    S    
