data_mof_unit_29674.cif
_audit_creation_date              2012-10-26T20:24:18-0400
_audit_creation_method            fapswitch 2.2
_symmetry_space_group_name_H-M    P1
_symmetry_Int_Tables_number       1
_space_group_crystal_system       triclinic
_cell_length_a                    15.828769
_cell_length_b                    10.828048
_cell_length_c                    9.504859
_cell_angle_alpha                 90.815015
_cell_angle_beta                  90.037348
_cell_angle_gamma                 88.254755
_cell_volume                      1628.1617053

loop_
_atom_site_label
_atom_site_type_symbol
_atom_type_description
_atom_site_fract_x
_atom_site_fract_y
_atom_site_fract_z
_atom_type_partial_charge
C1    C     C_R   0.503631 0.260668 0.498772 0.532792
C2    C     C_3   0.577902 0.926205 0.586582 -0.088103
C3    C     C_3   0.415177 0.082432 0.539443 -0.202272
C4    C     C_R   0.340013 0.499940 0.500038 0.556793
C5    C     C_3   0.523561 0.071428 0.346756 -0.229814
C6    C     C_3   0.504281 0.123912 0.496053 0.003552
C7    C     C_3   0.500294 0.880273 0.499655 0.057421
C8    C     C_3   0.416708 0.941449 0.563481 0.022866
C9    C     C_3   0.511783 0.930398 0.343668 -0.087178
C10   C     C_3   0.549998 0.604256 0.085057 -0.081516
C11   C     C_3   0.552493 0.603202 0.918969 -0.102707
C12   C     C_3   0.082749 0.500131 0.499743 0.050695
C13   C     C_3   0.541407 0.384204 0.080210 0.124423
C14   C     C_3   0.413623 0.507778 0.084601 0.126010
C15   C     C_3   0.539352 0.385845 0.911862 -0.104726
C16   C     C_R   0.498163 0.740703 0.500400 0.541660
C17   C     C_3   0.413579 0.513574 0.917368 0.059343
C18   C     C_R   0.660006 0.499603 0.499986 0.536570
C19   C     C_3   0.973669 0.414789 0.589348 -0.100293
C20   C     C_3   0.030444 0.388044 0.459176 -0.099002
C21   C     C_1   0.250204 0.499882 0.500300 -0.057600
C22   C     C_1   0.749831 0.499809 0.499803 -0.039030
C23   C     C_3   0.969620 0.612343 0.539874 -0.095750
C24   C     C_3   0.027515 0.526886 0.629896 -0.103717
C25   C     C_3   0.433017 0.972862 0.831865 -0.246724
C26   C     C_2   0.443804 0.901808 0.236470 0.177864
C27   C     C_3   0.703073 0.370028 0.066187 -0.321188
C28   C     C_3   0.272080 0.598177 0.154333 -0.281858
C29   C     C_2   0.362723 0.623392 0.863458 0.289843
C30   C     C_2   0.661274 0.872334 0.530357 0.170574
C31   C     C_3   0.917311 0.500232 0.499350 0.053617
C32   C     C_3   0.026426 0.585589 0.409699 -0.099382
C33   C     C_3   0.972540 0.473494 0.369156 -0.099677
C34   C     C_1   0.174528 0.499982 0.500155 -0.078922
C35   C     C_1   0.825512 0.500054 0.499513 -0.060098
C36   C     C_3   0.574351 0.070556 0.595037 -0.198106
Cu1   Cu    Cu3+1 0.500040 0.499860 0.642410 0.901509
Cu2   Cu    Cu3+1 0.499960 0.500140 0.357590 0.934680
H1    H     H_    0.056838 0.296015 0.426064 0.108324
H2    H     H_    0.950606 0.344697 0.663063 0.106015
H3    H     H_    0.523003 0.693397 0.121955 0.100882
H4    H     H_    0.531818 0.694853 0.879573 0.170906
H5    H     H_    0.618999 0.592220 0.882572 0.095201
H6    H     H_    0.601805 0.368274 0.862119 0.143615
H7    H     H_    0.382427 0.420433 0.112573 0.099015
H8    H     H_    0.378393 0.431986 0.879288 0.044745
H9    H     H_    0.501547 0.305472 0.109683 0.086434
H10   H     H_    0.948518 0.451609 0.262180 0.100334
H11   H     H_    0.501476 0.306559 0.875872 0.086411
H12   H     H_    0.574834 0.890694 0.694625 0.105007
H13   H     H_    0.049612 0.655591 0.335973 0.104997
H14   H     H_    0.943212 0.704376 0.572952 0.117947
H15   H     H_    0.051515 0.548766 0.736884 0.098989
H16   H     H_    0.562913 0.101700 0.705075 0.097461
H17   H     H_    0.635858 0.110596 0.567165 0.164077
H18   H     H_    0.334239 0.893894 0.722977 0.264986
H19   H     H_    0.387835 0.969377 0.921044 0.172670
H20   H     H_    0.444012 0.071641 0.816394 0.102304
H21   H     H_    0.491602 0.924921 0.867750 0.138385
H22   H     H_    0.462988 0.878021 0.130027 0.094752
H23   H     H_    0.388820 0.136566 0.629815 0.121527
H24   H     H_    0.626658 0.284312 0.211247 0.254998
H25   H     H_    0.756382 0.369657 0.142200 0.150090
H26   H     H_    0.703848 0.458388 0.009356 0.133723
H27   H     H_    0.713358 0.290947 0.991873 0.121829
H28   H     H_    0.383871 0.696459 0.140482 0.305990
H29   H     H_    0.243253 0.622492 0.051830 0.119732
H30   H     H_    0.245552 0.663136 0.235448 0.167357
H31   H     H_    0.254092 0.503278 0.182276 0.133846
H32   H     H_    0.304019 0.609883 0.807032 0.098239
H33   H     H_    0.675601 0.774493 0.542840 0.113883
H34   H     H_    0.482301 0.118089 0.267304 0.134734
H35   H     H_    0.589742 0.091369 0.317190 0.123664
H36   H     H_    0.570747 0.887030 0.299136 0.109457
H37   H     H_    0.370159 0.104586 0.452646 0.137064
H38   H     H_    0.363798 0.903596 0.501623 0.175632
H39   H     H_    0.615374 0.602296 0.127341 0.139803
N1    N     N_3   0.501840 0.500250 0.143650 -0.205428
N2    N     N_3   0.501160 0.503300 0.856280 -0.254181
N3    N     N_2   0.397690 0.909951 0.709321 -0.465967
N4    N     N_2   0.624651 0.356902 0.142244 -0.474269
N5    N     N_2   0.363385 0.608388 0.150433 -0.441183
O1    O     O_R   0.500050 0.317570 0.620260 -0.525141
O2    O     O_2   0.382511 0.728083 0.892203 -0.563296
O3    O     O_2   0.712487 0.935392 0.470570 -0.535604
O4    O     O_R   0.499980 0.317810 0.379740 -0.521859
O5    O     O_R   0.379110 0.499870 0.620240 -0.521969
O6    O     O_R   0.379040 0.500110 0.379720 -0.461265
O7    O     O_R   0.500020 0.682190 0.620260 -0.478145
O8    O     O_R   0.499950 0.682430 0.379740 -0.512054
O9    O     O_R   0.620960 0.499890 0.620280 -0.521617
O10   O     O_R   0.620890 0.500130 0.379760 -0.473437
O11   O     O_2   0.368651 0.919265 0.260110 -0.552162

loop_
_geom_bond_atom_site_label_1
_geom_bond_atom_site_label_2
_ccdc_geom_bond_type
C16   O8    A    
C13   N4    S    
C25   N3    S    
C17   C29   S    
C28   H31   S    
C8    H38   S    
C3    C6    S    
C19   C31   S    
C30   H33   S    
C10   N1    S    
C7    C8    S    
C4    O5    A    
C22   C35   T    
Cu1   N2    S    
Cu2   O4    S    
C18   O9    A    
C28   H30   S    
C15   H6    S    
C5    H34   S    
C5    C6    S    
Cu2   O10   S    
C17   N2    S    
C11   H4    S    
C2    H12   S    
C15   N2    S    
C2    C7    S    
C23   C24   S    
C31   C33   S    
C11   H5    S    
C3    H37   S    
C26   O11   D    
C14   N1    S    
C16   O7    A    
C12   C32   S    
C10   H3    S    
C14   C17   S    
C25   H19   S    
C10   H39   S    
C9    C26   S    
C14   H7    S    
C3    H23   S    
Cu1   O9    S    
C28   N5    S    
C1    C6    S    
C27   N4    S    
C28   H29   S    
C17   H8    S    
C29   O2    D    
C3    C8    S    
C19   H2    S    
C13   H9    S    
C20   H1    S    
C21   C34   T    
Cu2   N1    S    
C24   H15   S    
Cu2   O6    S    
C23   C31   S    
C32   H13   S    
C5    C9    S    
Cu1   Cu2   S    
C27   H27   S    
H28   N5    S    
C12   C20   S    
C30   O3    D    
C11   N2    S    
C20   C33   S    
C7    C16   S    
H24   N4    S    
C10   C11   S    
C13   C15   S    
C31   C35   S    
C9    H36   S    
C14   N5    S    
C12   C34   S    
C29   H32   S    
C2    C36   S    
C1    O4    A    
C7    C9    S    
C12   C24   S    
C13   N1    S    
C18   C22   S    
Cu1   O5    S    
C4    O6    A    
C1    O1    A    
C25   H21   S    
Cu2   O8    S    
H18   N3    S    
Cu1   O7    S    
C2    C30   S    
C18   O10   A    
C23   C32   S    
C19   C20   S    
C19   C24   S    
C36   H17   S    
C32   C33   S    
C4    C21   S    
C23   H14   S    
C6    C36   S    
C15   H11   S    
C5    H35   S    
C36   H16   S    
C27   H26   S    
C25   H20   S    
C8    N3    S    
C33   H10   S    
Cu1   O1    S    
C27   H25   S    
C26   H22   S    
