data_mof_unit_29435.cif
_audit_creation_date              2012-12-10T19:07:06-0500
_audit_creation_method            fapswitch 2.2
_symmetry_space_group_name_H-M    P1
_symmetry_Int_Tables_number       1
_space_group_crystal_system       triclinic
_cell_length_a                    27.787975
_cell_length_b                    10.818775
_cell_length_c                    9.5306
_cell_angle_alpha                 89.887088
_cell_angle_beta                  90.067328
_cell_angle_gamma                 90.162893
_cell_volume                      2865.18279989

loop_
_atom_site_label
_atom_site_type_symbol
_atom_type_description
_atom_site_fract_x
_atom_site_fract_y
_atom_site_fract_z
_atom_type_partial_charge
C1    C     C_R   0.500825 0.262302 0.500081 0.805060
C2    C     C_R   0.279499 0.459624 0.623205 -0.134408
C3    C     C_R   0.253739 0.494617 0.503269 0.353978
C4    C     C_R   0.101940 0.494590 0.512004 -0.046600
C5    C     C_R   0.127402 0.382493 0.516033 -0.039950
C6    C     C_R   0.102176 0.271220 0.529159 -0.182552
C7    C     C_R   0.127664 0.606946 0.506792 -0.013371
C8    C     C_R   0.354618 0.496979 0.500436 -0.025496
C9    C     C_R   0.645677 0.498534 0.499899 -0.040378
C10   C     C_R   0.974548 0.383472 0.490725 0.035764
C11   C     C_R   0.974947 0.608328 0.530669 0.040480
C12   C     C_R   0.407489 0.499343 0.499981 0.806600
C13   C     C_R   0.949477 0.496254 0.509505 0.076430
C14   C     C_R   0.948097 0.279481 0.444666 -0.186826
C15   C     C_R   0.898123 0.281463 0.437346 -0.141691
C16   C     C_R   0.872808 0.388811 0.471099 -0.022702
C17   C     C_R   0.898428 0.497201 0.504933 -0.046502
C18   C     C_R   0.872981 0.606712 0.533101 -0.023168
C19   C     C_R   0.822470 0.604882 0.530800 0.536826
C20   C     C_R   0.822313 0.391321 0.468751 0.538251
C21   C     C_R   0.721361 0.490818 0.372714 -0.098767
C22   C     C_R   0.671169 0.491174 0.372791 -0.212864
C23   C     C_R   0.500746 0.737652 0.499837 0.816994
C24   C     C_R   0.671427 0.504625 0.626765 -0.210943
C25   C     C_R   0.721597 0.504779 0.626389 -0.100331
C26   C     C_R   0.746703 0.497983 0.499452 0.356099
C27   C     C_R   0.025333 0.380356 0.510995 -0.011213
C28   C     C_R   0.050876 0.494478 0.513824 0.061049
C29   C     C_R   0.025841 0.608717 0.519642 0.047875
C30   C     C_R   0.051971 0.269068 0.531340 -0.031759
C31   C     C_R   0.102581 0.718694 0.505780 -0.139895
C32   C     C_R   0.948453 0.716440 0.560958 -0.204786
C33   C     C_R   0.898411 0.715213 0.563034 -0.137684
C34   C     C_R   0.592609 0.499545 0.500045 0.802521
C35   C     C_R   0.052651 0.719799 0.512691 -0.201027
C36   C     C_R   0.506408 0.063390 0.625857 0.113259
C37   C     C_R   0.505536 0.129318 0.499934 -0.093962
C38   C     C_R   0.511309 0.064715 0.373118 -0.214301
C39   C     C_R   0.511254 0.935853 0.372945 -0.215424
C40   C     C_R   0.505221 0.870652 0.499489 -0.102290
C41   C     C_R   0.505577 0.936292 0.625455 0.077461
C42   C     C_3   0.473683 0.930737 0.752412 -0.191421
C43   C     C_3   0.474955 0.071807 0.752752 -0.514925
C44   C     C_R   0.516936 0.600003 0.073491 0.243998
C45   C     C_R   0.177927 0.384541 0.512428 0.547408
C46   C     C_R   0.478224 0.407967 0.074574 -0.081290
C47   C     C_R   0.478142 0.408109 0.925605 -0.082568
C48   C     C_R   0.516981 0.599902 0.926118 0.238620
C49   C     C_3   0.566420 0.653221 0.920155 -0.492141
C50   C     C_3   0.566394 0.653423 0.079491 -0.491565
C51   C     C_R   0.178157 0.604829 0.502978 0.527152
C52   C     C_R   0.278450 0.530208 0.381639 -0.112742
C53   C     C_R   0.328640 0.530947 0.379930 -0.228876
C54   C     C_R   0.329641 0.460933 0.621987 -0.233570
Cu1   Cu    Cu3+1 0.500000 0.499980 0.640670 0.946952
Cu2   Cu    Cu3+1 0.500000 0.500020 0.359330 0.941354
H1    H     H_    0.348839 0.433860 0.716074 0.154310
H2    H     H_    0.258703 0.557184 0.288528 0.141704
H3    H     H_    0.121473 0.806300 0.500023 0.190767
H4    H     H_    0.965521 0.802956 0.587366 0.163798
H5    H     H_    0.652942 0.509196 0.726322 0.148765
H6    H     H_    0.879717 0.800303 0.587112 0.192726
H7    H     H_    0.741036 0.509696 0.724774 0.140049
H8    H     H_    0.035867 0.809410 0.507829 0.160876
H9    H     H_    0.513593 0.113027 0.273686 0.163394
H10   H     H_    0.513529 0.888070 0.273471 0.157613
H11   H     H_    0.260593 0.432374 0.717660 0.144152
H12   H     H_    0.492996 0.890737 0.844165 0.138553
H13   H     H_    0.439991 0.117754 0.730641 0.192343
H14   H     H_    0.494748 0.110233 0.844302 0.187469
H15   H     H_    0.461333 0.332342 0.130358 0.140091
H16   H     H_    0.461034 0.332927 0.869972 0.137558
H17   H     H_    0.593026 0.588182 0.875224 0.212897
H18   H     H_    0.566806 0.747517 0.873688 0.192720
H19   H     H_    0.593078 0.588730 0.125440 0.214106
H20   H     H_    0.566742 0.747923 0.124921 0.190326
H21   H     H_    0.121647 0.185161 0.542309 0.190689
H22   H     H_    0.652434 0.485209 0.273450 0.150769
H23   H     H_    0.740614 0.485351 0.274213 0.140642
H24   H     H_    0.879441 0.198551 0.403924 0.190696
H25   H     H_    0.965501 0.196927 0.407274 0.159126
H26   H     H_    0.347075 0.559345 0.285082 0.154700
N1    N     N_R   0.202145 0.494633 0.505449 -0.466147
N2    N     N_R   0.798290 0.498083 0.499486 -0.469919
N3    N     N_R   0.500300 0.500930 0.147930 -0.182090
N4    N     N_R   0.500310 0.500890 0.852020 -0.180471
O1    O     O_R   0.500000 0.319640 0.618810 -0.581277
O2    O     O_2   0.797387 0.287721 0.437445 -0.530235
O3    O     O_2   0.203123 0.711963 0.498289 -0.555998
O4    O     O_2   0.797684 0.709083 0.558614 -0.530545
O5    O     O_R   0.500010 0.319680 0.381230 -0.591008
O6    O     O_R   0.430260 0.500000 0.618780 -0.579948
O7    O     O_R   0.430270 0.500040 0.381190 -0.584451
O8    O     O_R   0.499990 0.680320 0.618770 -0.578405
O9    O     O_R   0.500000 0.680360 0.381190 -0.586995
O10   O     O_R   0.569730 0.499960 0.618810 -0.582171
O11   O     O_R   0.569740 0.500000 0.381220 -0.582479
O12   O     O_2   0.202688 0.277404 0.515023 -0.535941
C55   C     C_R   0.424124 0.875203 0.727620 0.176787
C56   C     C_R   0.406542 0.785220 0.821126 -0.110817
C57   C     C_R   0.360899 0.733329 0.801507 -0.142609
C58   C     C_R   0.332372 0.770588 0.688388 -0.085231
C59   C     C_R   0.349577 0.858984 0.593931 -0.132326
C60   C     C_R   0.395126 0.911414 0.613246 -0.169194
H27   H     H_    0.428060 0.755441 0.909674 0.103032
H28   H     H_    0.347622 0.664199 0.874133 0.127702
H29   H     H_    0.296983 0.730673 0.673609 0.171446
H30   H     H_    0.327533 0.887194 0.505880 0.160675
H31   H     H_    0.407687 0.980139 0.539055 0.142177
C61   C     C_1   0.030139 0.153799 0.575182 0.229334
N5    N     N_1   0.012898 0.061433 0.610860 -0.309881

loop_
_geom_bond_atom_site_label_1
_geom_bond_atom_site_label_2
_ccdc_geom_bond_type
C10   C27   A    
C1    O1    A    
Cu2   O9    S    
C48   N4    A    
C21   C26   A    
C57   C58   A    
C41   C42   S    
Cu1   Cu2   S    
C56   H27   S    
C24   H5    S    
C30   C61   S    
C36   C37   A    
C37   C38   A    
C34   O10   A    
C45   O12   S    
C4    C7    A    
C5    C6    A    
C9    C22   A    
C15   C16   A    
C19   N2    A    
C34   O11   A    
C18   C19   A    
C25   H7    S    
C31   H3    S    
C61   N5    T    
Cu2   O5    S    
C55   C56   A    
C16   C17   A    
C35   H8    S    
C16   C20   A    
C46   N3    A    
C55   C60   A    
C1    O5    A    
C21   C22   A    
C27   C30   A    
C42   H12   S    
C36   C41   A    
C45   N1    A    
Cu2   O11   S    
Cu1   O8    S    
C4    C28   A    
Cu2   O7    S    
C7    C31   A    
C47   N4    A    
C38   C39   A    
C24   C25   A    
C22   H22   S    
C2    H11   S    
C2    C54   A    
C8    C54   A    
C39   C40   A    
C33   H6    S    
C6    H21   S    
C25   C26   A    
C5    C45   A    
C53   H26   S    
Cu1   O6    S    
C50   H20   S    
C15   H24   S    
C38   H9    S    
C8    C12   S    
C21   H23   S    
C17   C18   A    
C58   H29   S    
C46   H15   S    
C59   H30   S    
C52   H2    S    
C40   C41   A    
C6    C30   A    
C11   C32   A    
C43   H14   S    
C20   N2    A    
C3    N1    S    
C9    C34   S    
C39   H10   S    
C31   C35   A    
C12   O7    A    
C42   C43   S    
C32   H4    S    
C44   N3    A    
C51   N1    A    
C59   C60   A    
C52   C53   A    
C44   C50   S    
C57   H28   S    
C46   C47   A    
C28   C29   A    
C26   N2    S    
C14   C15   A    
C12   O6    A    
Cu1   O10   S    
C10   C13   A    
C8    C53   A    
C3    C52   A    
C9    C24   A    
C1    C37   S    
C29   C35   A    
C23   O8    A    
C13   C17   A    
C32   C33   A    
Cu1   N4    S    
C2    C3    A    
C7    C51   A    
C19   O4    S    
C50   H19   S    
C51   O3    S    
C11   C13   A    
Cu2   N3    S    
C60   H31   S    
C48   C49   S    
C20   O2    S    
C56   C57   A    
C23   O9    A    
C49   H17   S    
Cu1   O1    S    
C58   C59   A    
C18   C33   A    
C47   H16   S    
C44   C48   A    
C4    C5    A    
C11   C29   A    
C43   H13   S    
C49   C50   S    
C27   C28   A    
C49   H18   S    
C36   C43   S    
C14   H25   S    
C42   C55   S    
C23   C40   S    
C10   C14   A    
C54   H1    S    
