data_mof_unit_7622.cif
_audit_creation_date              2013-03-05T16:02:58-0500
_audit_creation_method            fapswitch 2.2
_symmetry_space_group_name_H-M    P1
_symmetry_Int_Tables_number       1
_space_group_crystal_system       triclinic
_cell_length_a                    14.891581
_cell_length_b                    14.045044
_cell_length_c                    10.638839
_cell_angle_alpha                 90.346906
_cell_angle_beta                  90.095922
_cell_angle_gamma                 90.014957
_cell_volume                      2225.10015434

loop_
_atom_site_label
_atom_site_type_symbol
_atom_site_description
_atom_site_fract_x
_atom_site_fract_y
_atom_site_fract_z
_atom_type_partial_charge
O1    O     O_R   0.367850 0.580280 0.500030 -0.612714
O2    O     O_R   0.632150 0.419720 0.499970 -0.612105
O3    O     O_R   0.632150 0.580280 0.499970 -0.613061
O4    O     O_R   0.367850 0.419720 0.500030 -0.612432
C1    C     C_R   0.327132 0.499991 0.500218 0.878906
C2    C     C_R   0.672868 0.500012 0.499781 0.878891
O5    O     O_R   0.499970 0.580260 0.313950 -0.632034
O6    O     O_R   0.500030 0.419740 0.686050 -0.632405
O7    O     O_R   0.500030 0.580260 0.686050 -0.635987
O8    O     O_R   0.499970 0.419740 0.313950 -0.636287
C3    C     C_R   0.500005 0.499674 0.256840 0.850208
C4    C     C_R   0.499954 0.500325 0.743154 0.850196
Zn1   Zn    Zn3+2 0.500000 0.607200 0.500000 0.945047
Zn2   Zn    Zn3+2 0.500000 0.392800 0.500000 0.945546
C5    C     C_3   0.424932 0.542644 0.042216 -0.176203
C6    C     C_3   0.574961 0.457359 0.957770 -0.176973
C7    C     C_3   0.497529 0.590811 0.960761 -0.134343
C8    C     C_3   0.502363 0.409198 0.039214 -0.134639
C9    C     C_3   0.427292 0.452915 0.957440 -0.179562
C10   C     C_3   0.572603 0.547090 0.042535 -0.180402
C11   C     C_3   0.499899 0.500974 0.878442 0.028475
C12   C     C_3   0.500001 0.499028 0.121542 0.028176
C13   C     C_R   0.812584 0.497062 0.386309 -0.240404
C14   C     C_R   0.187422 0.495403 0.613550 -0.239889
C15   C     C_R   0.767895 0.500055 0.499780 -0.049716
C16   C     C_R   0.232106 0.499986 0.500213 -0.049893
C17   C     C_R   0.812762 0.503182 0.613297 -0.232592
C18   C     C_R   0.187253 0.504711 0.386831 -0.232013
C19   C     C_R   0.906318 0.504099 0.615468 0.088329
C20   C     C_R   0.093700 0.505309 0.384637 0.088083
C21   C     C_R   0.953216 0.500207 0.499939 -0.047234
C22   C     C_R   0.046805 0.500189 0.500054 -0.047491
C23   C     C_R   0.906152 0.496316 0.384299 0.090530
C24   C     C_R   0.093856 0.495034 0.615582 0.090313
C25   C     C_R   0.953434 0.507307 0.730288 0.191412
C26   C     C_R   0.046572 0.509279 0.269877 0.192506
C27   C     C_R   0.046858 0.491273 0.730258 0.192931
C28   C     C_R   0.953133 0.493281 0.269568 0.192034
C29   C     C_R   0.531304 0.797405 0.397961 -0.037700
C30   C     C_R   0.471152 0.202575 0.603455 -0.037494
C31   C     C_R   0.468868 0.798294 0.602167 -0.039773
C32   C     C_R   0.528831 0.201655 0.396537 -0.038959
N1    N     N_R   0.500000 0.750030 0.500000 -0.111408
N2    N     N_R   0.500000 0.249970 0.500000 -0.111526
C33   C     C_R   0.467479 0.899294 0.605739 -0.020745
C34   C     C_R   0.528485 0.100679 0.392104 -0.019762
C35   C     C_R   0.532844 0.898354 0.394511 -0.021753
C36   C     C_R   0.471723 0.101657 0.608044 -0.020768
C37   C     C_R   0.500150 0.949513 0.500117 -0.016229
C38   C     C_R   0.500135 0.050462 0.500098 -0.017490
C39   C     C_R   0.435000 0.950519 0.712101 0.198036
C40   C     C_R   0.556124 0.049498 0.283134 0.203279
C41   C     C_R   0.565494 0.948613 0.288264 0.197898
C42   C     C_R   0.444256 0.051483 0.717134 0.201458
H1    H     H_    0.368002 0.414634 0.918784 0.130012
H2    H     H_    0.631896 0.585369 0.081179 0.130776
H3    H     H_    0.363661 0.577194 0.080570 0.132145
H4    H     H_    0.636224 0.422792 0.919429 0.132476
H5    H     H_    0.495484 0.665063 0.925533 0.136076
H6    H     H_    0.504389 0.334954 0.074394 0.137452
H7    H     H_    0.773080 0.497380 0.300701 0.138632
H8    H     H_    0.226954 0.494415 0.699113 0.138536
H9    H     H_    0.773396 0.502827 0.698844 0.140106
H10   H     H_    0.226656 0.505647 0.301333 0.139988
C43   C     C_3   0.904818 0.533880 0.849847 -0.964288
H11   H     H_    0.857236 0.593283 0.832676 0.243509
H12   H     H_    0.867584 0.471301 0.885849 0.250258
H13   H     H_    0.951479 0.562406 0.921256 0.260851
C44   C     C_3   0.095275 0.536015 0.150792 -0.964579
H14   H     H_    0.142284 0.595941 0.168995 0.241551
H15   H     H_    0.133173 0.473735 0.114319 0.250938
H16   H     H_    0.048694 0.563704 0.079172 0.261038
C45   C     C_3   0.095633 0.464685 0.849565 -0.964825
H17   H     H_    0.049049 0.437188 0.921142 0.261209
H18   H     H_    0.142523 0.404662 0.831671 0.240474
H19   H     H_    0.133658 0.526982 0.885996 0.250747
C46   C     C_3   0.904398 0.466912 0.149783 -0.965016
H20   H     H_    0.951003 0.438502 0.078433 0.261070
H21   H     H_    0.856799 0.407483 0.166626 0.242311
H22   H     H_    0.867191 0.529556 0.113811 0.250306
H23   H     H_    0.553815 0.755280 0.318900 0.154104
H24   H     H_    0.446624 0.244546 0.681498 0.154368
H25   H     H_    0.446391 0.756820 0.681202 0.149792
H26   H     H_    0.553112 0.242968 0.318362 0.150459
C47   C     C_3   0.387386 0.897393 0.816653 -0.937608
H27   H     H_    0.344741 0.944024 0.875981 0.259235
H28   H     H_    0.339434 0.844916 0.776196 0.234018
H29   H     H_    0.437304 0.860093 0.876439 0.234419
C48   C     C_3   0.570777 0.102546 0.160817 -0.952847
H30   H     H_    0.567674 0.055779 0.076763 0.260011
H31   H     H_    0.515814 0.154685 0.145765 0.229284
H32   H     H_    0.636276 0.140297 0.163462 0.243490
C49   C     C_3   0.613455 0.894623 0.183980 -0.936747
H33   H     H_    0.656606 0.940764 0.125467 0.258524
H34   H     H_    0.661012 0.842230 0.224600 0.232792
H35   H     H_    0.563750 0.857144 0.123457 0.237868
C50   C     C_3   0.429575 0.105677 0.839462 -0.949691
H36   H     H_    0.433761 0.059780 0.923580 0.258935
H37   H     H_    0.483907 0.158846 0.853993 0.234684
H38   H     H_    0.363540 0.142374 0.837372 0.242886

loop_
_geom_bond_atom_site_label_1
_geom_bond_atom_site_label_2
_geom_bond_distance
_ccdc_geom_bond_type
O5    Zn1   2.012946 S    
C49   H33   1.107436 S    
C17   C19   1.393395 A    
C24   C27   1.408782 A    
C31   N1    1.359705 A    
C45   H17   1.102480 S    
C10   H2    1.110660 S    
O3    C2    1.280220 A    
C39   C47   1.519585 S    
C50   H36   1.107755 S    
C35   C37   1.416992 A    
C47   H27   1.107769 S    
C40   C41   1.425180 A    
C5    C9    1.545738 S    
C6    C11   1.529847 S    
O1    C1    1.280217 A    
C29   C35   1.418709 A    
C9    C11   1.529892 S    
C14   C16   1.380007 A    
C47   H29   1.110973 S    
C2    C15   1.415092 S    
C33   C39   1.422728 A    
C31   H25   1.079422 S    
C34   C40   1.421906 A    
C7    C10   1.545109 S    
C5    C7    1.545072 S    
C8    C9    1.545060 S    
C32   C34   1.418727 A    
C44   H15   1.109545 S    
O7    Zn1   2.017445 S    
C5    C12   1.529920 S    
C13   C23   1.393621 A    
C14   H8    1.083401 S    
C21   C23   1.415640 A    
C42   C50   1.519850 S    
C48   H31   1.110461 S    
C30   N2    1.359915 A    
O3    Zn1   2.004011 S    
C6    C10   1.545688 S    
C35   C41   1.422566 A    
C36   C38   1.416569 A    
C49   H34   1.110352 S    
C5    H3    1.110652 S    
C40   C48   1.519457 S    
O2    C2    1.280264 A    
C32   N2    1.359812 A    
C50   H37   1.110876 S    
O5    C3    1.281354 A    
C46   H21   1.110479 S    
C47   H28   1.110532 S    
C41   C49   1.519471 S    
C30   H24   1.079587 S    
C32   H26   1.079761 S    
C29   H23   1.079314 S    
O8    Zn2   2.017446 S    
C25   C43   1.509562 S    
C29   N1    1.359703 A    
C43   H12   1.109589 S    
C46   H20   1.102418 S    
C4    C11   1.439280 S    
C14   C24   1.393558 A    
C22   C24   1.415999 A    
C44   H16   1.102244 S    
C36   C42   1.422043 A    
C21   C22   1.393679 A    
C33   C37   1.417085 A    
O6    C4    1.281326 A    
C43   H13   1.102229 S    
C6    H4    1.110610 S    
C48   H32   1.110288 S    
C17   H9    1.083446 S    
C7    H5    1.110711 S    
C18   H10   1.083405 S    
C8    H6    1.110420 S    
C10   C12   1.529902 S    
C37   C38   1.417843 A    
C49   H35   1.110704 S    
C45   H19   1.109654 S    
O1    Zn1   2.003820 S    
C45   H18   1.110545 S    
Zn1   N1    2.006054 S    
C50   H38   1.110611 S    
C26   C44   1.510242 S    
Zn2   N2    2.006055 S    
C46   H22   1.109594 S    
C9    H1    1.110687 S    
C30   C36   1.418563 A    
C27   C45   1.510266 S    
O6    Zn2   2.012944 S    
C25   C27   1.409401 A    
C8    C12   1.531974 S    
O4    C1    1.280258 A    
C28   C46   1.509608 S    
C15   C17   1.379680 A    
C19   C25   1.408177 A    
C34   C38   1.416686 A    
C3    C12   1.439388 S    
C16   C18   1.379805 A    
C23   C28   1.408343 A    
C20   C26   1.408631 A    
C39   C42   1.425363 A    
C18   C20   1.393347 A    
C19   C21   1.415449 A    
C20   C22   1.415809 A    
C26   C28   1.409415 A    
C13   C15   1.379878 A    
O4    Zn2   2.004013 S    
C44   H14   1.110498 S    
O2    Zn2   2.003818 S    
O7    C4    1.279751 A    
C7    C11   1.531995 S    
O8    C3    1.279775 A    
C1    C16   1.415087 S    
C13   H7    1.083439 S    
C6    C8    1.544978 S    
C43   H11   1.110524 S    
C31   C33   1.418977 A    
C48   H30   1.107233 S    
