data_mof_unit_45546.cif
_audit_creation_date              2012-12-10T17:08:10-0500
_audit_creation_method            fapswitch 2.2
_symmetry_space_group_name_H-M    P1
_symmetry_Int_Tables_number       1
_space_group_crystal_system       triclinic
_cell_length_a                    23.508677
_cell_length_b                    11.07936
_cell_length_c                    9.983984
_cell_angle_alpha                 112.253896
_cell_angle_beta                  98.404903
_cell_angle_gamma                 93.84354
_cell_volume                      2359.52884959

loop_
_atom_site_label
_atom_site_type_symbol
_atom_type_description
_atom_site_fract_x
_atom_site_fract_y
_atom_site_fract_z
_atom_type_partial_charge
C1    C     C_R   0.498100 0.252619 0.438226 0.702192
C2    C     C_R   0.504785 0.746623 0.561348 0.775250
C3    C     C_R   0.250805 0.575567 0.633657 -0.291969
C4    C     C_R   0.751504 0.410626 0.385256 -0.274108
C5    C     C_R   0.309593 0.582799 0.626041 0.428818
C6    C     C_R   0.691614 0.404023 0.385966 0.372627
C7    C     C_R   0.328493 0.492219 0.503501 -0.294195
C8    C     C_R   0.671353 0.501286 0.500176 -0.302770
C9    C     C_R   0.287336 0.395756 0.388192 0.311719
C10   C     C_R   0.711233 0.597583 0.617529 0.287445
C11   C     C_R   0.227455 0.397743 0.390912 0.415650
C12   C     C_R   0.770867 0.591482 0.625321 0.404234
C13   C     C_R   0.209675 0.486296 0.515850 0.135629
C14   C     C_R   0.791295 0.501882 0.505679 0.104158
C15   C     C_2   0.499592 0.108727 0.403228 0.176523
C16   C     C_2   0.518579 0.887754 0.598536 0.254540
C17   C     C_2   0.515549 0.072292 0.517120 0.320632
C18   C     C_2   0.490601 0.942213 0.511726 0.295932
C19   C     C_2   0.507484 0.505584 0.079253 0.584896
C20   C     C_2   0.491966 0.491326 0.917474 0.590552
C21   C     C_R   0.391078 0.497376 0.500143 0.856734
C22   C     C_R   0.608795 0.500449 0.499863 0.904637
C23   C     C_R   0.887589 0.611476 0.531798 0.661980
C24   C     C_R   0.116866 0.382026 0.524780 0.631984
C25   C     C_R   0.875580 0.386862 0.502240 0.566794
C26   C     C_R   0.125240 0.599858 0.532282 0.612354
C27   C     C_R   0.936114 0.384353 0.518496 -0.157573
C28   C     C_R   0.067759 0.610345 0.554259 -0.177397
C29   C     C_R   0.972275 0.499289 0.539043 -0.148069
C30   C     C_R   0.032320 0.496796 0.540474 -0.143617
C31   C     C_R   0.948316 0.616385 0.555161 -0.175398
C32   C     C_R   0.056647 0.379990 0.523054 -0.150937
C33   C     C_R   0.961325 0.270004 0.512501 0.377746
C34   C     C_R   0.045202 0.731484 0.592325 0.384259
C35   C     C_R   0.020658 0.265807 0.506586 0.382919
C36   C     C_R   0.985858 0.734799 0.594883 0.437775
Cu1   Cu    Cu3+1 0.509980 0.521810 0.644910 1.014345
Cu2   Cu    Cu3+1 0.490020 0.478190 0.355090 0.998174
H1    H     H_    0.236761 0.643337 0.729792 0.180453
H2    H     H_    0.767413 0.342417 0.292969 0.193248
N1    N     N_R   0.852803 0.499440 0.510900 -0.433451
N2    N     N_R   0.149027 0.488542 0.522499 -0.422367
N3    N     N_2   0.475010 0.445410 0.137370 -0.040195
N4    N     N_2   0.524990 0.554590 0.862630 -0.051254
O1    O     O_R   0.505330 0.332340 0.577400 -0.580161
O2    O     O_R   0.494670 0.667660 0.422600 -0.576376
O3    O     O_R   0.488470 0.295500 0.332650 -0.571611
O4    O     O_R   0.511530 0.704500 0.667350 -0.569465
O5    O     O_R   0.426310 0.518390 0.622390 -0.493001
O6    O     O_R   0.573690 0.481610 0.377610 -0.528493
O7    O     O_R   0.409450 0.481550 0.377650 -0.603492
O8    O     O_R   0.590550 0.518450 0.622350 -0.591641
O9    O     O_2   0.863130 0.716225 0.525118 -0.515382
O10   O     O_2   0.143524 0.280322 0.532350 -0.552562
O11   O     O_2   0.839410 0.277462 0.475983 -0.535605
O12   O     O_2   0.157124 0.699150 0.518877 -0.509631
O13   O     O_3   0.927817 0.157720 0.501190 -0.517399
C37   C     C_3   0.917844 0.172741 0.642987 0.101068
H3    H     H_    0.904815 0.270516 0.705099 0.124924
H4    H     H_    0.957515 0.161491 0.710114 0.110687
C38   C     C_3   0.869205 0.067609 0.626908 -0.637697
H5    H     H_    0.879141 0.968923 0.559067 0.309222
H6    H     H_    0.864229 0.070922 0.737096 0.173724
H7    H     H_    0.827615 0.084339 0.572375 0.248101
O14   O     O_3   0.080648 0.848144 0.626853 -0.548780
C39   C     C_3   0.112167 0.890505 0.772456 0.083389
H8    H     H_    0.129323 0.808610 0.797858 0.128617
H9    H     H_    0.083912 0.937310 0.851858 0.135506
C40   C     C_3   0.163868 0.991154 0.795041 -0.755243
H10   H     H_    0.193750 0.008284 0.899117 0.190612
H11   H     H_    0.188082 0.954671 0.703113 0.282135
H12   H     H_    0.149129 0.085930 0.801540 0.227291
O15   O     O_3   0.548969 0.675977 0.961283 -0.515342
C41   C     C_3   0.602395 0.708651 0.927652 -0.026200
H13   H     H_    0.596610 0.754579 0.846930 0.200426
H14   H     H_    0.627061 0.623831 0.889447 0.152047
H15   H     H_    0.629616 0.783234 0.029626 0.123912
O16   O     O_3   0.448589 0.325715 0.041777 -0.590840
C42   C     C_3   0.393826 0.305969 0.075330 -0.057282
H16   H     H_    0.370610 0.393794 0.094966 0.185727
H17   H     H_    0.397955 0.275705 0.168654 0.213595
H18   H     H_    0.366919 0.222650 0.980987 0.104515
O17   O     O_3   0.041057 0.145132 0.460284 -0.555781
C43   C     C_3   0.055754 0.108388 0.580158 -0.106243
H19   H     H_    0.020263 0.036941 0.578931 0.229917
H20   H     H_    0.066494 0.192494 0.689865 0.092795
H21   H     H_    0.094666 0.057261 0.564154 0.234291
O18   O     O_3   0.965861 0.855872 0.639503 -0.554941
C44   C     C_3   0.958008 0.894767 0.787225 -0.312478
H22   H     H_    0.964326 0.003793 0.839790 0.171363
H23   H     H_    0.989198 0.859800 0.855480 0.119391
H24   H     H_    0.913082 0.860174 0.790730 0.235227
O19   O     O_3   0.348750 0.676447 0.741781 -0.537407
C45   C     C_3   0.353379 0.793318 0.716504 -0.283854
H25   H     H_    0.368901 0.777547 0.611760 0.176820
H26   H     H_    0.385814 0.867818 0.807089 0.168709
H27   H     H_    0.311381 0.834149 0.716235 0.163901
O20   O     O_3   0.651910 0.307005 0.273868 -0.586855
C46   C     C_3   0.666138 0.180587 0.255616 -0.324382
H28   H     H_    0.626533 0.108183 0.199545 0.191164
H29   H     H_    0.681345 0.172340 0.362557 0.162157
H30   H     H_    0.699086 0.153217 0.183939 0.176319
O21   O     O_3   0.304806 0.300594 0.271452 -0.582925
C47   C     C_3   0.324090 0.201083 0.316404 -0.432652
H31   H     H_    0.295878 0.174025 0.383902 0.160266
H32   H     H_    0.369329 0.230816 0.378442 0.157971
H33   H     H_    0.323664 0.111076 0.216635 0.179572
O22   O     O_3   0.692226 0.695308 0.728870 -0.595639
C48   C     C_3   0.690344 0.806745 0.693208 -0.261162
H34   H     H_    0.676952 0.886985 0.784672 0.195786
H35   H     H_    0.657804 0.785591 0.591514 0.163480
H36   H     H_    0.733761 0.843261 0.680821 0.190403
O23   O     O_3   0.185608 0.328312 0.266201 -0.560176
C49   C     C_3   0.182051 0.191348 0.229005 0.139826
H37   H     H_    0.194241 0.165060 0.325607 0.166663
H38   H     H_    0.210602 0.148846 0.148769 0.175251
C50   C     C_3   0.120004 0.128443 0.156055 -0.769470
H39   H     H_    0.106766 0.150487 0.057249 0.233515
H40   H     H_    0.116724 0.020228 0.122952 0.194934
H41   H     H_    0.090037 0.167714 0.233535 0.289183
O24   O     O_3   0.809491 0.678182 0.747717 -0.552191
C51   C     C_3   0.818967 0.619742 0.851095 0.056798
H42   H     H_    0.834195 0.521896 0.802124 0.129507
H43   H     H_    0.778478 0.607844 0.893137 0.165914
C52   C     C_3   0.865559 0.708081 0.980529 -0.754951
H44   H     H_    0.852181 0.807210 0.031439 0.265600
H45   H     H_    0.872248 0.664834 0.064516 0.213224
H46   H     H_    0.907093 0.717564 0.942492 0.229298
O25   O     O_3   0.431131 0.900963 0.463449 -0.659978
C53   C     C_3   0.416065 0.834878 0.309000 0.110907
H47   H     H_    0.451660 0.784776 0.257564 0.207287
H48   H     H_    0.402372 0.905828 0.261109 0.186746
C54   C     C_3   0.363222 0.732884 0.270539 -0.805939
H49   H     H_    0.372167 0.663679 0.324194 0.265081
H50   H     H_    0.325566 0.782029 0.309156 0.243950
H51   H     H_    0.352146 0.676962 0.149374 0.227208
O26   O     O_3   0.551139 0.159939 0.646503 -0.589029
C55   C     C_3   0.607930 0.178578 0.619458 0.153948
H52   H     H_    0.608562 0.219732 0.533794 0.117633
H53   H     H_    0.626565 0.084049 0.583596 0.161771
C56   C     C_3   0.646657 0.275776 0.760011 -0.797049
H54   H     H_    0.646774 0.240024 0.849999 0.253538
H55   H     H_    0.691705 0.287728 0.741063 0.190103
H56   H     H_    0.630529 0.372727 0.792845 0.239760
O27   O     O_3   0.568438 0.952754 0.700831 -0.612151
C57   C     C_3   0.553097 0.008650 0.841028 -0.297961
H57   H     H_    0.536289 0.931931 0.876899 0.176212
H58   H     H_    0.520597 0.077772 0.843731 0.191384
H59   H     H_    0.592509 0.065730 0.922261 0.188517
O28   O     O_3   0.496475 0.011435 0.262089 -0.618142
C58   C     C_3   0.466565 0.039380 0.146733 -0.305954
H60   H     H_    0.495196 0.105506 0.117192 0.219168
H61   H     H_    0.425300 0.077838 0.171996 0.137386
H62   H     H_    0.454825 0.945925 0.047989 0.189522
O29   O     O_3   0.435297 0.440459 0.842926 -0.577930
C59   C     C_3   0.429244 0.304054 0.756325 -0.157776
H63   H     H_    0.468396 0.256422 0.772482 0.175806
H64   H     H_    0.415311 0.285996 0.638952 0.151711
H65   H     H_    0.392539 0.253823 0.781420 0.162592
O30   O     O_3   0.557215 0.586384 0.168214 -0.567503
C60   C     C_3   0.605133 0.517543 0.133222 -0.254108
H66   H     H_    0.615768 0.513074 0.027862 0.118630
H67   H     H_    0.597551 0.414694 0.125364 0.207096
H68   H     H_    0.643634 0.570022 0.220385 0.189231

loop_
_geom_bond_atom_site_label_1
_geom_bond_atom_site_label_2
_ccdc_geom_bond_type
C39   H9    S    
C24   O10   S    
O19   C45   S    
C20   O29   S    
C27   C29   A    
C24   N2    A    
O15   C41   S    
C10   O22   S    
C19   C20   S    
C43   H21   S    
C21   O5    A    
C60   H66   S    
C36   O18   S    
N3    O16   S    
Cu1   Cu2   S    
C41   H14   S    
C19   O30   S    
C6    O20   S    
C59   H63   S    
C43   H20   S    
O23   C49   S    
C56   H55   S    
O27   C57   S    
C39   C40   S    
C37   H4    S    
O22   C48   S    
C40   H11   S    
C58   H62   S    
C38   H6    S    
C13   N2    S    
O21   C47   S    
C48   H35   S    
C20   N4    D    
C56   H54   S    
C59   H64   S    
C12   O24   S    
C4    H2    S    
C41   H15   S    
C54   H51   S    
C8    C22   S    
C58   H60   S    
C1    C15   S    
C44   H23   S    
C2    C16   S    
C38   H5    S    
C3    C13   A    
C22   O6    A    
C37   C38   S    
C39   H8    S    
C3    H1    S    
C40   H10   S    
C34   O14   S    
C47   H32   S    
C47   H31   S    
C60   H67   S    
C19   N3    D    
C23   O9    S    
C57   H58   S    
C41   H13   S    
C32   C35   A    
C43   H19   S    
C4    C6    A    
C48   H36   S    
C25   N1    A    
C5    C7    A    
Cu1   O8    S    
C35   O17   S    
O16   C42   S    
C1    O3    A    
C6    C8    A    
Cu2   O7    S    
C45   H27   S    
C2    O4    A    
C37   H3    S    
C7    C21   S    
C56   H56   S    
C27   C33   A    
C16   O27   S    
Cu1   O4    S    
C23   C31   A    
C40   H12   S    
C53   H48   S    
C24   C32   A    
C29   C30   A    
C52   H45   S    
C52   H46   S    
C57   H59   S    
Cu1   O5    S    
C49   H38   S    
O17   C43   S    
C9    O21   S    
C17   C18   S    
O24   C51   S    
C47   H33   S    
C44   H24   S    
C45   H26   S    
C9    C11   A    
Cu2   O3    S    
C10   C12   A    
C14   N1    S    
Cu2   O6    S    
C16   C18   D    
C46   H29   S    
C12   C14   A    
O20   C46   S    
C2    O2    A    
C52   H44   S    
C50   H41   S    
C53   C54   S    
Cu1   O1    S    
C44   H22   S    
C21   O7    A    
C60   H68   S    
C26   N2    A    
C22   O8    A    
C57   H57   S    
N4    O15   S    
C15   C17   D    
C33   O13   S    
C31   C36   A    
C59   H65   S    
C25   O11   S    
C3    C5    A    
C55   C56   S    
C26   O12   S    
C42   H18   S    
C5    O19   S    
C42   H17   S    
C49   H37   S    
C55   H53   S    
C25   C27   A    
O26   C55   S    
C26   C28   A    
C23   N1    A    
C46   H28   S    
O30   C60   S    
C51   C52   S    
C50   H40   S    
C53   H47   S    
O25   C53   S    
Cu2   N3    S    
C29   C31   A    
C50   H39   S    
C38   H7    S    
C30   C32   A    
C11   C13   A    
C1    O1    A    
O13   C37   S    
C54   H49   S    
Cu1   N4    S    
C28   C30   A    
C33   C35   A    
C34   C36   A    
C58   H61   S    
C4    C14   A    
C45   H25   S    
C11   O23   S    
Cu2   O2    S    
C49   C50   S    
C55   H52   S    
C28   C34   A    
C42   H16   S    
C7    C9    A    
C46   H30   S    
O18   C44   S    
C8    C10   A    
O14   C39   S    
O29   C59   S    
C54   H50   S    
O28   C58   S    
C18   O25   S    
C17   O26   S    
C51   H42   S    
C48   H34   S    
C51   H43   S    
C15   O28   S    
