data_mof_unit_19706.cif
_audit_creation_date              2012-12-10T19:08:05-0500
_audit_creation_method            fapswitch 2.2
_symmetry_space_group_name_H-M    P1
_symmetry_Int_Tables_number       1
_space_group_crystal_system       triclinic
_cell_length_a                    9.068233
_cell_length_b                    10.861154
_cell_length_c                    9.564954
_cell_angle_alpha                 90.014149
_cell_angle_beta                  90.257691
_cell_angle_gamma                 90.249501
_cell_volume                      942.047935471

loop_
_atom_site_label
_atom_site_type_symbol
_atom_type_description
_atom_site_fract_x
_atom_site_fract_y
_atom_site_fract_z
_atom_type_partial_charge
C1    C     C_R   0.500566 0.262759 0.499847 0.793775
C2    C     C_R   0.521556 0.935441 0.371962 -0.216641
C3    C     C_R   0.504609 0.869909 0.498450 -0.099214
C4    C     C_R   0.491184 0.938063 0.620352 0.131873
C5    C     C_3   0.462383 0.929344 0.773301 -0.465032
C6    C     C_3   0.461874 0.071114 0.773018 -0.477748
C7    C     C_R   0.558415 0.597084 0.074393 0.249877
C8    C     C_R   0.427243 0.411614 0.073956 -0.046002
C9    C     C_R   0.426338 0.412135 0.925206 -0.015009
C10   C     C_R   0.563199 0.594888 0.927555 0.188023
C11   C     C_3   0.720854 0.639459 0.929076 -0.275094
C12   C     C_R   0.220744 0.499845 0.499765 0.839979
C13   C     C_3   0.710661 0.647348 0.087677 -0.544008
C14   C     C_R   0.500873 0.737252 0.499876 0.799220
C15   C     C_R   0.779239 0.499914 0.500159 0.840930
C16   C     C_1   0.065564 0.499729 0.499550 -0.147517
C17   C     C_1   0.934400 0.499735 0.500011 -0.146184
C18   C     C_R   0.490768 0.062034 0.620206 0.135542
C19   C     C_R   0.504154 0.130146 0.498304 -0.100552
C20   C     C_R   0.521374 0.064655 0.371892 -0.216063
Cu1   Cu    Cu3+1 0.499990 0.499980 0.640670 0.974542
Cu2   Cu    Cu3+1 0.500010 0.500020 0.359330 0.952351
H1    H     H_    0.533644 0.112476 0.273240 0.169426
H2    H     H_    0.734777 0.731097 0.879006 0.134246
H3    H     H_    0.786411 0.584972 0.145278 0.234375
H4    H     H_    0.710613 0.743652 0.127004 0.177039
H5    H     H_    0.533800 0.887658 0.273334 0.163693
H6    H     H_    0.352810 0.887937 0.796209 0.208459
H7    H     H_    0.556689 0.889434 0.831862 0.191928
H8    H     H_    0.351838 0.110993 0.795548 0.190761
H9    H     H_    0.555939 0.112990 0.831146 0.210983
H10   H     H_    0.370709 0.338606 0.129161 0.129839
H11   H     H_    0.368480 0.339965 0.869392 0.123671
N1    N     N_R   0.500920 0.500930 0.147930 -0.174254
N2    N     N_R   0.500930 0.500890 0.852020 -0.176867
O1    O     O_R   0.500000 0.319640 0.618810 -0.583754
O2    O     O_R   0.500020 0.319680 0.381230 -0.591963
O3    O     O_R   0.288380 0.499980 0.618770 -0.562829
O4    O     O_R   0.288400 0.500020 0.381190 -0.583662
O5    O     O_R   0.499980 0.680320 0.618770 -0.587185
O6    O     O_R   0.500000 0.680360 0.381190 -0.587781
O7    O     O_R   0.711600 0.499980 0.618810 -0.562346
O8    O     O_R   0.711620 0.500020 0.381230 -0.584446
C21   C     C_2   0.834105 0.546200 0.884874 0.955556
O9    O     O_2   0.943222 0.580504 0.820982 -0.611858
O10   O     O_R   0.816578 0.421893 0.919650 -0.758057
H12   H     H_    0.900434 0.369151 0.884144 0.317976

loop_
_geom_bond_atom_site_label_1
_geom_bond_atom_site_label_2
_ccdc_geom_bond_type
C7    C10   A    
C10   N2    A    
Cu1   N2    S    
C5    H6    S    
C19   C20   A    
C20   H1    S    
C1    O2    A    
C4    C18   A    
C12   O4    A    
C6    H9    S    
C15   O8    A    
C11   C21   S    
Cu1   O1    S    
C8    N1    A    
Cu1   Cu2   S    
C9    H11   S    
C11   C13   S    
C13   H3    S    
C2    H5    S    
C3    C14   S    
C14   O6    A    
Cu2   N1    S    
Cu2   O4    S    
C6    H8    S    
C21   O10   S    
C2    C3    A    
C5    H7    S    
C12   O3    A    
C5    C6    S    
C6    C18   S    
C7    N1    A    
C13   H4    S    
C1    C19   S    
Cu2   O6    S    
C16   C17   T    
C10   C11   S    
C2    C20   A    
C3    C4    A    
C8    H10   S    
C11   H2    S    
C7    C13   S    
C21   O9    D    
C15   O7    A    
C15   C17   S    
C18   C19   A    
C9    N2    A    
O10   H12   S    
C8    C9    A    
Cu1   O7    S    
Cu2   O2    S    
C14   O5    A    
Cu2   O8    S    
Cu1   O3    S    
C12   C16   S    
C1    O1    A    
C4    C5    S    
Cu1   O5    S    
