data_mof_unit_26439.cif
_audit_creation_date              2012-12-10T16:51:12-0500
_audit_creation_method            fapswitch 2.2
_symmetry_space_group_name_H-M    P1
_symmetry_Int_Tables_number       1
_space_group_crystal_system       triclinic
_cell_length_a                    27.808529
_cell_length_b                    8.678977
_cell_length_c                    7.45297
_cell_angle_alpha                 103.58591
_cell_angle_beta                  94.229024
_cell_angle_gamma                 93.756129
_cell_volume                      1737.30135059

loop_
_atom_site_label
_atom_site_type_symbol
_atom_type_description
_atom_site_fract_x
_atom_site_fract_y
_atom_site_fract_z
_atom_type_partial_charge
C1    C     C_R   0.498470 0.199356 0.452594 0.887711
C2    C     C_R   0.501530 0.800644 0.547406 0.887712
C3    C     C_R   0.101857 0.490069 0.497890 -0.159106
C4    C     C_R   0.898144 0.509826 0.502409 -0.159127
C5    C     C_R   0.121257 0.342903 0.429491 -0.093729
C6    C     C_R   0.878747 0.656995 0.570807 -0.093737
C7    C     C_R   0.089965 0.212726 0.327414 0.458769
C8    C     C_R   0.910036 0.787134 0.672997 0.458834
C9    C     C_R   0.133548 0.629565 0.563174 -0.169617
C10   C     C_R   0.866451 0.370350 0.437036 -0.169618
C11   C     C_R   0.354608 0.484493 0.504983 -0.169594
C12   C     C_R   0.645393 0.515508 0.495031 -0.169594
C13   C     C_R   0.968608 0.356566 0.429104 -0.059058
C14   C     C_R   0.031392 0.643303 0.571316 -0.059078
C15   C     C_R   0.980377 0.642662 0.583531 0.064726
C16   C     C_R   0.019624 0.357195 0.416910 0.064739
C17   C     C_R   0.949187 0.503075 0.502350 0.036516
C18   C     C_R   0.050814 0.496799 0.498033 0.036520
C19   C     C_R   0.936161 0.214862 0.379904 0.307190
C20   C     C_R   0.063834 0.785022 0.620497 0.307218
C21   C     C_R   0.885883 0.223318 0.372313 0.425489
C22   C     C_R   0.114114 0.776588 0.627941 0.425467
C23   C     C_R   0.407501 0.496088 0.501632 0.851128
C24   C     C_R   0.592499 0.503912 0.498369 0.851129
C25   C     C_R   0.040509 0.226578 0.311068 -0.118226
C26   C     C_R   0.959490 0.773253 0.689424 -0.118231
C27   C     C_2   0.497797 0.030947 0.426378 -0.345764
C28   C     C_2   0.502203 0.969053 0.573622 -0.345765
C29   C     C_R   0.171590 0.335041 0.456175 0.716340
C30   C     C_R   0.828419 0.664891 0.544022 0.716345
C31   C     C_R   0.183704 0.617224 0.550766 0.712993
C32   C     C_R   0.816293 0.382713 0.449348 0.712978
C33   C     C_R   0.283618 0.526033 0.675339 0.425982
C34   C     C_R   0.716390 0.473952 0.324722 0.426032
C35   C     C_R   0.333784 0.534388 0.672253 -0.246078
C36   C     C_R   0.666223 0.465615 0.327775 -0.246080
C37   C     C_R   0.324621 0.420678 0.340966 -0.218857
C38   C     C_R   0.675374 0.579319 0.659062 -0.218869
C39   C     C_R   0.274404 0.409202 0.342741 0.418696
C40   C     C_R   0.725591 0.590787 0.657319 0.418659
C41   C     C_R   0.253354 0.464425 0.509960 0.134793
C42   C     C_R   0.746648 0.535551 0.490119 0.134784
Cu1   Cu    Cu3+1 0.505380 0.517380 0.684380 0.971883
Cu2   Cu    Cu3+1 0.494620 0.482620 0.315620 0.971886
H1    H     H_    0.340158 0.379309 0.210900 0.200795
H2    H     H_    0.659832 0.620690 0.789116 0.200794
H3    H     H_    0.461687 0.376538 0.948284 0.229102
H4    H     H_    0.538313 0.623462 0.051716 0.229101
H5    H     H_    0.643576 0.416727 0.199695 0.197767
H6    H     H_    0.356435 0.583286 0.800320 0.197771
H7    H     H_    0.019042 0.135877 0.207260 0.218436
H8    H     H_    0.980955 0.863906 0.793308 0.218427
H9    H     H_    0.493699 0.957711 0.285193 0.180719
H10   H     H_    0.506301 0.042289 0.714807 0.180719
N1    N     N_R   0.201688 0.471592 0.508916 -0.465071
N2    N     N_R   0.798315 0.528357 0.491205 -0.465068
N3    N     N_2   0.486510 0.456430 0.038510 -0.215639
N4    N     N_2   0.513490 0.543570 0.961490 -0.215640
O1    O     O_R   0.503500 0.286120 0.619780 -0.583041
O2    O     O_R   0.496500 0.713880 0.380220 -0.583041
O3    O     O_R   0.494410 0.256780 0.308360 -0.583959
O4    O     O_R   0.505590 0.743220 0.691640 -0.583959
O5    O     O_R   0.434810 0.514700 0.655690 -0.590779
O6    O     O_R   0.565190 0.485300 0.344310 -0.590774
O7    O     O_R   0.425720 0.485350 0.344280 -0.578740
O8    O     O_R   0.574280 0.514650 0.655720 -0.578747
O9    O     O_2   0.190575 0.193311 0.430217 -0.374458
O10   O     O_2   0.809443 0.806636 0.569961 -0.374458
O11   O     O_2   0.785406 0.251548 0.424384 -0.401709
O12   O     O_2   0.214583 0.748397 0.575638 -0.401691
Cl1   Cl    Cl    0.238901 0.329357 0.131549 -0.415048
Cl2   Cl    Cl    0.761083 0.670637 0.868535 -0.415055
Cl3   Cl    Cl    0.110158 0.035121 0.197618 -0.404704
Cl4   Cl    Cl    0.889837 0.964712 0.802819 -0.404632
Cl5   Cl    Cl    0.740250 0.400872 0.111961 -0.456509
Cl6   Cl    Cl    0.259766 0.599099 0.888121 -0.456550
Cl7   Cl    Cl    0.848466 0.044746 0.272890 -0.295519
Cl8   Cl    Cl    0.151537 0.955185 0.727247 -0.295526
Cl9   Cl    Cl    0.955043 0.020766 0.361650 -0.493865
Cl10  Cl    Cl    0.044937 0.979125 0.638926 -0.493841

loop_
_geom_bond_atom_site_label_1
_geom_bond_atom_site_label_2
_ccdc_geom_bond_type
C8    C26   A    
C14   C18   A    
C34   C42   A    
Cu1   O5    S    
C7    Cl3   S    
Cu2   O6    S    
C19   C21   A    
C1    O1    A    
C2    O2    A    
C9    C22   A    
C3    C18   A    
C11   C23   S    
C11   C37   A    
C41   N1    S    
Cu1   N4    S    
C42   N2    S    
C29   O9    S    
C31   O12   S    
C12   C36   A    
Cu1   O1    S    
C34   Cl5   S    
C40   C42   A    
C24   O6    A    
Cu2   O7    S    
C5    C29   A    
C10   C21   A    
C20   Cl10  S    
C14   C20   A    
C22   Cl8   S    
C4    C6    A    
C5    C7    A    
C28   H10   S    
C13   C19   A    
C6    C8    A    
C29   N1    A    
C3    C5    A    
C30   N2    A    
Cu1   Cu2   S    
C25   H7    S    
C3    C9    A    
C26   H8    S    
H3    N3    S    
C33   Cl6   S    
Cu2   N3    S    
C35   H6    S    
C8    Cl4   S    
C19   Cl9   S    
C4    C17   A    
C6    C30   A    
C20   C22   A    
C37   H1    S    
C16   C25   A    
C15   C17   A    
C40   Cl2   S    
C15   C26   A    
C1    O3    A    
C27   H9    S    
H4    N4    S    
C32   O11   S    
C24   O8    A    
Cu2   O3    S    
C12   C24   S    
C7    C25   A    
C13   C17   A    
C33   C41   A    
C23   O7    A    
C11   C35   A    
C37   C39   A    
C38   C40   A    
N3    N4    D    
Cu2   O2    S    
Cu1   O8    S    
C23   O5    A    
C33   C35   A    
C34   C36   A    
C12   C38   A    
C38   H2    S    
C9    C31   A    
C10   C32   A    
C39   C41   A    
C16   C18   A    
C13   C16   A    
C21   Cl7   S    
C27   C28   D    
C1    C27   S    
C39   Cl1   S    
C14   C15   A    
C2    C28   S    
C31   N1    A    
C4    C10   A    
C32   N2    A    
C30   O10   S    
C36   H5    S    
C2    O4    A    
Cu1   O4    S    
