data_mof_unit_62827.cif
_audit_creation_date              2012-12-11T14:47:55-0500
_audit_creation_method            fapswitch 2.2
_symmetry_space_group_name_H-M    P1
_symmetry_Int_Tables_number       1
_space_group_crystal_system       triclinic
_cell_length_a                    8.230632
_cell_length_b                    15.085172
_cell_length_c                    22.904242
_cell_angle_alpha                 97.132099
_cell_angle_beta                  89.72696
_cell_angle_gamma                 99.375672
_cell_volume                      2783.75590479

loop_
_atom_site_label
_atom_site_type_symbol
_atom_type_description
_atom_site_fract_x
_atom_site_fract_y
_atom_site_fract_z
_atom_type_partial_charge
Ba1   Ba    Ba6+2 0.857590 0.542650 0.472590 1.653804
Ba2   Ba    Ba6+2 0.332250 0.457420 0.527420 1.654317
C1    C     C_3   0.733858 0.878506 0.324118 0.437048
C2    C     C_3   0.687603 0.785272 0.344059 0.297395
C3    C     C_3   0.474588 0.327006 0.348829 0.302837
C4    C     C_3   0.461521 0.303889 0.282313 -0.368612
C5    C     C_3   0.012689 0.248534 0.686086 0.340367
C6    C     C_3   0.030643 0.220153 0.746885 -0.355379
C7    C     C_3   0.475331 0.217212 0.664719 0.373458
C8    C     C_3   0.429431 0.131738 0.694171 -0.366575
C9    C     C_R   0.340842 0.528101 0.333577 -0.292212
C10   C     C_R   0.194116 0.513207 0.926426 -0.037056
C11   C     C_R   0.149595 0.504314 0.865904 0.587588
C12   C     C_3   0.156130 0.734815 0.314410 0.355457
C13   C     C_R   0.863469 0.480916 0.890515 0.578445
C14   C     C_R   0.904919 0.481580 0.950531 -0.025628
C15   C     C_R   0.070816 0.500055 0.968734 -0.047852
C16   C     C_R   0.359542 0.534478 0.945783 -0.061907
C17   C     C_R   0.400923 0.539108 0.005440 -0.092138
C18   C     C_R   0.279218 0.520859 0.047594 -0.022829
C19   C     C_R   0.113597 0.504765 0.029515 -0.047273
C20   C     C_R   0.783645 0.463912 0.992921 -0.092577
C21   C     C_R   0.825302 0.471486 0.052754 -0.065711
C22   C     C_R   0.990702 0.493273 0.071984 -0.035424
C23   C     C_3   0.155787 0.762576 0.252837 -0.349113
C24   C     C_R   0.035598 0.503886 0.132574 0.582559
C25   C     C_R   0.320235 0.517021 0.107110 0.581709
C26   C     C_2   0.810411 0.415569 0.762447 -0.086745
C27   C     C_3   0.768113 0.399524 0.697379 -0.096168
C28   C     C_1   0.002083 0.519074 0.684585 0.024325
C29   C     C_2   0.036279 0.534795 0.742133 -0.087903
C30   C     C_2   0.939368 0.478716 0.784816 0.203444
C31   C     C_R   0.400081 0.568085 0.235828 -0.106197
C32   C     C_R   0.450209 0.567380 0.294132 -0.024406
C33   C     C_R   0.187552 0.480688 0.314527 0.022145
C34   C     C_3   0.236212 0.734868 0.599623 0.314228
C35   C     C_R   0.143700 0.471560 0.254185 -0.099374
C36   C     C_R   0.246901 0.517822 0.213412 0.190998
C37   C     C_2   0.870816 0.463745 0.661655 -0.260205
C38   C     C_R   0.752785 0.233966 0.524017 -0.284814
C39   C     C_R   0.843064 0.174331 0.545283 0.003082
C40   C     C_R   0.782194 0.081022 0.537942 -0.130431
C41   C     C_R   0.632139 0.045879 0.506310 0.043178
C42   C     C_R   0.551726 0.108575 0.481243 -0.078605
C43   C     C_R   0.611748 0.200965 0.490099 0.025757
C44   C     C_R   0.409634 0.912736 0.467303 -0.056644
C45   C     C_3   0.262622 0.837087 0.616271 -0.384692
C46   C     C_R   0.347703 0.820250 0.457806 0.005289
C47   C     C_R   0.582398 0.788288 0.508815 0.058929
C48   C     C_R   0.646895 0.880819 0.518055 -0.111342
C49   C     C_R   0.563585 0.945610 0.496595 0.064830
C50   C     C_R   0.437069 0.758185 0.476640 -0.294129
C51   C     C_3   0.959674 0.265846 0.402172 0.274284
C52   C     C_3   0.929744 0.163495 0.386006 -0.334692
C53   C     C_3   0.712958 0.654884 0.647795 0.305993
C54   C     C_3   0.723919 0.676819 0.714423 -0.370002
H1    H     H_    0.750016 0.785695 0.387023 0.087736
H2    H     H_    0.350661 0.856908 0.654032 0.122698
H3    H     H_    0.312963 0.871932 0.578823 0.049866
H4    H     H_    0.143598 0.859371 0.628644 0.128676
H5    H     H_    0.843341 0.288596 0.416156 0.002920
H6    H     H_    0.051079 0.283572 0.438840 0.079624
H7    H     H_    0.830883 0.143495 0.351820 0.156810
H8    H     H_    0.892241 0.129276 0.425090 0.098508
H9    H     H_    0.044488 0.140658 0.368840 0.125751
H10   H     H_    0.830242 0.635555 0.631484 0.001326
H11   H     H_    0.611414 0.597276 0.636633 0.083691
H12   H     H_    0.869204 0.894347 0.318709 0.065738
H13   H     H_    0.738497 0.615508 0.734734 0.082807
H14   H     H_    0.609507 0.700446 0.731226 0.140240
H15   H     H_    0.552041 0.771985 0.349570 -0.054342
H16   H     H_    0.355312 0.344374 0.365194 0.012417
H17   H     H_    0.573392 0.386486 0.359153 0.062303
H18   H     H_    0.360224 0.246216 0.270381 0.125690
H19   H     H_    0.435521 0.363195 0.261927 0.070267
H20   H     H_    0.579214 0.285317 0.264846 0.135651
H21   H     H_    0.671817 0.880102 0.281397 0.019273
H22   H     H_    0.184795 0.706814 0.220182 0.079716
H23   H     H_    0.069843 0.320839 0.687356 0.067582
H24   H     H_    0.879467 0.239583 0.675542 -0.054345
H25   H     H_    0.162094 0.232711 0.760859 0.158442
H26   H     H_    0.961656 0.259860 0.779379 0.066311
H27   H     H_    0.980701 0.147072 0.746336 0.109314
H28   H     H_    0.609836 0.225420 0.657120 -0.094046
H29   H     H_    0.411530 0.207751 0.621278 0.091812
H30   H     H_    0.468388 0.073489 0.666246 0.065298
H31   H     H_    0.294535 0.116629 0.700265 0.148895
H32   H     H_    0.064011 0.672383 0.315290 0.095312
H33   H     H_    0.492605 0.140379 0.737733 0.110337
H34   H     H_    0.727902 0.458005 0.083841 0.173544
H35   H     H_    0.656027 0.442752 0.979611 0.118169
H36   H     H_    0.528654 0.558810 0.018904 0.113983
H37   H     H_    0.482542 0.608026 0.208699 0.135692
H38   H     H_    0.457564 0.548289 0.914901 0.167619
H39   H     H_    0.127196 0.592739 0.758903 0.106900
H40   H     H_    0.743095 0.368919 0.789848 0.114932
H41   H     H_    0.030510 0.427445 0.239730 0.129967
H42   H     H_    0.378547 0.530638 0.379024 0.079781
H43   H     H_    0.280632 0.720372 0.323923 -0.066247
H44   H     H_    0.839826 0.457869 0.615195 0.078433
H45   H     H_    0.331267 0.956713 0.453162 0.069388
H46   H     H_    0.856965 0.038050 0.555540 0.072408
H47   H     H_    0.759551 0.900060 0.543467 0.072616
H48   H     H_    0.445552 0.088125 0.452636 0.080957
H49   H     H_    0.387159 0.686684 0.470223 0.072030
H50   H     H_    0.800188 0.305796 0.529305 0.064979
H51   H     H_    0.032696 0.777719 0.241933 0.143449
H52   H     H_    0.249821 0.823692 0.250227 0.114497
N1    N     N_R   0.984854 0.489093 0.847910 -0.426897
N2    N     N_R   0.200080 0.512599 0.150470 -0.423390
O1    O     O_2   0.888680 0.450300 0.360330 -0.456392
O2    O     O_3   0.683767 0.731626 0.623456 -0.635888
O3    O     O_3   0.115039 0.805203 0.354972 -0.598899
O4    O     O_2   0.301020 0.549730 0.639710 -0.454505
O5    O     O_3   0.060450 0.548840 0.568630 -0.497535
O6    O     O_3   0.513610 0.385220 0.603380 -0.483347
O7    O     O_3   0.170001 0.694416 0.647956 -0.635509
O8    O     O_3   0.611400 0.391150 0.470030 -0.483617
O9    O     O_3   0.093990 0.338690 0.574280 -0.484908
O10   O     O_2   0.179159 0.178281 0.535444 -0.486468
O11   O     O_3   0.091158 0.194100 0.644698 -0.599940
O12   O     O_3   0.129270 0.451230 0.431380 -0.492761
O13   O     O_3   0.578310 0.608920 0.529980 -0.494662
O14   O     O_2   0.337770 0.279070 0.470480 -0.458397
O15   O     O_3   0.511423 0.251976 0.373665 -0.631543
O16   O     O_2   0.465355 0.470251 0.709665 -0.431697
O17   O     O_3   0.428905 0.291888 0.700442 -0.580169
O18   O     O_2   0.258222 0.508365 0.829360 -0.561225
O19   O     O_2   0.718669 0.474714 0.876542 -0.597284
O20   O     O_2   0.927522 0.507183 0.169071 -0.568724
O21   O     O_2   0.463286 0.514809 0.119580 -0.608226
O22   O     O_3   0.676100 0.614850 0.396630 -0.491220
O23   O     O_2   0.782625 0.551272 0.292662 -0.431708
O24   O     O_3   0.016948 0.305576 0.352475 -0.634638
O25   O     O_3   0.739068 0.720286 0.301734 -0.645570
O26   O     O_2   0.851930 0.720960 0.529560 -0.460605
O27   O     O_3   0.095720 0.661380 0.425720 -0.497314
O28   O     O_2   0.010111 0.821773 0.462982 -0.481150
P1    P     P_3+3 0.054670 0.423610 0.368990 0.990006
P2    P     P_3+3 0.674060 0.707690 0.546600 0.981409
P3    P     P_3+3 0.141415 0.778475 0.426139 0.956573
P4    P     P_3+3 0.135040 0.576460 0.631020 0.992147
P5    P     P_3+3 0.051317 0.220754 0.574567 0.944775
P6    P     P_3+3 0.661832 0.612545 0.320380 0.973870
P7    P     P_3+3 0.519929 0.278449 0.450296 0.955980
P8    P     P_3+3 0.544013 0.390374 0.679198 0.997775
H53   H     H_    0.831215 0.730561 0.727237 0.113477
F1    F     F_    0.685250 0.943455 0.365464 -0.738789
H54   H     H_    0.355795 0.713398 0.588749 0.002235
H55   H     H_    0.151334 0.716982 0.560911 0.064523

loop_
_geom_bond_atom_site_label_1
_geom_bond_atom_site_label_2
_ccdc_geom_bond_type
O22   P6    S    
C53   C54   S    
C38   C39   A    
C53   O2    S    
C6    H27   S    
O9    P5    S    
C39   C40   A    
O2    P2    S    
C17   C18   A    
O26   P2    D    
Ba1   O22   S    
C41   C49   S    
C35   H41   S    
C42   H48   S    
O1    P1    D    
C12   H43   S    
C52   H9    S    
C51   C52   S    
C32   P6    S    
C7    O17   S    
C9    H42   S    
C6    H26   S    
O4    P4    D    
C38   H50   S    
C26   C27   S    
C33   C35   A    
C22   C24   A    
O12   P1    S    
C16   C17   A    
C3    H16   S    
C3    C4    S    
C34   H54   S    
C52   H7    S    
C13   C14   A    
C25   O21   D    
C34   C45   S    
Ba1   Ba2   S    
C51   H6    S    
O11   P5    S    
Ba1   O12   S    
C11   N1    Am   
C17   H36   S    
C7    H29   S    
C45   H4    S    
C11   O18   D    
Ba2   O6    S    
C1    H12   S    
C25   N2    Am   
C14   C15   A    
C2    H1    S    
C28   C37   D    
C20   H35   S    
C36   N2    S    
Ba1   O26   S    
C7    C8    S    
C24   N2    Am   
C24   O20   D    
C33   P1    S    
O5    P4    S    
C1    F1    S    
O10   P5    D    
C51   H5    S    
C5    O11   S    
C40   H46   S    
C4    H18   S    
Ba2   O12   S    
Ba2   O8    S    
C38   C43   A    
C44   H45   S    
C44   C46   A    
C8    H31   S    
C30   N1    S    
C6    H25   S    
C5    C6    S    
C8    H33   S    
O24   P1    S    
C7    H28   S    
C48   C49   A    
Ba2   O13   S    
C44   C49   A    
C15   C19   A    
C23   H22   S    
C10   C15   A    
C41   C42   A    
Ba1   O13   S    
C35   C36   A    
Ba2   O5    S    
C29   C30   S    
C13   O19   D    
C26   C30   D    
C21   C22   A    
C47   C50   A    
C27   C37   S    
C31   C32   A    
C21   H34   S    
C10   C11   A    
C4    H20   S    
C34   O7    S    
Ba2   P4    S    
Ba1   P2    S    
C2    O25   S    
O25   P6    S    
C50   H49   S    
C47   C48   A    
C54   H14   S    
C13   N1    Am   
C16   H38   S    
C43   P7    S    
C19   C22   A    
C40   C41   A    
C10   C16   A    
C1    C2    S    
C1    H21   S    
C27   P8    S    
C53   H10   S    
Ba1   O27   S    
C42   C43   A    
C23   H51   S    
C5    H23   S    
Ba1   P1    S    
O27   P3    S    
C8    H30   S    
O23   P6    D    
C14   C20   A    
O8    P7    S    
C9    C32   A    
C51   O24   S    
O28   P3    D    
C31   H37   S    
C53   H11   S    
Ba2   O9    S    
C39   P5    S    
C18   C25   A    
Ba2   O14   S    
C12   O3    S    
O14   P7    D    
C31   C36   A    
C28   P4    S    
C26   H40   S    
C54   H53   S    
C9    C33   A    
O7    P4    S    
C12   H32   S    
O15   P7    S    
Ba1   O1    S    
C45   H2    S    
O6    P8    S    
Ba2   O4    S    
C34   H55   S    
C37   H44   S    
C28   C29   D    
C52   H8    S    
C29   H39   S    
O13   P2    S    
O3    P3    S    
C46   P3    S    
Ba1   O8    S    
C12   C23   S    
C3    H17   S    
O17   P8    S    
C45   H3    S    
C48   H47   S    
C18   C19   A    
C54   H13   S    
C47   P2    S    
C3    O15   S    
C20   C21   A    
Ba1   O5    S    
C46   C50   A    
C2    H15   S    
O16   P8    D    
C23   H52   S    
C5    H24   S    
C4    H19   S    
