data_mof_unit_45351.cif
_audit_creation_date              2013-03-05T16:00:48-0500
_audit_creation_method            fapswitch 2.2
_symmetry_space_group_name_H-M    P1
_symmetry_Int_Tables_number       1
_space_group_crystal_system       triclinic
_cell_length_a                    21.026479
_cell_length_b                    21.216456
_cell_length_c                    13.998531
_cell_angle_alpha                 90.042713
_cell_angle_beta                  90.521361
_cell_angle_gamma                 90.057279
_cell_volume                      6244.5843656

loop_
_atom_site_label
_atom_site_type_symbol
_atom_site_description
_atom_site_fract_x
_atom_site_fract_y
_atom_site_fract_z
_atom_type_partial_charge
O1    O     O_R   0.066090 0.433930 0.580280 -0.645326
O2    O     O_R   0.933910 0.566070 0.419720 -0.647215
O3    O     O_R   0.933910 0.566070 0.580280 -0.609705
O4    O     O_R   0.066090 0.433930 0.419720 -0.559083
O5    O     O_R   0.933910 0.433930 0.419720 -0.629690
O6    O     O_R   0.066090 0.566070 0.580280 -0.642122
O7    O     O_R   0.066090 0.566070 0.419720 -0.591922
O8    O     O_R   0.933910 0.433930 0.580280 -0.622179
O9    O     O_R   0.566090 0.933930 0.580280 -0.586355
O10   O     O_R   0.433910 0.066070 0.419720 -0.636117
O11   O     O_R   0.433910 0.066070 0.580280 -0.612788
O12   O     O_R   0.566090 0.933930 0.419720 -0.635906
O13   O     O_R   0.433910 0.933930 0.419720 -0.633819
O14   O     O_R   0.566090 0.066070 0.580280 -0.629534
O15   O     O_R   0.566090 0.066070 0.419720 -0.624927
O16   O     O_R   0.433910 0.933930 0.580280 -0.585121
C1    C     C_R   0.088132 0.414956 0.500210 0.952045
C2    C     C_R   0.911527 0.585498 0.499611 0.860699
C3    C     C_R   0.912305 0.413912 0.499491 0.854526
C4    C     C_R   0.088253 0.585360 0.500176 0.910535
C5    C     C_R   0.587867 0.914645 0.500366 0.962663
C6    C     C_R   0.410990 0.084451 0.499557 0.912084
C7    C     C_R   0.412510 0.914317 0.499536 0.879875
C8    C     C_R   0.588960 0.085278 0.500654 0.919151
Zn1   Zn    Zn3+2 1.000000 0.500000 0.607200 0.963288
Zn2   Zn    Zn3+2 1.000000 0.500000 0.392800 1.005965
Zn3   Zn    Zn3+2 0.500000 1.000000 0.607200 1.010723
Zn4   Zn    Zn3+2 0.500000 0.000000 0.392800 0.968710
C9    C     C_R   0.138423 0.674875 0.427073 -0.174788
C10   C     C_R   0.871753 0.317951 0.571345 -0.186592
C11   C     C_R   0.852338 0.666581 0.582005 -0.183067
C12   C     C_R   0.122538 0.311836 0.548169 -0.224608
C13   C     C_R   0.664020 0.150176 0.413092 -0.195763
C14   C     C_R   0.378601 0.810901 0.547595 -0.180319
C15   C     C_R   0.360647 0.174634 0.428422 -0.212565
C16   C     C_R   0.625137 0.815023 0.441688 -0.244295
C17   C     C_R   0.140771 0.629087 0.498046 -0.125145
C18   C     C_R   0.868308 0.361788 0.497273 -0.153503
C19   C     C_R   0.858235 0.628958 0.500756 -0.151144
C20   C     C_R   0.135951 0.367175 0.499486 -0.098032
C21   C     C_R   0.645479 0.125336 0.500988 -0.133249
C22   C     C_R   0.365616 0.865658 0.496878 -0.115259
C23   C     C_R   0.357547 0.127069 0.496242 -0.117123
C24   C     C_R   0.634947 0.866129 0.502212 -0.090329
C25   C     C_R   0.193638 0.623765 0.560415 -0.037418
C26   C     C_R   0.826263 0.353011 0.419335 -0.049699
C27   C     C_R   0.812836 0.632429 0.425528 -0.081869
C28   C     C_R   0.191708 0.374231 0.445500 -0.051311
C29   C     C_R   0.682107 0.137546 0.584928 -0.021495
C30   C     C_R   0.310982 0.871937 0.439130 -0.068779
C31   C     C_R   0.303855 0.119813 0.555466 -0.067072
C32   C     C_R   0.686092 0.867868 0.568073 -0.044788
C33   C     C_R   0.246233 0.664258 0.547100 -0.025235
C34   C     C_R   0.797468 0.293716 0.407866 -0.020863
C35   C     C_R   0.758322 0.670074 0.437797 -0.011032
C36   C     C_R   0.228693 0.320244 0.428044 -0.102029
C37   C     C_R   0.739283 0.171937 0.577289 -0.037398
C38   C     C_R   0.273178 0.818193 0.422533 -0.024817
C39   C     C_R   0.252462 0.162624 0.545380 -0.083892
C40   C     C_R   0.719782 0.811685 0.584661 -0.109766
C41   C     C_R   0.238475 0.715989 0.483380 0.009256
C42   C     C_R   0.793936 0.254314 0.489208 0.003090
C43   C     C_R   0.758893 0.714367 0.513777 0.019209
C44   C     C_R   0.217949 0.265838 0.485186 0.035239
C45   C     C_R   0.749794 0.205301 0.491203 0.014303
C46   C     C_R   0.282883 0.764939 0.482615 0.010670
C47   C     C_R   0.261276 0.215858 0.484591 0.036405
C48   C     C_R   0.714689 0.763278 0.514938 0.035225
C49   C     C_R   0.185595 0.719635 0.421480 0.064278
C50   C     C_R   0.831520 0.266450 0.570653 0.064566
C51   C     C_R   0.805152 0.711432 0.586663 0.053887
C52   C     C_R   0.164594 0.262021 0.544549 0.069205
C53   C     C_R   0.713410 0.192717 0.408683 0.062442
C54   C     C_R   0.336271 0.761227 0.543600 0.068484
C55   C     C_R   0.314132 0.219997 0.424038 0.064872
C56   C     C_R   0.667025 0.765165 0.443919 0.087397
C57   C     C_R   0.306113 0.656314 0.594116 0.465551
C58   C     C_R   0.769702 0.273025 0.320592 0.481789
C59   C     C_R   0.703853 0.666975 0.376680 0.372071
C60   C     C_R   0.276001 0.317895 0.356314 0.399875
C61   C     C_R   0.784904 0.177661 0.652889 0.441044
C62   C     C_R   0.226372 0.814717 0.348878 0.469121
C63   C     C_R   0.192896 0.156011 0.592987 0.386937
C64   C     C_R   0.759596 0.801989 0.665827 0.399881
C65   C     C_R   0.829503 0.226238 0.649229 -0.242274
C66   C     C_R   0.181224 0.766864 0.352452 -0.247917
C67   C     C_R   0.151604 0.207246 0.595380 -0.227601
C68   C     C_R   0.803205 0.752715 0.664301 -0.222566
C69   C     C_R   0.348736 0.706613 0.595722 -0.249295
C70   C     C_R   0.726480 0.223321 0.322701 -0.257296
C71   C     C_R   0.660019 0.716002 0.378675 -0.278022
C72   C     C_R   0.319762 0.268932 0.358184 -0.224940
H1    H     H_    0.097836 0.677434 0.378675 0.160667
H2    H     H_    0.904025 0.325217 0.631301 0.166008
H3    H     H_    0.887248 0.663843 0.639455 0.171581
H4    H     H_    0.079175 0.307866 0.589342 0.155463
H5    H     H_    0.636889 0.140310 0.348493 0.170626
H6    H     H_    0.421580 0.807419 0.590879 0.156065
H7    H     H_    0.401618 0.178259 0.382008 0.162292
H8    H     H_    0.585532 0.814866 0.391342 0.166683
H9    H     H_    0.862468 0.233103 0.708343 0.197832
H10   H     H_    0.143269 0.765560 0.299492 0.197054
H11   H     H_    0.107726 0.203819 0.635139 0.209324
H12   H     H_    0.835684 0.746447 0.724163 0.201967
H13   H     H_    0.393063 0.702353 0.635394 0.199289
H14   H     H_    0.702277 0.209184 0.257371 0.194532
H15   H     H_    0.619764 0.715502 0.329705 0.203777
H16   H     H_    0.357965 0.268389 0.306642 0.203430
C73   C     C_R   0.943876 0.493242 0.797335 -0.039253
C74   C     C_R   0.056109 0.507048 0.202713 0.000336
C75   C     C_R   0.056139 0.506200 0.798942 -0.014427
C76   C     C_R   0.944126 0.491979 0.200984 0.010411
C77   C     C_R   0.444012 0.007141 0.797481 -0.028623
C78   C     C_R   0.556134 0.993342 0.202675 -0.040693
C79   C     C_R   0.555933 0.991991 0.798879 -0.019062
C80   C     C_R   0.443859 0.006490 0.201174 -0.012053
N1    N     N_R   0.000000 0.500000 0.750030 -0.114517
N2    N     N_R   1.000000 0.500000 0.249970 -0.122496
N3    N     N_R   0.500000 0.000000 0.750030 -0.118822
N4    N     N_R   0.500000 0.000000 0.249970 -0.113473
C81   C     C_R   0.057519 0.506529 0.899608 0.008895
C82   C     C_R   0.942723 0.491964 0.100382 0.023581
C83   C     C_R   0.942576 0.492584 0.898015 0.010101
C84   C     C_R   0.057535 0.506861 0.102031 -0.000203
C85   C     C_R   0.557400 0.992267 0.899569 0.013869
C86   C     C_R   0.442530 0.006759 0.100482 0.010612
C87   C     C_R   0.442616 0.007073 0.898097 0.003409
C88   C     C_R   0.557483 0.992886 0.102007 0.012163
C89   C     C_R   0.000060 0.499593 0.949399 0.089346
C90   C     C_R   0.000100 0.499539 0.050616 0.078745
C91   C     C_R   0.500026 0.999799 0.949433 0.089858
C92   C     C_R   0.500018 0.999841 0.050660 0.087225
C93   C     C_R   0.114698 0.513493 0.951398 -0.152806
C94   C     C_R   0.885593 0.484537 0.048653 -0.117623
C95   C     C_R   0.885500 0.485029 0.948292 -0.171746
C96   C     C_R   0.114696 0.513745 0.051778 -0.137226
C97   C     C_R   0.614541 0.985175 0.951327 -0.129197
C98   C     C_R   0.385393 0.013727 0.048680 -0.137452
C99   C     C_R   0.385453 0.014013 0.948319 -0.165376
C100  C     C_R   0.614595 0.985624 0.051708 -0.180608
H17   H     H_    0.900213 0.488205 0.756441 0.144406
H18   H     H_    0.099702 0.512617 0.243624 0.185301
H19   H     H_    0.099778 0.510719 0.759385 0.142886
H20   H     H_    0.900739 0.485318 0.240320 0.121501
H21   H     H_    0.400457 0.012584 0.756853 0.163969
H22   H     H_    0.599778 0.988306 0.243581 0.143959
H23   H     H_    0.599301 0.985091 0.759267 0.172745
H24   H     H_    0.400205 0.011494 0.240902 0.142526
H25   H     H_    0.159372 0.518863 0.914291 0.185748
H26   H     H_    0.841007 0.478526 0.085796 0.177550
H27   H     H_    0.840835 0.479408 0.910034 0.164034
H28   H     H_    0.159365 0.519273 0.090071 0.185594
H29   H     H_    0.659169 0.979459 0.914215 0.193716
H30   H     H_    0.340707 0.019035 0.085753 0.171626
H31   H     H_    0.340815 0.019597 0.909995 0.171112
H32   H     H_    0.659265 0.980189 0.089973 0.162996
C101  C     C_2   0.189708 0.581424 0.644055 0.548031
H33   H     H_    0.178770 0.531829 0.634202 0.061423
O17   O     O_2   0.196015 0.602517 0.724736 -0.531568
C102  C     C_2   0.801072 0.409028 0.367222 0.544585
H34   H     H_    0.828246 0.451969 0.362359 0.027737
O18   O     O_2   0.746919 0.409293 0.335094 -0.457823
C103  C     C_2   0.827222 0.605766 0.330516 0.580579
H35   H     H_    0.835883 0.555943 0.322280 0.049346
O19   O     O_2   0.830454 0.640152 0.260837 -0.524007
C104  C     C_2   0.218569 0.438109 0.426660 0.513248
H36   H     H_    0.269702 0.444189 0.424608 0.144245
O20   O     O_2   0.185044 0.484355 0.414758 -0.584478
C105  C     C_2   0.655309 0.125575 0.680540 0.566689
H37   H     H_    0.648598 0.077850 0.705688 0.110877
O21   O     O_2   0.640244 0.169663 0.731608 -0.525674
C106  C     C_2   0.288546 0.936343 0.413603 0.608463
H38   H     H_    0.321838 0.973016 0.393821 0.043303
O22   O     O_2   0.232384 0.949975 0.419975 -0.457071
C107  C     C_2   0.305502 0.072653 0.633234 0.521925
H39   H     H_    0.297789 0.087525 0.706298 0.076835
O23   O     O_2   0.314822 0.017008 0.616021 -0.553691
C108  C     C_2   0.713780 0.929223 0.600661 0.502497
H40   H     H_    0.761616 0.930708 0.629650 0.149765
O24   O     O_2   0.685838 0.979137 0.590653 -0.605138
S1    S     S_3+6 0.336460 0.582562 0.634099 0.046283
O25   O     O_2   0.306671 0.529257 0.578760 -0.346792
O26   O     O_2   0.407204 0.580809 0.619542 -0.262595
O27   O     O_3   0.322160 0.573702 0.751292 -0.491482
H41   H     H_    0.336468 0.530370 0.766586 0.388630
S2    S     S_3+6 0.794614 0.299872 0.206671 0.057610
O28   O     O_2   0.857585 0.333298 0.213695 -0.323659
O29   O     O_2   0.801187 0.244155 0.141106 -0.254353
O30   O     O_3   0.739477 0.348718 0.160408 -0.475963
H42   H     H_    0.758780 0.365638 0.101437 0.383782
S3    S     S_3+6 0.681034 0.598838 0.310968 0.072078
O31   O     O_2   0.705888 0.603052 0.210894 -0.196161
O32   O     O_2   0.706376 0.540282 0.358035 -0.298188
O33   O     O_3   0.601236 0.593972 0.305050 -0.482911
H43   H     H_    0.587585 0.588406 0.372068 0.366797
S4    S     S_3+6 0.276049 0.366536 0.252960 0.028303
O34   O     O_2   0.210490 0.391510 0.232005 -0.293014
O35   O     O_2   0.321551 0.420455 0.267434 -0.283816
O36   O     O_3   0.300286 0.323761 0.158860 -0.530995
H44   H     H_    0.299822 0.353504 0.104344 0.395650
S5    S     S_3+6 0.795360 0.121043 0.745257 0.051059
O37   O     O_2   0.775364 0.056843 0.710849 -0.305549
O38   O     O_2   0.864238 0.118580 0.774812 -0.242795
O39   O     O_3   0.752066 0.141721 0.840686 -0.501625
H45   H     H_    0.753333 0.104510 0.883362 0.387622
S6    S     S_3+6 0.229167 0.859394 0.241514 0.048428
O40   O     O_2   0.295159 0.884023 0.224300 -0.337677
O41   O     O_2   0.209968 0.817966 0.158941 -0.259145
O42   O     O_3   0.177622 0.919763 0.247630 -0.481991
H46   H     H_    0.184210 0.944015 0.188087 0.390175
S7    S     S_3+6 0.160749 0.083790 0.635550 0.053278
O43   O     O_2   0.181732 0.029734 0.574076 -0.202985
O44   O     O_2   0.181542 0.073013 0.737231 -0.309439
O45   O     O_3   0.080800 0.087144 0.632053 -0.522084
H47   H     H_    0.066433 0.046311 0.658570 0.408199
S8    S     S_3+6 0.749203 0.841063 0.776897 0.017772
O46   O     O_2   0.798840 0.891573 0.788650 -0.279428
O47   O     O_2   0.683967 0.869644 0.783201 -0.323913
O48   O     O_3   0.758291 0.788398 0.865717 -0.515475
H48   H     H_    0.752792 0.812999 0.925243 0.397017

loop_
_geom_bond_atom_site_label_1
_geom_bond_atom_site_label_2
_geom_bond_distance
_ccdc_geom_bond_type
C68   H12   1.084538 S    
C63   C67   1.392450 A    
C101  H33   1.085287 S    
O8    Zn1   2.005957 S    
O10   Zn4   2.012637 S    
C75   C81   1.409216 A    
C105  O21   1.220691 D    
S5    O37   1.502769 D    
C16   H8    1.086036 S    
C103  H35   1.079079 S    
C14   C22   1.388017 A    
S8    O48   1.682004 S    
C23   C31   1.415085 A    
C74   N2    1.365963 A    
C108  H40   1.081581 S    
C47   C55   1.406573 A    
C73   N1    1.365901 A    
C107  O23   1.221119 D    
S1    O25   1.503295 D    
O10   C6    1.281757 A    
O13   C7    1.278071 A    
C35   C59   1.424745 A    
C7    C22   1.427111 S    
O12   Zn4   2.008288 S    
C95   H27   1.083312 S    
C54   C69   1.393566 A    
C27   C35   1.409426 A    
C103  O19   1.220839 D    
S8    O47   1.503583 D    
C53   C70   1.397368 A    
C38   C62   1.420710 A    
S6    O41   1.503623 D    
C108  O24   1.219114 D    
O6    Zn1   2.011091 S    
O2    C2    1.285071 A    
O14   C8    1.284444 A    
C46   C54   1.406414 A    
C79   H23   1.081570 S    
C29   C37   1.410615 A    
O27   H41   0.990565 S    
C42   C50   1.404787 A    
O3    C2    1.287634 A    
C20   C28   1.408509 A    
C105  H37   1.081784 S    
C77   H21   1.079964 S    
C74   H18   1.082690 S    
C82   C94   1.405625 A    
C87   C91   1.407887 A    
C16   C56   1.377356 A    
C39   C47   1.427586 A    
C77   N3    1.365468 A    
C33   C41   1.423387 A    
C41   C46   1.396006 A    
C38   C46   1.422796 A    
S7    O43   1.502323 D    
C35   C43   1.418715 A    
C93   C96   1.405182 A    
C57   S1    1.779243 S    
C36   C44   1.423890 A    
O13   Zn4   2.011094 S    
C58   S2    1.777058 S    
C86   C92   1.408781 A    
O14   Zn3   2.011091 S    
C15   C23   1.387942 A    
C80   N4    1.365569 A    
C59   C71   1.390892 A    
C75   H19   1.080242 S    
C74   C84   1.410000 A    
C61   C65   1.394000 A    
C98   H30   1.083447 S    
O16   Zn3   2.005957 S    
C11   C51   1.377357 A    
O33   H43   0.990691 S    
C25   C33   1.413461 A    
O36   H44   0.990599 S    
C101  O17   1.220587 D    
C59   S3    1.776193 S    
C83   C89   1.408579 A    
C104  O20   1.219365 D    
C8    C21   1.460295 S    
S5    O38   1.503536 D    
C87   C99   1.405760 A    
S4    O36   1.682229 S    
C15   H7    1.086439 S    
C88   C92   1.408233 A    
C21   C29   1.422564 A    
C10   C50   1.381175 A    
C106  O22   1.220113 D    
O11   Zn3   2.008289 S    
C9    C49   1.375288 A    
S1    O26   1.503703 D    
C100  H32   1.083312 S    
C60   S4    1.777771 S    
C97   C100  1.405214 A    
O8    C3    1.286589 A    
C77   C87   1.409046 A    
C84   C96   1.405666 A    
C97   H29   1.083564 S    
S3    O31   1.502330 D    
C30   C38   1.407292 A    
C44   C47   1.398738 A    
C71   H15   1.084381 S    
O3    Zn1   2.008289 S    
C25   C101  1.479140 S    
S8    O46   1.503058 D    
C78   H22   1.082672 S    
C12   C52   1.379907 A    
Zn4   N4    1.999412 S    
C45   C53   1.404993 A    
C37   C45   1.417009 A    
O48   H48   0.990626 S    
C80   H24   1.082826 S    
C9    H1    1.086212 S    
O45   H47   0.990751 S    
C73   C83   1.409971 A    
C73   H17   1.082654 S    
C61   S5    1.777876 S    
C34   C42   1.415539 A    
C85   C97   1.405630 A    
C62   C66   1.390490 A    
O12   C5    1.281878 A    
C58   C70   1.391921 A    
C51   C68   1.396228 A    
C83   C95   1.405855 A    
C1    C20   1.428622 S    
C102  O18   1.220440 D    
C60   C72   1.388549 A    
C33   C57   1.425612 A    
C2    C19   1.452051 S    
S3    O32   1.502545 D    
C76   C82   1.408326 A    
C39   C63   1.430878 A    
C3    C18   1.441228 S    
C5    C24   1.428899 S    
C78   C88   1.409764 A    
C85   C91   1.408429 A    
O4    Zn2   2.008288 S    
C107  H39   1.083793 S    
C99   H31   1.083480 S    
C26   C102  1.490236 S    
C26   C34   1.404058 A    
O42   H46   0.990600 S    
C93   H25   1.083463 S    
O2    Zn2   2.012637 S    
C78   N4    1.365943 A    
C31   C107  1.479337 S    
O7    Zn2   2.005954 S    
C70   H14   1.084501 S    
C55   C72   1.394603 A    
C22   C30   1.405142 A    
C67   H11   1.084219 S    
O4    C1    1.279827 A    
C13   C53   1.377070 A    
O15   C8    1.292263 A    
S7    O44   1.502933 D    
C43   C51   1.404689 A    
O16   C7    1.281751 A    
C79   N3    1.365849 A    
C12   C20   1.387993 A    
C104  H36   1.083373 S    
C9    C17   1.390652 A    
S5    O39   1.681590 S    
C37   C61   1.426870 A    
C15   C55   1.373861 A    
C31   C39   1.418474 A    
C17   C25   1.411877 A    
C91   C92   1.417029 A    
C66   H10   1.084634 S    
C29   C105  1.478960 S    
C62   S6    1.778859 S    
C52   C67   1.391269 A    
C65   H9    1.084259 S    
C106  H38   1.083904 S    
O9    Zn3   2.012637 S    
C19   C27   1.416895 A    
C89   C90   1.416883 A    
S1    O27   1.681198 S    
C41   C49   1.405637 A    
C28   C36   1.407567 A    
C43   C48   1.393996 A    
C86   C98   1.405582 A    
C42   C45   1.393627 A    
C12   H4    1.086316 S    
S6    O40   1.503781 D    
C57   C69   1.392920 A    
Zn2   N2    1.999412 S    
C81   C89   1.407916 A    
S4    O34   1.503777 D    
Zn1   N1    1.999410 S    
C24   C32   1.410564 A    
C30   C106  1.488753 S    
O1    Zn1   2.012637 S    
C94   C95   1.404937 A    
O5    C3    1.281899 A    
Zn3   N3    1.999410 S    
C48   C56   1.405842 A    
O6    C4    1.285264 A    
O11   C6    1.285452 A    
O1    C1    1.281539 A    
C36   C60   1.420696 A    
C75   N1    1.365402 A    
C13   C21   1.397460 A    
C102  H34   1.077437 S    
C76   H20   1.079098 S    
S2    O30   1.681440 S    
C88   C100  1.406122 A    
S3    O33   1.682225 S    
C27   C103  1.478864 S    
C10   H2    1.085301 S    
C84   C90   1.408626 A    
C76   N2    1.365353 A    
C4    C17   1.442066 S    
C40   C64   1.420386 A    
S6    O42   1.681295 S    
O9    C5    1.279654 A    
O15   Zn4   2.005954 S    
C64   C68   1.391534 A    
C11   H3    1.085531 S    
C79   C85   1.409587 A    
C14   H6    1.086049 S    
C11   C19   1.395532 A    
C50   C65   1.393465 A    
C13   H5    1.084934 S    
C44   C52   1.404492 A    
O30   H42   0.990607 S    
C32   C108  1.494783 S    
C18   C26   1.410098 A    
S4    O35   1.503010 D    
C16   C24   1.389622 A    
C98   C99   1.404940 A    
C56   C71   1.392703 A    
O5    Zn2   2.011094 S    
C14   C54   1.379555 A    
S7    O45   1.682887 S    
C28   C104  1.492330 S    
O39   H45   0.990627 S    
C40   C48   1.419586 A    
C32   C40   1.405595 A    
O7    C4    1.281610 A    
C69   H13   1.084495 S    
C80   C86   1.409568 A    
C10   C18   1.394859 A    
C81   C93   1.405891 A    
S2    O28   1.503788 D    
C96   H28   1.083426 S    
C72   H16   1.084659 S    
S2    O29   1.503297 D    
C82   C90   1.407736 A    
C6    C23   1.443464 S    
C63   S7    1.779430 S    
C49   C66   1.395083 A    
C64   S8    1.776830 S    
C34   C58   1.418400 A    
C94   H26   1.083625 S    
