data_mof_unit_18281.cif
_audit_creation_date              2012-12-10T20:03:55-0500
_audit_creation_method            fapswitch 2.2
_symmetry_space_group_name_H-M    P1
_symmetry_Int_Tables_number       1
_space_group_crystal_system       triclinic
_cell_length_a                    19.122322
_cell_length_b                    18.439976
_cell_length_c                    10.566083
_cell_angle_alpha                 91.514777
_cell_angle_beta                  90.374462
_cell_angle_gamma                 89.576511
_cell_volume                      3724.28238437

loop_
_atom_site_label
_atom_site_type_symbol
_atom_type_description
_atom_site_fract_x
_atom_site_fract_y
_atom_site_fract_z
_atom_type_partial_charge
C1    C     C_R   0.365427 0.500296 0.498328 0.997777
C2    C     C_R   0.634541 0.499749 0.498379 0.927935
C3    C     C_R   0.709578 0.498563 0.479678 -0.283032
C4    C     C_R   0.290007 0.500532 0.482413 -0.263847
C5    C     C_R   0.963125 0.536720 0.509397 0.404718
C6    C     C_R   0.035562 0.541802 0.503133 0.398075
C7    C     C_R   0.072306 0.496289 0.418309 -0.110637
C8    C     C_R   0.927496 0.492948 0.420161 -0.109189
C9    C     C_R   0.037552 0.451515 0.327394 0.010888
C10   C     C_R   0.963383 0.451324 0.326249 0.012302
C11   C     C_R   0.526915 0.727403 0.600903 -0.145917
C12   C     C_R   0.473340 0.724495 0.398549 -0.154998
C13   C     C_R   0.525907 0.804258 0.604879 0.416442
C14   C     C_R   0.474390 0.801179 0.393660 0.402930
C15   C     C_R   0.500194 0.841432 0.499029 -0.007099
C16   C     C_R   0.542917 0.960997 0.416180 0.480392
C17   C     C_R   0.455495 0.962837 0.582434 0.514258
C18   C     C_R   0.541337 0.037541 0.416336 -0.217442
C19   C     C_R   0.456171 0.039223 0.584180 -0.380107
C20   C     C_R   0.498676 0.077188 0.501063 0.145224
C21   C     C_R   0.499858 0.498814 0.261689 1.026617
C22   C     C_R   0.493932 0.501196 0.737769 0.989494
C23   C     C_R   0.499603 0.922857 0.499184 -0.009539
C24   C     C_R   0.544044 0.198173 0.583198 0.286395
C25   C     C_R   0.453013 0.196737 0.420781 0.299170
C26   C     C_R   0.543883 0.275135 0.580281 0.454132
C27   C     C_R   0.455307 0.273689 0.420693 0.432250
C28   C     C_R   0.497822 0.158367 0.503062 -0.203494
C29   C     C_2   0.445802 0.453162 0.930972 0.436250
C30   C     C_2   0.440970 0.465020 0.069526 0.454401
C31   C     C_2   0.476368 0.506504 0.868508 -0.518292
C32   C     C_2   0.496873 0.494200 0.128312 -0.490060
C33   C     C_R   0.739065 0.543481 0.388460 0.473061
C34   C     C_R   0.249596 0.449615 0.546598 0.444372
C35   C     C_R   0.810841 0.540325 0.367431 -0.251356
C36   C     C_R   0.177213 0.448119 0.521869 -0.285850
C37   C     C_R   0.851972 0.490341 0.431460 0.077567
C38   C     C_R   0.147738 0.494190 0.433086 0.099072
C39   C     C_R   0.822658 0.444506 0.519347 -0.267284
C40   C     C_R   0.188095 0.544312 0.371122 -0.275047
C41   C     C_R   0.751668 0.449373 0.546155 0.479698
C42   C     C_R   0.259176 0.549394 0.397568 0.454897
H1    H     H_    0.573954 0.065989 0.350808 0.172329
H2    H     H_    0.422845 0.069050 0.650065 0.166379
H3    H     H_    0.487435 0.558518 0.915297 0.116141
H4    H     H_    0.543552 0.510320 0.078601 0.072112
H5    H     H_    0.834528 0.576978 0.301909 0.156285
H6    H     H_    0.142712 0.412853 0.572239 0.143004
H7    H     H_    0.855356 0.406694 0.570166 0.147585
H8    H     H_    0.164051 0.580160 0.303621 0.139758
H9    H     H_    0.549559 0.697657 0.677978 0.153311
H10   H     H_    0.450828 0.692568 0.321687 0.171390
N1    N     N_R   0.500000 0.689440 0.500000 -0.120100
N2    N     N_R   0.500000 0.310560 0.500000 -0.215346
O1    O     O_R   0.398180 0.560840 0.499970 -0.602705
O2    O     O_R   0.601820 0.560840 0.500030 -0.581817
O3    O     O_R   0.398180 0.439210 0.499910 -0.562690
O4    O     O_R   0.601820 0.439210 0.500090 -0.558099
O5    O     O_R   0.500000 0.560800 0.319070 -0.618306
O6    O     O_R   0.500000 0.560800 0.680930 -0.655464
O7    O     O_R   0.499990 0.439170 0.319010 -0.564534
O8    O     O_R   0.500010 0.439170 0.680990 -0.541327
Zn1   Zn    Zn3+2 0.500000 0.581210 0.500000 0.974572
Zn2   Zn    Zn3+2 0.500000 0.418790 0.500000 1.069235
O9    O     O_3   0.419602 0.392462 0.864801 -0.577342
C43   C     C_3   0.416177 0.330722 0.940674 -0.243237
H11   H     H_    0.368603 0.332389 0.000169 0.206538
H12   H     H_    0.464111 0.323661 0.999666 0.156696
H13   H     H_    0.411699 0.282008 0.877351 0.146706
O10   O     O_3   0.383524 0.443639 0.139085 -0.591175
C44   C     C_3   0.322085 0.474994 0.089232 -0.301455
H14   H     H_    0.308388 0.450683 0.995041 0.189151
H15   H     H_    0.326728 0.534975 0.083310 0.190542
H16   H     H_    0.278221 0.463918 0.153918 0.188763
O11   O     O_3   0.555073 0.844244 0.704990 -0.597381
C45   C     C_3   0.529356 0.821128 0.822116 -0.261853
H17   H     H_    0.558674 0.772665 0.854070 0.139110
H18   H     H_    0.472075 0.810360 0.819004 0.172536
H19   H     H_    0.538068 0.865080 0.894070 0.195998
O12   O     O_3   0.444955 0.838379 0.293504 -0.602127
C46   C     C_3   0.468628 0.809803 0.175982 -0.261214
H20   H     H_    0.437642 0.761521 0.146231 0.138792
H21   H     H_    0.525622 0.796666 0.177176 0.178620
H22   H     H_    0.460171 0.851419 0.103439 0.192451
O13   O     O_3   0.584911 0.923447 0.330739 -0.593289
C47   C     C_3   0.652567 0.917918 0.383435 -0.308924
H23   H     H_    0.652010 0.888476 0.474105 0.183563
H24   H     H_    0.676634 0.972316 0.397879 0.167380
H25   H     H_    0.686020 0.886295 0.316342 0.196850
O14   O     O_3   0.413319 0.927296 0.666016 -0.589863
C48   C     C_3   0.345981 0.921195 0.611927 -0.358084
H26   H     H_    0.347251 0.889845 0.520406 0.176920
H27   H     H_    0.321614 0.975496 0.598570 0.158209
H28   H     H_    0.312364 0.891222 0.677513 0.192482
O15   O     O_3   0.595952 0.163336 0.651381 -0.564614
C49   C     C_3   0.567376 0.129424 0.757687 -0.275430
H29   H     H_    0.513717 0.148448 0.783978 0.121855
H30   H     H_    0.601897 0.140464 0.840623 0.172993
H31   H     H_    0.567311 0.069794 0.740961 0.205300
O16   O     O_3   0.413590 0.160371 0.329019 -0.562206
C50   C     C_3   0.355399 0.126832 0.384447 -0.312635
H32   H     H_    0.309603 0.132980 0.320578 0.169076
H33   H     H_    0.340328 0.150335 0.478926 0.118713
H34   H     H_    0.365447 0.067784 0.391605 0.195198
O17   O     O_3   0.592683 0.315761 0.648077 -0.509613
C51   C     C_3   0.585541 0.306687 0.779714 -0.112851
H35   H     H_    0.534624 0.283470 0.807972 0.101356
H36   H     H_    0.589987 0.360502 0.828348 0.149495
H37   H     H_    0.629024 0.272264 0.814536 0.170346
O18   O     O_3   0.418174 0.312721 0.332027 -0.534086
C52   C     C_3   0.345421 0.305785 0.349963 -0.147037
H38   H     H_    0.319665 0.357743 0.325819 0.182150
H39   H     H_    0.330722 0.293917 0.449144 0.118812
H40   H     H_    0.324257 0.263785 0.283543 0.161576
O19   O     O_3   0.698065 0.592368 0.323536 -0.570261
C53   C     C_3   0.685371 0.563715 0.200544 -0.328147
H41   H     H_    0.648074 0.600136 0.151862 0.192684
H42   H     H_    0.661069 0.509053 0.203045 0.131720
H43   H     H_    0.734235 0.561282 0.143974 0.150062
O20   O     O_3   0.283106 0.407796 0.637812 -0.573532
C54   C     C_3   0.245865 0.345303 0.670346 -0.312526
H44   H     H_    0.227036 0.314257 0.585173 0.126357
H45   H     H_    0.202068 0.359941 0.734902 0.167012
H46   H     H_    0.281777 0.309086 0.722648 0.194972
O21   O     O_3   0.723469 0.405161 0.635939 -0.543663
C55   C     C_3   0.733045 0.438892 0.756110 -0.296878
H47   H     H_    0.703222 0.490889 0.763696 0.138562
H48   H     H_    0.789391 0.448141 0.777824 0.142566
H49   H     H_    0.712830 0.402553 0.829124 0.177350
O22   O     O_3   0.300001 0.596855 0.331083 -0.601684
C56   C     C_3   0.285312 0.668501 0.373686 -0.282715
H50   H     H_    0.295177 0.675410 0.477284 0.169415
H51   H     H_    0.230834 0.685025 0.350134 0.142466
H52   H     H_    0.320620 0.705836 0.324596 0.187557
O23   O     O_3   0.925826 0.577855 0.597971 -0.587724
C57   C     C_3   0.932994 0.546433 0.717837 -0.277783
H53   H     H_    0.985113 0.558250 0.760130 0.205558
H54   H     H_    0.924058 0.486812 0.714081 0.125900
H55   H     H_    0.893066 0.570916 0.781890 0.174283
O24   O     O_3   0.071637 0.586249 0.588282 -0.594104
C58   C     C_3   0.069319 0.657863 0.544714 -0.284189
H56   H     H_    0.015308 0.680517 0.548422 0.198120
H57   H     H_    0.090418 0.661265 0.447131 0.134327
H58   H     H_    0.102587 0.692303 0.607787 0.180119
C59   C     C_3   0.079900 0.404377 0.234591 -0.378816
C60   C     C_3   0.097876 0.445963 0.115276 -0.332035
C61   C     C_3   0.136427 0.397450 0.019059 -0.928335
H59   H     H_    0.185188 0.375374 0.061403 0.258442
H60   H     H_    0.102558 0.351787 0.986925 0.259697
H61   H     H_    0.150446 0.429566 0.935605 0.260284
H62   H     H_    0.049438 0.467172 0.070447 0.214045
H63   H     H_    0.131590 0.492866 0.140670 0.222066
H64   H     H_    0.128949 0.385039 0.279828 0.191351
H65   H     H_    0.051643 0.353972 0.207893 0.200199
C62   C     C_3   0.922185 0.407207 0.227625 -0.383849
C63   C     C_3   0.905633 0.331201 0.274500 -0.334649
C64   C     C_3   0.867130 0.286324 0.173054 -0.884629
H66   H     H_    0.817069 0.313294 0.147312 0.260178
H67   H     H_    0.899994 0.279437 0.087202 0.257072
H68   H     H_    0.855433 0.231880 0.209704 0.256028
H69   H     H_    0.954602 0.302347 0.300629 0.211472
H70   H     H_    0.872343 0.335406 0.359971 0.234369
H71   H     H_    0.872628 0.435613 0.203604 0.193336
H72   H     H_    0.950714 0.402958 0.136724 0.197347

loop_
_geom_bond_atom_site_label_1
_geom_bond_atom_site_label_2
_ccdc_geom_bond_type
C43   H12   S    
C64   H66   S    
C11   C13   A    
O15   C49   S    
C45   H19   S    
C56   H52   S    
C35   H5    S    
C59   C60   S    
C27   N2    A    
O23   C57   S    
C39   C41   A    
O13   C47   S    
C19   H2    S    
C25   C28   A    
C17   C23   A    
N2    Zn2   S    
O6    Zn1   S    
C63   C64   S    
C61   H60   S    
C24   C26   A    
C21   O5    A    
C58   H57   S    
C22   O6    A    
C5    C6    A    
C47   H24   S    
C43   H13   S    
C22   O8    A    
C51   H35   S    
C3    C33   A    
O19   C53   S    
C49   H31   S    
C53   H41   S    
C5    O23   S    
O18   C52   S    
C54   H46   S    
O8    Zn2   S    
C61   H59   S    
C30   O10   S    
C13   O11   S    
C27   O18   S    
C49   H30   S    
C36   H6    S    
O10   C44   S    
C44   H16   S    
C14   O12   S    
C30   C32   D    
C9    C10   A    
C21   O7    A    
C12   N1    A    
C11   N1    A    
C59   H64   S    
C15   C23   S    
C51   H36   S    
C40   C42   A    
C43   H11   S    
C63   H70   S    
C64   H67   S    
O4    Zn2   S    
C57   H55   S    
C26   N2    A    
C26   O17   S    
C12   H10   S    
C46   H20   S    
C34   O20   S    
C21   C32   S    
C4    C34   A    
C33   O19   S    
C22   C31   S    
C50   H32   S    
C41   O21   S    
C61   H61   S    
O24   C58   S    
C57   H54   S    
C58   H58   S    
C48   H26   S    
C44   H15   S    
C47   H23   S    
O12   C46   S    
C20   C28   S    
C55   H49   S    
C62   H71   S    
O1    Zn1   S    
O7    Zn2   S    
O11   C45   S    
C29   C30   S    
C1    O3    A    
C48   H27   S    
C25   O16   S    
C29   C31   D    
C49   H29   S    
O2    Zn1   S    
C52   H39   S    
C45   H17   S    
C54   H44   S    
C29   O9    S    
C59   H65   S    
C16   C18   A    
C39   H7    S    
C12   C14   A    
C63   H69   S    
C16   C23   A    
C13   C15   A    
C16   O13   S    
C60   H63   S    
C24   O15   S    
C25   C27   A    
C8    C37   S    
C17   C19   A    
C56   H50   S    
C46   H22   S    
O20   C54   S    
O3    Zn2   S    
C60   C61   S    
C50   H33   S    
C7    C9    A    
C3    C41   A    
C55   H48   S    
C52   H38   S    
C35   C37   A    
C32   H4    S    
C17   O14   S    
C24   C28   A    
C45   H18   S    
C57   H53   S    
C56   H51   S    
C47   H25   S    
C10   C62   S    
C46   H21   S    
C5    C8    A    
C2    O4    A    
C6    C7    A    
C62   H72   S    
C64   H68   S    
O17   C51   S    
O5    Zn1   S    
C42   O22   S    
C53   H43   S    
C1    C4    S    
C19   C20   A    
C36   C38   A    
O22   C56   S    
C1    O1    A    
C44   H14   S    
C37   C39   A    
C2    O2    A    
C58   H56   S    
C48   H28   S    
C38   C40   A    
N1    Zn1   S    
O14   C48   S    
O21   C55   S    
C4    C42   A    
C55   H47   S    
C40   H8    S    
C9    C59   S    
O16   C50   S    
C33   C35   A    
C7    C38   S    
C53   H42   S    
C2    C3    S    
C52   H40   S    
C18   C20   A    
C6    O24   S    
C54   H45   S    
C11   H9    S    
C60   H62   S    
C34   C36   A    
C8    C10   A    
O9    C43   S    
C31   H3    S    
C62   C63   S    
C14   C15   A    
C50   H34   S    
C18   H1    S    
C51   H37   S    
