data_mof_unit_6052.cif
_audit_creation_date              2013-03-05T16:44:17-0500
_audit_creation_method            fapswitch 2.2
_symmetry_space_group_name_H-M    P1
_symmetry_Int_Tables_number       1
_space_group_crystal_system       triclinic
_cell_length_a                    23.43996
_cell_length_b                    10.606409
_cell_length_c                    9.839125
_cell_angle_alpha                 89.836626
_cell_angle_beta                  90.047556
_cell_angle_gamma                 90.02605
_cell_volume                      2446.13124449

loop_
_atom_site_label
_atom_site_type_symbol
_atom_site_description
_atom_site_fract_x
_atom_site_fract_y
_atom_site_fract_z
_atom_type_partial_charge
O1    O     O_R   0.500010 0.316790 0.614690 -0.610244
O2    O     O_R   0.500000 0.316760 0.385350 -0.627637
C1    C     C_R   0.498722 0.259181 0.499841 0.918199
O3    O     O_R   0.416160 0.499980 0.614700 -0.640604
O4    O     O_R   0.416150 0.499940 0.385360 -0.605816
C2    C     C_R   0.389270 0.500210 0.500023 0.861877
Zn1   Zn    Zn3+2 0.500000 0.500020 0.653130 0.934404
Zn2   Zn    Zn3+2 0.500000 0.499980 0.346870 0.993137
O5    O     O_R   0.500000 0.683240 0.614650 -0.642693
O6    O     O_R   0.499990 0.683210 0.385310 -0.558304
O7    O     O_R   0.583850 0.500060 0.614640 -0.618353
O8    O     O_R   0.583840 0.500020 0.385300 -0.626741
C3    C     C_R   0.492561 0.739111 0.499105 0.905628
C4    C     C_R   0.610711 0.500373 0.500039 0.881741
C5    C     C_R   0.879649 0.621731 0.515002 0.511134
N1    N     N_R   0.852149 0.508966 0.501436 -0.359983
C6    C     C_R   0.881015 0.397939 0.488665 0.500249
C7    C     C_R   0.940573 0.397539 0.489073 -0.003869
C8    C     C_R   0.970010 0.513079 0.502701 -0.022652
C9    C     C_R   0.939300 0.625952 0.515831 -0.046060
C10   C     C_R   0.971046 0.284691 0.476260 -0.165101
C11   C     C_R   0.030191 0.286032 0.476726 -0.187838
C12   C     C_R   0.059941 0.400195 0.490192 0.004866
C13   C     C_R   0.030055 0.515245 0.503075 -0.045434
C14   C     C_R   0.059945 0.631404 0.515897 -0.049575
C15   C     C_R   0.028059 0.745789 0.530648 0.096542
C16   C     C_R   0.968317 0.740256 0.529878 -0.188445
C17   C     C_R   0.119210 0.401588 0.491089 0.495627
N2    N     N_R   0.147684 0.513077 0.501363 -0.353478
C18   C     C_R   0.120255 0.626314 0.512122 0.485911
O9    O     O_2   0.849211 0.729168 0.526910 -0.548921
O10   O     O_2   0.852015 0.288553 0.476317 -0.547837
H1    H     H_    0.949356 0.195030 0.465683 0.189723
H2    H     H_    0.052511 0.197228 0.465885 0.184639
O11   O     O_2   0.148528 0.292309 0.482259 -0.572274
O12   O     O_2   0.151940 0.732125 0.517169 -0.576916
H3    H     H_    0.944118 0.826589 0.541739 0.192136
C19   C     C_R   0.238404 0.536298 0.620219 -0.104952
H4    H     H_    0.215791 0.558687 0.713020 0.133680
C20   C     C_R   0.297562 0.532189 0.620067 -0.229554
H5    H     H_    0.320105 0.552669 0.713117 0.154397
C21   C     C_R   0.327057 0.502945 0.500224 -0.029852
C22   C     C_R   0.296602 0.477515 0.380592 -0.204815
H6    H     H_    0.318282 0.453295 0.287502 0.152246
C23   C     C_R   0.237436 0.481673 0.380816 -0.100714
H7    H     H_    0.214041 0.461741 0.288353 0.138259
C24   C     C_R   0.208407 0.510979 0.500616 0.330458
C25   C     C_R   0.762264 0.490604 0.378517 -0.098826
H8    H     H_    0.785503 0.479867 0.284139 0.138595
C26   C     C_R   0.703051 0.488383 0.377959 -0.209461
H9    H     H_    0.680991 0.475638 0.282169 0.162523
C27   C     C_R   0.672910 0.502057 0.500336 -0.042973
C28   C     C_R   0.702679 0.518182 0.623026 -0.211172
H10   H     H_    0.680334 0.529364 0.718587 0.162033
C29   C     C_R   0.761872 0.520839 0.623104 -0.100555
H11   H     H_    0.784801 0.533361 0.717748 0.138265
C30   C     C_R   0.791522 0.506977 0.500974 0.321472
C31   C     C_R   0.471121 0.063128 0.613072 0.087833
C32   C     C_R   0.487111 0.127573 0.496557 -0.157526
C33   C     C_R   0.482988 0.065740 0.371266 -0.295534
H12   H     H_    0.487737 0.116334 0.276075 0.201161
C34   C     C_R   0.475691 0.935963 0.367997 0.335538
C35   C     C_R   0.475022 0.869047 0.493542 -0.252775
C36   C     C_R   0.461792 0.936293 0.611638 0.056889
C37   C     C_3   0.475152 0.925458 0.761022 -0.081782
C38   C     C_3   0.490243 0.065925 0.757096 -0.476764
H13   H     H_    0.512051 0.863908 0.786381 0.191878
H14   H     H_    0.463027 0.127523 0.821052 0.196725
H15   H     H_    0.536831 0.083866 0.766217 0.202072
C39   C     C_R   0.470281 0.410248 0.071453 0.217265
N3    N     N_R   0.499610 0.499140 0.142800 -0.106248
C40   C     C_R   0.533878 0.580370 0.071915 -0.043197
H16   H     H_    0.560167 0.647164 0.126368 0.172565
C41   C     C_R   0.534049 0.580080 0.927720 -0.165909
H17   H     H_    0.560359 0.646865 0.873007 0.155789
N4    N     N_R   0.499610 0.499180 0.857150 -0.119670
C42   C     C_R   0.470583 0.409652 0.928677 0.219141
C43   C     C_3   0.407995 0.386551 0.921988 -0.510977
C44   C     C_3   0.407466 0.389463 0.076002 -0.511863
H18   H     H_    0.384485 0.466078 0.875004 0.216379
H19   H     H_    0.397515 0.292426 0.879576 0.198572
H20   H     H_    0.384398 0.472622 0.116613 0.227069
H21   H     H_    0.396116 0.297401 0.123015 0.203261
N5    N     N_R   0.472694 0.874818 0.238226 0.209591
O13   O     O_R   0.430639 0.798684 0.211455 -0.417841
O14   O     O_R   0.507485 0.907369 0.141273 -0.455671
C45   C     C_3   0.420957 0.902838 0.846964 -0.356405
C46   C     C_3   0.401255 0.765361 0.846376 -0.298008
C47   C     C_3   0.344344 0.751477 0.920673 -0.858486
H22   H     H_    0.346970 0.792661 0.024124 0.303368
H23   H     H_    0.309970 0.799877 0.862792 0.258833
H24   H     H_    0.333009 0.650450 0.931136 0.233158
H25   H     H_    0.396130 0.731767 0.740220 0.231895
H26   H     H_    0.433568 0.706387 0.898525 0.253655
H27   H     H_    0.429806 0.931457 0.953344 0.263184
H28   H     H_    0.385596 0.963692 0.808977 0.205085
C48   C     C_3   0.054226 0.875704 0.550632 -0.348090
C49   C     C_3   0.075214 0.893119 0.697316 -0.324225
C50   C     C_3   0.104255 0.020752 0.715652 -0.795133
H29   H     H_    0.141233 0.029620 0.645707 0.294335
H30   H     H_    0.073592 0.098318 0.695214 0.256532
H31   H     H_    0.119806 0.029632 0.821826 0.244092
H32   H     H_    0.038220 0.887206 0.767735 0.213788
H33   H     H_    0.105668 0.817563 0.726266 0.253235
H34   H     H_    0.088026 0.894620 0.474559 0.251266
H35   H     H_    0.021974 0.950413 0.530279 0.165860

loop_
_geom_bond_atom_site_label_1
_geom_bond_atom_site_label_2
_geom_bond_distance
_ccdc_geom_bond_type
C38   H14   1.110489 S    
C45   C46   1.529343 S    
C7    C10   1.400171 A    
C8    C9    1.403532 A    
C29   H11   1.083270 S    
C48   C49   1.536020 S    
C25   C30   1.397117 A    
C42   C43   1.488696 S    
Zn1   O7    2.001902 S    
C15   C16   1.401565 A    
N2    C18   1.366963 A    
C41   N4    1.368170 A    
N2    C24   1.423563 S    
C33   C34   1.387434 A    
C17   N2    1.361554 A    
N5    O14   1.301289 A    
C19   H4    1.083156 S    
O7    C4    1.291901 A    
C43   H18   1.107546 S    
C38   H15   1.111986 S    
C10   H1    1.083380 S    
C49   H32   1.112024 S    
C6    C7    1.396048 A    
C7    C8    1.412749 A    
C23   C24   1.397365 A    
O5    C3    1.292262 A    
C31   C38   1.486285 S    
C4    C27   1.458060 S    
C17   O11   1.350792 S    
N1    C6    1.364570 A    
C37   H13   1.111643 S    
C45   H27   1.110004 S    
C26   C27   1.404462 A    
C12   C13   1.413386 A    
C13   C14   1.422900 A    
C39   N3    1.362607 A    
C47   H23   1.111296 S    
C48   H34   1.108239 S    
C20   C21   1.402934 A    
C32   C33   1.401250 A    
C10   C11   1.386422 A    
C39   C42   1.404845 A    
O3    Zn1   2.000943 S    
C37   C45   1.544880 S    
C28   C29   1.387759 A    
C31   C36   1.362936 A    
C5    C9    1.398940 A    
C11   H2    1.083227 S    
C46   H26   1.107315 S    
C41   H17   1.081594 S    
N5    O13   1.301255 A    
C40   C41   1.418776 A    
C43   C44   1.515821 S    
C14   C15   1.433030 A    
C28   H10   1.083481 S    
C33   H12   1.083888 S    
O1    C1    1.286493 A    
C22   H6    1.079526 S    
C34   C35   1.422969 A    
C44   H20   1.110318 S    
C50   H29   1.110994 S    
C3    C35   1.439229 S    
Zn2   O8    2.000941 S    
C45   H28   1.114412 S    
C26   H9    1.083420 S    
C12   C17   1.389339 A    
N4    C42   1.362460 A    
C47   H24   1.108387 S    
C22   C23   1.387588 A    
C19   C24   1.396995 A    
C48   H35   1.113063 S    
O3    C2    1.291977 A    
C25   H8    1.083276 S    
C50   H30   1.110491 S    
O8    C4    1.292304 A    
C49   C50   1.526062 S    
C29   C30   1.396815 A    
C21   C22   1.402878 A    
C27   C28   1.404651 A    
C14   C18   1.415250 A    
Zn1   O5    1.978786 S    
C34   N5    1.435405 S    
C46   H25   1.110946 S    
C20   H5    1.079264 S    
Zn2   N3    2.007929 S    
C39   C44   1.489387 S    
O1    Zn1   1.980932 S    
O2    Zn2   1.978784 S    
C40   H16   1.081617 S    
O6    C3    1.280494 A    
O4    Zn2   2.001902 S    
C5    O9    1.350146 S    
Zn1   N4    2.007401 S    
C9    C16   1.396983 A    
C18   O12   1.346491 S    
C36   C37   1.506621 S    
O2    C1    1.280217 A    
C31   C32   1.384900 A    
N3    C40   1.367761 A    
C19   C20   1.387354 A    
C43   H19   1.110470 S    
O4    C2    1.292673 A    
C16   H3    1.083995 S    
C49   H33   1.109863 S    
C25   C26   1.388125 A    
C8    C13   1.407624 A    
N1    C30   1.421238 S    
C15   C48   1.521224 S    
C35   C36   1.400197 A    
C44   H21   1.111568 S    
C23   H7    1.083149 S    
C50   H31   1.110388 S    
C46   C47   1.528555 S    
Zn2   O6    1.980933 S    
C37   C38   1.531495 S    
C2    C21   1.458573 S    
C6    O10   1.350127 S    
C11   C12   1.403573 A    
C47   H22   1.110440 S    
C5    N1    1.365245 A    
C1    C32   1.422497 S    
