data_mof_unit_45725.cif
_audit_creation_date              2012-12-10T16:44:16-0500
_audit_creation_method            fapswitch 2.2
_symmetry_space_group_name_H-M    P1
_symmetry_Int_Tables_number       1
_space_group_crystal_system       triclinic
_cell_length_a                    7.463208
_cell_length_b                    8.739569
_cell_length_c                    13.439742
_cell_angle_alpha                 94.739242
_cell_angle_beta                  78.081399
_cell_angle_gamma                 101.608948
_cell_volume                      839.395223015

loop_
_atom_site_label
_atom_site_type_symbol
_atom_type_description
_atom_site_fract_x
_atom_site_fract_y
_atom_site_fract_z
_atom_type_partial_charge
C1    C     C_R   0.544281 0.798657 0.499472 0.895234
C2    C     C_R   0.416735 0.503901 0.975226 0.076023
C3    C     C_R   0.464629 0.550333 0.872825 0.082954
C4    C     C_R   0.555302 0.539467 0.036870 0.068495
C5    C     C_R   0.732315 0.630701 0.998087 0.154736
C6    C     C_R   0.768162 0.688756 0.901541 -0.238144
C7    C     C_R   0.635565 0.652363 0.840527 -0.204161
C8    C     C_R   0.523917 0.487913 0.136112 -0.245611
C9    C     C_R   0.833212 0.619543 0.156974 -0.195077
C10   C     C_R   0.338921 0.495347 0.805868 -0.100626
C11   C     C_2   0.569004 0.960407 0.479875 -0.286093
C12   C     C_R   0.400506 0.498808 0.694192 0.756665
C13   C     C_2   0.434912 0.040353 0.523969 0.242267
C14   C     C_R   0.457053 0.201477 0.499470 0.748029
C15   C     C_R   0.599999 0.509960 0.306458 0.794101
C16   C     C_R   0.870579 0.667439 0.057489 -0.176990
C17   C     C_R   0.657700 0.533543 0.197338 -0.048466
C18   C     C_R   0.156506 0.420199 0.845575 -0.201827
C19   C     C_R   0.103149 0.388214 0.947987 -0.146383
C20   C     C_R   0.231770 0.425891 0.011922 -0.189941
Cu1   Cu    Cu3+1 0.321300 0.483160 0.488710 0.978974
Cu2   Cu    Cu3+1 0.678700 0.516840 0.511290 0.954458
H1    H     H_    0.938020 0.655799 0.203524 0.165238
H2    H     H_    0.995047 0.391918 0.415080 0.239100
H3    H     H_    0.899835 0.763232 0.873532 0.164765
H4    H     H_    0.005974 0.736916 0.027803 0.148636
H5    H     H_    0.394580 0.414598 0.168949 0.150814
H6    H     H_    0.056147 0.380765 0.796698 0.161401
H7    H     H_    0.180145 0.395671 0.090085 0.138484
H8    H     H_    0.962085 0.329581 0.977580 0.157742
H9    H     H_    0.667598 0.708789 0.768768 0.171696
N1    N     N_2   0.947230 0.542220 0.528320 -0.209365
N2    N     N_2   0.052770 0.457780 0.471680 -0.237971
O1    O     O_R   0.383920 0.714220 0.492660 -0.556676
O2    O     O_R   0.685730 0.742660 0.511730 -0.596132
O3    O     O_R   0.275440 0.478800 0.636790 -0.597435
O4    O     O_R   0.577250 0.507240 0.655860 -0.605570
O5    O     O_R   0.314270 0.257340 0.488270 -0.564989
O6    O     O_R   0.616080 0.285780 0.507340 -0.601234
O7    O     O_R   0.422750 0.492760 0.344140 -0.587502
O8    O     O_R   0.724560 0.521200 0.363210 -0.593803
O9    O     O_3   0.297996 0.978882 0.605604 -0.567297
C21   C     C_3   0.301081 0.084813 0.691525 0.094338
H10   H     H_    0.232772 0.182788 0.682118 0.160816
H11   H     H_    0.446311 0.131358 0.703112 0.131833
C22   C     C_3   0.193147 0.005341 0.787774 -0.803172
H12   H     H_    0.246940 0.898960 0.797338 0.258040
H13   H     H_    0.208955 0.086303 0.854852 0.210288
H14   H     H_    0.043192 0.975503 0.783656 0.246288
C23   C     C_1   0.008136 0.627026 0.610122 0.616300
N3    N     N_1   0.055921 0.697949 0.679438 -0.335398
C24   C     C_1   0.727834 0.022890 0.402284 0.212174
N4    N     N_1   0.854290 0.072217 0.340395 -0.290027

loop_
_geom_bond_atom_site_label_1
_geom_bond_atom_site_label_2
_ccdc_geom_bond_type
C2    C4    A    
C21   H10   S    
C6    C7    A    
Cu1   O1    S    
H2    N2    S    
C14   O5    A    
C11   C13   D    
C8    C17   A    
C1    C11   S    
C4    C8    A    
N1    N2    D    
C12   O3    A    
Cu2   O4    S    
C2    C3    A    
C18   H6    S    
Cu1   O3    S    
Cu1   Cu2   S    
Cu2   O2    S    
C21   H11   S    
C22   H14   S    
N1    C23   S    
Cu1   O7    S    
Cu2   N1    S    
C10   C18   A    
Cu2   O6    S    
C10   C12   S    
C9    C17   A    
C13   O9    S    
C9    C16   A    
C1    O1    A    
C23   N3    T    
C3    C7    A    
C20   H7    S    
C16   H4    S    
C5    C6    A    
C21   C22   S    
C22   H13   S    
C15   O7    A    
C6    H3    S    
Cu1   N2    S    
O9    C21   S    
C2    C20   A    
Cu2   O8    S    
C7    H9    S    
C24   N4    T    
C15   O8    A    
C15   C17   S    
C18   C19   A    
C12   O4    A    
C3    C10   A    
C1    O2    A    
C22   H12   S    
C8    H5    S    
C5    C16   A    
C11   C24   S    
C14   O6    A    
C13   C14   S    
C19   H8    S    
C9    H1    S    
Cu1   O5    S    
C19   C20   A    
C4    C5    A    
