data_mof_unit_38204.cif
_audit_creation_date              2013-03-05T15:40:29-0500
_audit_creation_method            fapswitch 2.2
_symmetry_space_group_name_H-M    P1
_symmetry_Int_Tables_number       1
_space_group_crystal_system       triclinic
_cell_length_a                    27.630785
_cell_length_b                    27.560837
_cell_length_c                    27.64338
_cell_angle_alpha                 89.969225
_cell_angle_beta                  89.802083
_cell_angle_gamma                 89.678694
_cell_volume                      21050.736344

loop_
_atom_site_label
_atom_site_type_symbol
_atom_site_description
_atom_site_fract_x
_atom_site_fract_y
_atom_site_fract_z
_atom_type_partial_charge
C1    C     C_R   0.792343 0.273732 0.269640 0.281568
C2    C     C_R   0.217339 0.722951 0.726696 0.333302
C3    C     C_R   0.728299 0.793569 0.267948 0.289268
C4    C     C_R   0.272622 0.218877 0.721705 0.310360
C5    C     C_R   0.217134 0.722243 0.271471 0.307394
C6    C     C_R   0.781508 0.275670 0.721332 0.304524
C7    C     C_R   0.275606 0.216665 0.273751 0.309286
C8    C     C_R   0.731346 0.793988 0.729001 0.287052
C9    C     C_R   0.783150 0.725495 0.725640 0.311460
C10   C     C_R   0.206824 0.268064 0.271337 0.287830
C11   C     C_R   0.721125 0.216434 0.726895 0.318203
C12   C     C_R   0.274374 0.784957 0.274572 0.313086
C13   C     C_R   0.206049 0.272186 0.731874 0.290807
C14   C     C_R   0.782478 0.727785 0.278689 0.313146
C15   C     C_R   0.279233 0.780882 0.728424 0.301058
C16   C     C_R   0.728691 0.217553 0.279919 0.314973
C17   C     C_R   0.268156 0.728002 0.795000 0.293449
C18   C     C_R   0.723486 0.277066 0.219375 0.306775
C19   C     C_R   0.271067 0.278667 0.215624 0.315967
C20   C     C_R   0.720502 0.728469 0.783121 0.315272
C21   C     C_R   0.724873 0.725111 0.216517 0.308511
C22   C     C_R   0.273294 0.276412 0.784095 0.330905
C23   C     C_R   0.731085 0.273052 0.790269 0.278687
C24   C     C_R   0.272068 0.733011 0.206500 0.290336
N1    N     N_R   0.772490 0.235301 0.293283 -0.054509
N2    N     N_R   0.241979 0.759285 0.705245 -0.085472
N3    N     N_R   0.765402 0.772073 0.292221 -0.056293
N4    N     N_R   0.228478 0.235461 0.707616 -0.056469
N5    N     N_R   0.237748 0.759899 0.295130 -0.068902
N6    N     N_R   0.757618 0.237706 0.702047 -0.062822
N7    N     N_R   0.231940 0.230714 0.291340 -0.071559
N8    N     N_R   0.769042 0.769475 0.708785 -0.071543
N9    N     N_R   0.291662 0.770823 0.230862 -0.069314
N10   N     N_R   0.707654 0.234556 0.770638 -0.055686
N11   N     N_R   0.292545 0.764771 0.773027 -0.054399
N12   N     N_R   0.704095 0.239130 0.243403 -0.068241
N13   N     N_R   0.295161 0.239979 0.759592 -0.082387
N14   N     N_R   0.708180 0.769274 0.230411 -0.069549
N15   N     N_R   0.295439 0.241326 0.236398 -0.067730
N16   N     N_R   0.706883 0.772675 0.766040 -0.054641
N17   N     N_R   0.229257 0.292515 0.769848 -0.065892
N18   N     N_R   0.761418 0.704126 0.241426 -0.069586
N19   N     N_R   0.767545 0.293534 0.764705 -0.071659
N20   N     N_R   0.234775 0.708634 0.227481 -0.055473
N21   N     N_R   0.766864 0.294594 0.233224 -0.069533
N22   N     N_R   0.230856 0.707321 0.771025 -0.063522
N23   N     N_R   0.227184 0.292276 0.233583 -0.055094
N24   N     N_R   0.758193 0.704741 0.762248 -0.068495
C25   C     C_R   0.440758 0.079198 0.385209 -0.126948
C26   C     C_R   0.559721 0.922194 0.615469 -0.117432
C27   C     C_R   0.924678 0.439956 0.383790 -0.140269
C28   C     C_R   0.078024 0.558860 0.615141 -0.062206
C29   C     C_R   0.560390 0.922874 0.384516 -0.104952
C30   C     C_R   0.442277 0.081499 0.613801 -0.127311
C31   C     C_R   0.079995 0.558137 0.385516 -0.108885
C32   C     C_R   0.918524 0.442282 0.613680 -0.131556
C33   C     C_R   0.441756 0.919980 0.614424 -0.110982
C34   C     C_R   0.558781 0.080459 0.385763 -0.138340
C35   C     C_R   0.920679 0.559412 0.614736 -0.126854
C36   C     C_R   0.077854 0.439956 0.384521 -0.113483
C37   C     C_R   0.558197 0.079255 0.614734 -0.111402
C38   C     C_R   0.441535 0.921844 0.384711 -0.053270
C39   C     C_R   0.077235 0.439980 0.615384 -0.096255
C40   C     C_R   0.918263 0.557449 0.386432 -0.142499
C41   C     C_R   0.385303 0.442351 0.079781 -0.098796
C42   C     C_R   0.614009 0.558245 0.919004 -0.127698
C43   C     C_R   0.385040 0.921615 0.440265 -0.125113
C44   C     C_R   0.614331 0.080003 0.558681 -0.119647
C45   C     C_R   0.384035 0.560338 0.923981 -0.110962
C46   C     C_R   0.613531 0.442205 0.081571 -0.128186
C47   C     C_R   0.386090 0.081336 0.557964 -0.094763
C48   C     C_R   0.615294 0.921030 0.441264 -0.139298
C49   C     C_R   0.615846 0.440150 0.923285 -0.125945
C50   C     C_R   0.384428 0.559748 0.077994 -0.116673
C51   C     C_R   0.616299 0.924541 0.560395 -0.141093
C52   C     C_R   0.384751 0.078533 0.441259 -0.049494
C53   C     C_R   0.614563 0.559085 0.079258 -0.127548
C54   C     C_R   0.384866 0.441162 0.922058 -0.084361
C55   C     C_R   0.614535 0.079644 0.441936 -0.110304
C56   C     C_R   0.386105 0.918969 0.558191 -0.139331
C57   C     C_R   0.075723 0.383604 0.439861 -0.141443
C58   C     C_R   0.921349 0.615301 0.558601 -0.045361
C59   C     C_R   0.440875 0.384991 0.921329 -0.127296
C60   C     C_R   0.558187 0.615003 0.078926 -0.078080
C61   C     C_R   0.917766 0.386727 0.556963 -0.095750
C62   C     C_R   0.080821 0.614063 0.441721 -0.146228
C63   C     C_R   0.557070 0.386641 0.082411 -0.105085
C64   C     C_R   0.440208 0.615707 0.922332 -0.117252
C65   C     C_R   0.918737 0.613989 0.442244 -0.088695
C66   C     C_R   0.079282 0.384856 0.558620 -0.135551
C67   C     C_R   0.557509 0.614324 0.919506 -0.096737
C68   C     C_R   0.440734 0.385393 0.079728 -0.124474
C69   C     C_R   0.078558 0.614982 0.559388 -0.128663
C70   C     C_R   0.922637 0.384414 0.439901 -0.120907
C71   C     C_R   0.439827 0.615908 0.076695 -0.106595
C72   C     C_R   0.559574 0.384874 0.921189 -0.124288
H1    H     H_    0.458890 0.080688 0.350689 0.112893
H2    H     H_    0.540594 0.921166 0.649409 0.177813
H3    H     H_    0.928812 0.456600 0.348680 0.162079
H4    H     H_    0.076438 0.541038 0.649721 0.120269
H5    H     H_    0.544000 0.925474 0.349186 0.144081
H6    H     H_    0.460343 0.083415 0.648252 0.170392
H7    H     H_    0.079826 0.541005 0.350394 0.152036
H8    H     H_    0.918447 0.458755 0.649091 0.086596
H9    H     H_    0.458730 0.920239 0.649545 0.153758
H10   H     H_    0.541118 0.082246 0.351048 0.152486
H11   H     H_    0.919202 0.541405 0.649286 0.106011
H12   H     H_    0.078855 0.458605 0.350292 0.176661
H13   H     H_    0.541221 0.078665 0.649969 0.142611
H14   H     H_    0.459583 0.922875 0.350161 0.108825
H15   H     H_    0.074283 0.456544 0.650662 0.149873
H16   H     H_    0.915992 0.538947 0.352123 0.170165
H17   H     H_    0.350309 0.459981 0.079769 0.143591
H18   H     H_    0.648740 0.540191 0.916965 0.166321
H19   H     H_    0.350361 0.920583 0.458116 0.117517
H20   H     H_    0.649097 0.081523 0.540869 0.168395
H21   H     H_    0.348891 0.543699 0.927310 0.147095
H22   H     H_    0.648910 0.458594 0.081586 0.087676
H23   H     H_    0.351024 0.082360 0.540843 0.118805
H24   H     H_    0.649131 0.919562 0.460477 0.176232
H25   H     H_    0.650957 0.456741 0.926673 0.166051
H26   H     H_    0.350016 0.541578 0.078567 0.173973
H27   H     H_    0.651410 0.928871 0.543814 0.168541
H28   H     H_    0.349758 0.077146 0.458450 0.092428
H29   H     H_    0.648996 0.540731 0.080610 0.122544
H30   H     H_    0.350213 0.459043 0.923788 0.122163
H31   H     H_    0.649575 0.079243 0.459118 0.144438
H32   H     H_    0.351912 0.916688 0.539699 0.157068
H33   H     H_    0.071698 0.348423 0.456501 0.162654
H34   H     H_    0.922775 0.650284 0.541356 0.096466
H35   H     H_    0.459565 0.350749 0.920461 0.139006
H36   H     H_    0.540193 0.649707 0.078087 0.114003
H37   H     H_    0.915387 0.352352 0.538644 0.111446
H38   H     H_    0.082787 0.648556 0.459961 0.154975
H39   H     H_    0.538948 0.352221 0.084854 0.109892
H40   H     H_    0.458550 0.650069 0.921747 0.175386
H41   H     H_    0.917913 0.649229 0.459304 0.119450
H42   H     H_    0.080929 0.350961 0.539311 0.175415
H43   H     H_    0.540054 0.649473 0.919278 0.145633
H44   H     H_    0.457799 0.350080 0.080590 0.148015
H45   H     H_    0.079216 0.649272 0.540986 0.136472
H46   H     H_    0.922048 0.349879 0.458119 0.161276
H47   H     H_    0.456467 0.651185 0.074086 0.141812
H48   H     H_    0.540964 0.350695 0.919766 0.159371
C73   C     C_R   0.860893 0.279716 0.329842 0.206646
C74   C     C_R   0.143543 0.715147 0.674309 0.154140
C75   C     C_R   0.721749 0.860294 0.330412 0.198062
C76   C     C_R   0.304505 0.194277 0.640688 0.219428
C77   C     C_R   0.147220 0.713108 0.328327 0.183063
C78   C     C_R   0.858184 0.290230 0.675494 0.188215
C79   C     C_R   0.316459 0.199882 0.351867 0.201140
C80   C     C_R   0.720625 0.843297 0.653305 0.203735
C81   C     C_R   0.800788 0.685419 0.647149 0.195989
C82   C     C_R   0.159420 0.279825 0.348255 0.206298
C83   C     C_R   0.712092 0.144068 0.673389 0.182407
C84   C     C_R   0.285983 0.860949 0.323830 0.161582
C85   C     C_R   0.141114 0.278497 0.668293 0.207304
C86   C     C_R   0.806786 0.696424 0.359873 0.219659
C87   C     C_R   0.287197 0.849216 0.669519 0.179861
C88   C     C_R   0.699838 0.189498 0.360999 0.218569
C89   C     C_R   0.353090 0.803336 0.313402 0.193648
C90   C     C_R   0.639856 0.189277 0.698787 0.220001
C91   C     C_R   0.329392 0.722255 0.862741 0.198840
C92   C     C_R   0.677469 0.291140 0.142685 0.184267
C93   C     C_R   0.329001 0.148448 0.712511 0.180871
C94   C     C_R   0.651222 0.839937 0.282116 0.210150
C95   C     C_R   0.323419 0.288728 0.142349 0.179136
C96   C     C_R   0.639194 0.697780 0.808128 0.212135
C97   C     C_R   0.668233 0.860327 0.722167 0.200517
C98   C     C_R   0.324225 0.140424 0.286257 0.166585
C99   C     C_R   0.645388 0.688164 0.196964 0.192710
C100  C     C_R   0.326262 0.284563 0.857339 0.159060
C101  C     C_R   0.674574 0.145691 0.288483 0.180306
C102  C     C_R   0.360489 0.810530 0.700900 0.212144
C103  C     C_R   0.669786 0.279945 0.857715 0.215028
C104  C     C_R   0.349926 0.718201 0.161590 0.208988
C105  C     C_R   0.307111 0.355903 0.807596 0.194427
C106  C     C_R   0.713953 0.673311 0.142514 0.172514
C107  C     C_R   0.793603 0.351568 0.675384 0.230249
C108  C     C_R   0.189175 0.640360 0.299425 0.213638
C109  C     C_R   0.676888 0.352861 0.206456 0.228235
C110  C     C_R   0.280295 0.651969 0.843202 0.203219
C111  C     C_R   0.138956 0.329794 0.278604 0.201133
C112  C     C_R   0.859189 0.676750 0.713271 0.168684
C113  C     C_R   0.710720 0.674363 0.854817 0.179325
C114  C     C_R   0.301368 0.360103 0.190464 0.212415
C115  C     C_R   0.193535 0.643551 0.692419 0.196581
C116  C     C_R   0.839261 0.350551 0.281705 0.206554
C117  C     C_R   0.278892 0.672091 0.138094 0.197806
C118  C     C_R   0.717927 0.350583 0.836347 0.213762
C119  C     C_R   0.853847 0.672805 0.288426 0.182179
C120  C     C_R   0.158258 0.348597 0.718766 0.215257
C121  C     C_R   0.887495 0.309883 0.361203 0.448034
C122  C     C_R   0.118921 0.687232 0.639004 0.452011
C123  C     C_R   0.691300 0.885295 0.363353 0.441377
C124  C     C_R   0.337372 0.167244 0.612699 0.418967
C125  C     C_R   0.120258 0.684704 0.360933 0.434414
C126  C     C_R   0.885127 0.319523 0.643664 0.453719
C127  C     C_R   0.338530 0.166322 0.383412 0.418481
C128  C     C_R   0.685265 0.861966 0.621799 0.407147
C129  C     C_R   0.834461 0.663060 0.615833 0.421372
C130  C     C_R   0.140404 0.315537 0.379378 0.406809
C131  C     C_R   0.683647 0.116159 0.641834 0.446405
C132  C     C_R   0.314802 0.888202 0.356053 0.450375
C133  C     C_R   0.116409 0.309116 0.635556 0.428124
C134  C     C_R   0.833400 0.663289 0.387825 0.413681
C135  C     C_R   0.315448 0.877021 0.637504 0.438934
C136  C     C_R   0.667027 0.162406 0.388723 0.435559
C137  C     C_R   0.384040 0.837440 0.334962 0.431636
C138  C     C_R   0.611881 0.162095 0.666525 0.439877
C139  C     C_R   0.361424 0.691605 0.888553 0.455775
C140  C     C_R   0.644670 0.319782 0.115984 0.456702
C141  C     C_R   0.360969 0.120620 0.683971 0.446263
C142  C     C_R   0.620922 0.856325 0.319651 0.407143
C143  C     C_R   0.354924 0.317500 0.114378 0.422958
C144  C     C_R   0.611252 0.664983 0.835060 0.437586
C145  C     C_R   0.636338 0.885909 0.691408 0.450339
C146  C     C_R   0.355560 0.112341 0.315498 0.453335
C147  C     C_R   0.614865 0.666260 0.162665 0.434847
C148  C     C_R   0.361774 0.312647 0.881303 0.405691
C149  C     C_R   0.642337 0.117958 0.316609 0.438899
C150  C     C_R   0.388540 0.838005 0.668550 0.429953
C151  C     C_R   0.637679 0.310326 0.883622 0.425077
C152  C     C_R   0.379885 0.680673 0.144225 0.405121
C153  C     C_R   0.329568 0.385228 0.842371 0.437596
C154  C     C_R   0.685330 0.640288 0.116227 0.430046
C155  C     C_R   0.823842 0.383548 0.649872 0.436924
C156  C     C_R   0.161991 0.612045 0.331796 0.432241
C157  C     C_R   0.650182 0.384204 0.176367 0.430965
C158  C     C_R   0.317281 0.621170 0.859884 0.401070
C159  C     C_R   0.112664 0.361380 0.309317 0.453337
C160  C     C_R   0.886865 0.644668 0.684324 0.451763
C161  C     C_R   0.682192 0.642474 0.882481 0.418807
C162  C     C_R   0.334102 0.388094 0.163559 0.436541
C163  C     C_R   0.158472 0.614451 0.670062 0.428856
C164  C     C_R   0.858824 0.381037 0.317222 0.413341
C165  C     C_R   0.309261 0.639732 0.112092 0.455575
C166  C     C_R   0.682068 0.381245 0.855821 0.423725
C167  C     C_R   0.880764 0.640000 0.316781 0.436084
C168  C     C_R   0.142196 0.379469 0.681605 0.409026
C169  C     C_R   0.883910 0.361017 0.357202 -0.308695
C170  C     C_R   0.124252 0.636062 0.638792 -0.284715
C171  C     C_R   0.640327 0.881516 0.359447 -0.307806
C172  C     C_R   0.364902 0.129731 0.633823 -0.313495
C173  C     C_R   0.127462 0.633955 0.362785 -0.315913
C174  C     C_R   0.869080 0.366897 0.632898 -0.318182
C175  C     C_R   0.362037 0.125007 0.364411 -0.295603
C176  C     C_R   0.642838 0.884404 0.640473 -0.307267
C177  C     C_R   0.874857 0.638523 0.635235 -0.299642
C178  C     C_R   0.116077 0.356613 0.360247 -0.308872
C179  C     C_R   0.633617 0.125714 0.637753 -0.319653
C180  C     C_R   0.364310 0.876768 0.361011 -0.290232
C181  C     C_R   0.118913 0.360202 0.640516 -0.291001
C182  C     C_R   0.870770 0.635461 0.366683 -0.315999
C183  C     C_R   0.366337 0.871583 0.636824 -0.314966
C184  C     C_R   0.637947 0.126769 0.366704 -0.319477
C185  C     C_R   0.357533 0.640506 0.884446 -0.305739
C186  C     C_R   0.633042 0.367067 0.131613 -0.318150
C187  C     C_R   0.361386 0.366796 0.125892 -0.312763
C188  C     C_R   0.632682 0.637043 0.872055 -0.310605
C189  C     C_R   0.635142 0.637907 0.125238 -0.291359
C190  C     C_R   0.361386 0.363790 0.876150 -0.281149
C191  C     C_R   0.641847 0.361425 0.880666 -0.292988
C192  C     C_R   0.360156 0.642093 0.117418 -0.306245
C193  C     C_R   0.833903 0.300430 0.291502 -0.273647
C194  C     C_R   0.183798 0.693697 0.697933 -0.309654
C195  C     C_R   0.701438 0.834976 0.290823 -0.265326
C196  C     C_R   0.300584 0.185299 0.690907 -0.317206
C197  C     C_R   0.182598 0.691259 0.298227 -0.310460
C198  C     C_R   0.811720 0.305766 0.690016 -0.320097
C199  C     C_R   0.306602 0.185363 0.303740 -0.302828
C200  C     C_R   0.708976 0.835879 0.702600 -0.268234
C201  C     C_R   0.814800 0.695004 0.695450 -0.304607
C202  C     C_R   0.165271 0.290353 0.298465 -0.271557
C203  C     C_R   0.690373 0.181299 0.701344 -0.315457
C204  C     C_R   0.304247 0.816710 0.304993 -0.302813
C205  C     C_R   0.164772 0.298614 0.708840 -0.264492
C206  C     C_R   0.816322 0.700628 0.309780 -0.315412
C207  C     C_R   0.309531 0.815478 0.701038 -0.309412
C208  C     C_R   0.702782 0.182196 0.310478 -0.313597
C209  C     C_R   0.290099 0.701948 0.837136 -0.267253
C210  C     C_R   0.692211 0.307124 0.188748 -0.321243
C211  C     C_R   0.297125 0.309885 0.181038 -0.310377
C212  C     C_R   0.689386 0.701640 0.817113 -0.309460
C213  C     C_R   0.694790 0.694868 0.184887 -0.308205
C214  C     C_R   0.301862 0.305836 0.817531 -0.306629
C215  C     C_R   0.708579 0.300360 0.831314 -0.270622
C216  C     C_R   0.299458 0.710296 0.165373 -0.267508
Ni1   Ni    Ni4+2 0.500000 0.000000 0.424470 0.220434
Ni2   Ni    Ni4+2 0.500000 0.000000 0.575530 0.209589
Ni3   Ni    Ni4+2 0.000000 0.500000 0.424470 0.212259
Ni4   Ni    Ni4+2 1.000000 0.500000 0.575530 0.223716
Ni5   Ni    Ni4+2 0.424470 0.500000 0.000000 0.205878
Ni6   Ni    Ni4+2 0.575530 0.500000 0.000000 0.228082
Ni7   Ni    Ni4+2 0.424470 1.000000 0.500000 0.219616
Ni8   Ni    Ni4+2 0.575530 1.000000 0.500000 0.211601
Ni9   Ni    Ni4+2 1.000000 0.424470 0.500000 0.214725
Ni10  Ni    Ni4+2 0.000000 0.575530 0.500000 0.221520
Ni11  Ni    Ni4+2 0.500000 0.424470 0.000000 0.226357
Ni12  Ni    Ni4+2 0.500000 0.575530 0.000000 0.207525
N25   N     N_R   0.456710 0.054070 0.423820 -0.055449
N26   N     N_R   0.543290 0.945930 0.576180 -0.057147
N27   N     N_R   0.945930 0.456710 0.423820 -0.053177
N28   N     N_R   0.054070 0.543290 0.576180 -0.061483
N29   N     N_R   0.543290 0.945930 0.423820 -0.056792
N30   N     N_R   0.456710 0.054070 0.576180 -0.058407
N31   N     N_R   0.054070 0.543290 0.423820 -0.057617
N32   N     N_R   0.945930 0.456710 0.576180 -0.051249
N33   N     N_R   0.456710 0.945930 0.576180 -0.057363
N34   N     N_R   0.543290 0.054070 0.423820 -0.055410
N35   N     N_R   0.945930 0.543290 0.576180 -0.052951
N36   N     N_R   0.054070 0.456710 0.423820 -0.057584
N37   N     N_R   0.543290 0.054070 0.576180 -0.057227
N38   N     N_R   0.456710 0.945930 0.423820 -0.060252
N39   N     N_R   0.054070 0.456710 0.576180 -0.058883
N40   N     N_R   0.945930 0.543290 0.423820 -0.055701
N41   N     N_R   0.423820 0.456710 0.054070 -0.059195
N42   N     N_R   0.576180 0.543290 0.945930 -0.055589
N43   N     N_R   0.423820 0.945930 0.456710 -0.055128
N44   N     N_R   0.576180 0.054070 0.543290 -0.057378
N45   N     N_R   0.423820 0.543290 0.945930 -0.056608
N46   N     N_R   0.576180 0.456710 0.054070 -0.050555
N47   N     N_R   0.423820 0.054070 0.543290 -0.058141
N48   N     N_R   0.576180 0.945930 0.456710 -0.055946
N49   N     N_R   0.576180 0.456710 0.945930 -0.056452
N50   N     N_R   0.423820 0.543290 0.054070 -0.059307
N51   N     N_R   0.576180 0.945930 0.543290 -0.053739
N52   N     N_R   0.423820 0.054070 0.456710 -0.059521
N53   N     N_R   0.576180 0.543290 0.054070 -0.051527
N54   N     N_R   0.423820 0.456710 0.945930 -0.058796
N55   N     N_R   0.576180 0.054070 0.456710 -0.057210
N56   N     N_R   0.423820 0.945930 0.543290 -0.055251
N57   N     N_R   0.054070 0.423820 0.456710 -0.054976
N58   N     N_R   0.945930 0.576180 0.543290 -0.059873
N59   N     N_R   0.456710 0.423820 0.945930 -0.055431
N60   N     N_R   0.543290 0.576180 0.054070 -0.058744
N61   N     N_R   0.945930 0.423820 0.543290 -0.056462
N62   N     N_R   0.054070 0.576180 0.456710 -0.055193
N63   N     N_R   0.543290 0.423820 0.054070 -0.054800
N64   N     N_R   0.456710 0.576180 0.945930 -0.059880
N65   N     N_R   0.945930 0.576180 0.456710 -0.057831
N66   N     N_R   0.054070 0.423820 0.543290 -0.056109
N67   N     N_R   0.543290 0.576180 0.945930 -0.060030
N68   N     N_R   0.456710 0.423820 0.054070 -0.054464
N69   N     N_R   0.054070 0.576180 0.543290 -0.056638
N70   N     N_R   0.945930 0.423820 0.456710 -0.055632
N71   N     N_R   0.456710 0.576180 0.054070 -0.056582
N72   N     N_R   0.543290 0.423820 0.945930 -0.055040
C217  C     C_R   0.394862 0.096634 0.395857 0.243092
C218  C     C_R   0.607008 0.907073 0.606561 0.180691
C219  C     C_R   0.907311 0.393940 0.392975 0.188428
C220  C     C_R   0.095964 0.604651 0.605394 0.227247
C221  C     C_R   0.606390 0.904965 0.394652 0.183526
C222  C     C_R   0.397408 0.100663 0.602653 0.185139
C223  C     C_R   0.099166 0.603008 0.396270 0.187316
C224  C     C_R   0.898232 0.398317 0.601471 0.269711
C225  C     C_R   0.397066 0.900557 0.603600 0.186239
C226  C     C_R   0.604085 0.098641 0.397087 0.190189
C227  C     C_R   0.903130 0.605319 0.603947 0.238287
C228  C     C_R   0.093172 0.392719 0.393762 0.181539
C229  C     C_R   0.603081 0.097937 0.604140 0.183082
C230  C     C_R   0.395765 0.904469 0.394276 0.237433
C231  C     C_R   0.095502 0.394041 0.605221 0.182368
C232  C     C_R   0.899283 0.602546 0.397711 0.186075
C233  C     C_R   0.395455 0.397155 0.098192 0.188991
C234  C     C_R   0.602313 0.603485 0.900342 0.182885
C235  C     C_R   0.393402 0.606624 0.906848 0.181811
C236  C     C_R   0.601390 0.398258 0.102118 0.267025
C237  C     C_R   0.606316 0.394428 0.905078 0.185182
C238  C     C_R   0.393687 0.606414 0.094023 0.182520
C239  C     C_R   0.603702 0.604939 0.097022 0.222790
C240  C     C_R   0.394795 0.395318 0.904077 0.212883
O1    O     O_3   0.915630 0.288707 0.396744 -0.582567
C241  C     C_3   0.963188 0.283283 0.378785 -0.120731
H49   H     H_    0.980200 0.319141 0.372262 0.088081
H50   H     H_    0.964178 0.260956 0.345227 0.159229
H51   H     H_    0.985225 0.264220 0.406436 0.184406
O2    O     O_3   0.087207 0.709241 0.607132 -0.574132
C242  C     C_3   0.114606 0.733135 0.571002 -0.075466
H52   H     H_    0.140117 0.707819 0.552377 0.080652
H53   H     H_    0.135221 0.764206 0.585910 0.178574
H54   H     H_    0.089410 0.747701 0.543345 0.179201
O3    O     O_3   0.712049 0.910347 0.401191 -0.571929
C243  C     C_3   0.719813 0.958671 0.386544 -0.100620
H55   H     H_    0.684889 0.978397 0.383423 0.079152
H56   H     H_    0.740611 0.960923 0.352024 0.147018
H57   H     H_    0.741300 0.977185 0.414804 0.190179
O4    O     O_3   0.343360 0.178593 0.564314 -0.603065
C244  C     C_3   0.381099 0.212582 0.559850 -0.048085
H58   H     H_    0.416127 0.197369 0.572808 0.092306
H59   H     H_    0.372407 0.246826 0.579423 0.150951
H60   H     H_    0.385618 0.221700 0.521013 0.194630
O5    O     O_3   0.088672 0.707626 0.392548 -0.587683
C245  C     C_3   0.042068 0.708812 0.372065 -0.105788
H61   H     H_    0.024343 0.673299 0.377222 0.089511
H62   H     H_    0.042283 0.719257 0.333094 0.140955
H63   H     H_    0.020010 0.736239 0.391686 0.184531
O6    O     O_3   0.927666 0.302376 0.623107 -0.620373
C246  C     C_3   0.916574 0.265766 0.589031 -0.145739
H64   H     H_    0.881661 0.272077 0.569758 0.131135
H65   H     H_    0.916253 0.229624 0.606729 0.212336
H66   H     H_    0.945142 0.265130 0.560826 0.141167
O7    O     O_3   0.339092 0.174555 0.432738 -0.595294
C247  C     C_3   0.294707 0.157907 0.452307 0.023728
H67   H     H_    0.281790 0.123509 0.435579 0.071620
H68   H     H_    0.266075 0.185928 0.448948 0.219320
H69   H     H_    0.299565 0.150440 0.491278 0.186413
O8    O     O_3   0.693525 0.859282 0.572524 -0.590423
C248  C     C_3   0.670865 0.817169 0.554643 0.011127
H70   H     H_    0.630850 0.819343 0.558712 0.087085
H71   H     H_    0.684769 0.783807 0.572682 0.181270
H72   H     H_    0.679033 0.813978 0.515449 0.177781
O9    O     O_3   0.827108 0.663127 0.566387 -0.592695
C249  C     C_3   0.843848 0.707993 0.547907 0.023189
H73   H     H_    0.879372 0.719034 0.563311 0.073913
H74   H     H_    0.817124 0.737393 0.554349 0.212395
H75   H     H_    0.848930 0.704730 0.508350 0.192293
O10   O     O_3   0.144175 0.308728 0.428779 -0.590206
C250  C     C_3   0.185689 0.333306 0.445217 0.011907
H76   H     H_    0.182124 0.373210 0.440199 0.086230
H77   H     H_    0.219101 0.319926 0.426860 0.179762
H78   H     H_    0.189780 0.326347 0.484526 0.176071
O11   O     O_3   0.705620 0.080693 0.613806 -0.572084
C251  C     C_3   0.701433 0.035659 0.637610 -0.091123
H79   H     H_    0.663540 0.022694 0.636460 0.085656
H80   H     H_    0.714595 0.037246 0.675627 0.142105
H81   H     H_    0.724043 0.008579 0.618125 0.187103
O12   O     O_3   0.296488 0.929378 0.378502 -0.575344
C252  C     C_3   0.261573 0.915768 0.413380 -0.071325
H82   H     H_    0.273484 0.884154 0.435624 0.086098
H83   H     H_    0.226255 0.907896 0.396197 0.194503
H84   H     H_    0.255811 0.946708 0.438435 0.159819
O13   O     O_3   0.091945 0.288485 0.597411 -0.596310
C253  C     C_3   0.044404 0.278288 0.612676 -0.028723
H85   H     H_    0.023993 0.312359 0.620295 0.144438
H86   H     H_    0.043742 0.254009 0.644879 0.170440
H87   H     H_    0.025922 0.258991 0.582951 0.164369
O14   O     O_3   0.821856 0.657406 0.436198 -0.604024
C254  C     C_3   0.787620 0.619871 0.440554 -0.027872
H88   H     H_    0.802549 0.584628 0.427516 0.092045
H89   H     H_    0.753602 0.628860 0.420987 0.148993
H90   H     H_    0.778357 0.615439 0.479377 0.197315
O15   O     O_3   0.292429 0.907932 0.605449 -0.588208
C255  C     C_3   0.288239 0.954133 0.626824 -0.106759
H91   H     H_    0.324275 0.971163 0.629660 0.084122
H92   H     H_    0.270236 0.952721 0.662905 0.158942
H93   H     H_    0.265763 0.977497 0.603049 0.175432
O16   O     O_3   0.663223 0.171445 0.437875 -0.580025
C256  C     C_3   0.626676 0.206597 0.445505 -0.087172
H94   H     H_    0.590817 0.193630 0.432856 0.105622
H95   H     H_    0.635788 0.241572 0.427641 0.165348
H96   H     H_    0.623599 0.213547 0.484924 0.157308
O17   O     O_3   0.433650 0.832201 0.331260 -0.603286
C257  C     C_3   0.447701 0.850802 0.285577 -0.054936
H97   H     H_    0.433420 0.888127 0.279073 0.093598
H98   H     H_    0.435738 0.826883 0.255823 0.215148
H99   H     H_    0.487584 0.852784 0.283801 0.207515
O18   O     O_3   0.562786 0.171801 0.662874 -0.578499
C258  C     C_3   0.555523 0.206580 0.626090 -0.094825
H100  H     H_    0.568285 0.193035 0.590311 0.102813
H101  H     H_    0.573545 0.241454 0.634906 0.165594
H102  H     H_    0.516139 0.213951 0.623038 0.154123
O19   O     O_3   0.397748 0.712209 0.915786 -0.568794
C259  C     C_3   0.380927 0.717575 0.963712 -0.120488
H103  H     H_    0.375175 0.681672 0.981016 0.081739
H104  H     H_    0.347198 0.739831 0.965474 0.155329
H105  H     H_    0.408982 0.736670 0.984937 0.184108
O20   O     O_3   0.624023 0.302042 0.074049 -0.615831
C260  C     C_3   0.590265 0.265569 0.086386 -0.163307
H106  H     H_    0.569952 0.273438 0.120485 0.116759
H107  H     H_    0.608511 0.229704 0.089107 0.211102
H108  H     H_    0.562880 0.263157 0.057323 0.146859
O21   O     O_3   0.389860 0.086074 0.706149 -0.572639
C261  C     C_3   0.366977 0.040664 0.703089 -0.099418
H109  H     H_    0.368835 0.026872 0.665520 0.084901
H110  H     H_    0.328788 0.042032 0.716130 0.143898
H111  H     H_    0.386855 0.014510 0.726291 0.185412
O22   O     O_3   0.571997 0.846670 0.317566 -0.620631
C262  C     C_3   0.563432 0.803322 0.343444 0.000461
H112  H     H_    0.570530 0.808148 0.382733 0.102892
H113  H     H_    0.585471 0.772590 0.329022 0.183373
H114  H     H_    0.524872 0.793318 0.339488 0.202909
O23   O     O_3   0.379839 0.296986 0.075963 -0.596970
C263  C     C_3   0.351828 0.302726 0.033775 -0.004761
H115  H     H_    0.348283 0.341656 0.023620 0.086663
H116  H     H_    0.315417 0.286052 0.037778 0.150717
H117  H     H_    0.370534 0.283782 0.003671 0.219538
O24   O     O_3   0.562509 0.660165 0.824748 -0.570986
C264  C     C_3   0.557015 0.622846 0.790324 -0.061869
H118  H     H_    0.570105 0.587338 0.804494 0.091945
H119  H     H_    0.575867 0.631707 0.755826 0.154754
H120  H     H_    0.517936 0.619006 0.782209 0.170713
O25   O     O_3   0.597363 0.910024 0.711820 -0.570808
C265  C     C_3   0.611065 0.958150 0.721900 -0.106264
H121  H     H_    0.615932 0.978950 0.687904 0.078582
H122  H     H_    0.644391 0.959839 0.744385 0.151649
H123  H     H_    0.581469 0.975946 0.742627 0.189715
O26   O     O_3   0.376009 0.069639 0.298286 -0.575188
C266  C     C_3   0.411265 0.080491 0.262776 -0.072302
H124  H     H_    0.433944 0.112335 0.272560 0.083746
H125  H     H_    0.394271 0.086485 0.226961 0.197364
H126  H     H_    0.435924 0.048785 0.259183 0.156170
O27   O     O_3   0.565215 0.670933 0.166604 -0.601799
C267  C     C_3   0.552215 0.716858 0.147487 -0.049897
H127  H     H_    0.566219 0.722171 0.110029 0.083363
H128  H     H_    0.565330 0.746837 0.170608 0.209931
H129  H     H_    0.512322 0.719764 0.145996 0.211018
O28   O     O_3   0.394683 0.290764 0.912006 -0.621093
C268  C     C_3   0.430295 0.266962 0.883613 -0.044058
H130  H     H_    0.448151 0.292381 0.857880 0.100875
H131  H     H_    0.415054 0.235870 0.863232 0.181227
H132  H     H_    0.458659 0.252419 0.908039 0.177480
O29   O     O_3   0.613979 0.083404 0.294265 -0.581994
C269  C     C_3   0.637491 0.037998 0.297356 -0.106905
H133  H     H_    0.636484 0.024197 0.335017 0.089403
H134  H     H_    0.675453 0.039417 0.283730 0.148433
H135  H     H_    0.617651 0.011693 0.274568 0.178468
O30   O     O_3   0.438215 0.831107 0.667688 -0.574491
C270  C     C_3   0.449536 0.795233 0.632993 -0.049496
H136  H     H_    0.438247 0.806520 0.596042 0.096258
H137  H     H_    0.432921 0.759789 0.642486 0.154747
H138  H     H_    0.489364 0.789966 0.632300 0.173178
O31   O     O_3   0.601357 0.289358 0.910724 -0.612048
C271  C     C_3   0.619164 0.280660 0.957633 -0.025391
H139  H     H_    0.626316 0.315361 0.976800 0.146216
H140  H     H_    0.652328 0.257515 0.957197 0.170769
H141  H     H_    0.591128 0.260721 0.978123 0.165481
O32   O     O_3   0.428907 0.682009 0.153648 -0.619541
C272  C     C_3   0.437556 0.655266 0.196379 0.007555
H142  H     H_    0.429583 0.616097 0.191135 0.101708
H143  H     H_    0.416267 0.669823 0.227478 0.179403
H144  H     H_    0.476349 0.658260 0.205860 0.205298
O33   O     O_3   0.323755 0.435011 0.840721 -0.606075
C273  C     C_3   0.278192 0.446414 0.861552 -0.061842
H145  H     H_    0.274681 0.431713 0.898939 0.083739
H146  H     H_    0.247848 0.432729 0.839264 0.207648
H147  H     H_    0.274319 0.486353 0.863845 0.209413
O34   O     O_3   0.705129 0.614013 0.078304 -0.626563
C274  C     C_3   0.737630 0.578852 0.096760 -0.128208
H148  H     H_    0.722126 0.558577 0.128045 0.085886
H149  H     H_    0.772602 0.595436 0.107070 0.208246
H150  H     H_    0.745388 0.552012 0.067829 0.167023
O35   O     O_3   0.806083 0.428147 0.634760 -0.575518
C275  C     C_3   0.818002 0.464516 0.668827 -0.024562
H151  H     H_    0.842361 0.452476 0.698735 0.090732
H152  H     H_    0.784375 0.479533 0.685042 0.195098
H153  H     H_    0.835804 0.494885 0.649513 0.108285
O36   O     O_3   0.170102 0.562444 0.333460 -0.574259
C276  C     C_3   0.205633 0.552602 0.368720 -0.053114
H154  H     H_    0.193531 0.564225 0.405379 0.096167
H155  H     H_    0.240681 0.570022 0.359424 0.156463
H156  H     H_    0.211907 0.512834 0.370016 0.171567
O37   O     O_3   0.634028 0.428483 0.194054 -0.578370
C277  C     C_3   0.667338 0.465500 0.182044 -0.031386
H157  H     H_    0.698313 0.453843 0.158638 0.092960
H158  H     H_    0.682102 0.481428 0.215678 0.194161
H159  H     H_    0.647641 0.495124 0.163249 0.107433
O38   O     O_3   0.313780 0.571872 0.851768 -0.618787
C278  C     C_3   0.338278 0.561097 0.808122 0.016353
H160  H     H_    0.377895 0.567028 0.811705 0.098619
H161  H     H_    0.323800 0.582698 0.777290 0.179623
H162  H     H_    0.332797 0.522312 0.799335 0.209566
O39   O     O_3   0.084969 0.397833 0.288834 -0.571329
C279  C     C_3   0.037226 0.380837 0.283576 -0.106846
H163  H     H_    0.020048 0.374336 0.319383 0.082337
H164  H     H_    0.035907 0.347400 0.261027 0.154009
H165  H     H_    0.015552 0.409181 0.264956 0.188567
O40   O     O_3   0.928590 0.623069 0.702121 -0.578599
C280  C     C_3   0.916100 0.587940 0.737230 -0.082184
H166  H     H_    0.884478 0.565538 0.726298 0.070069
H167  H     H_    0.908954 0.605105 0.772848 0.200504
H168  H     H_    0.947301 0.562884 0.741870 0.153505
O41   O     O_3   0.703277 0.616001 0.919365 -0.602068
C281  C     C_3   0.700972 0.643538 0.962268 0.034412
H169  H     H_    0.663278 0.645158 0.976454 0.099527
H170  H     H_    0.715501 0.680856 0.957420 0.144930
H171  H     H_    0.723910 0.625325 0.989621 0.218348
O42   O     O_3   0.339388 0.436810 0.174458 -0.573675
C282  C     C_3   0.376744 0.441657 0.208749 -0.054472
H172  H     H_    0.412002 0.428332 0.194236 0.101208
H173  H     H_    0.367819 0.422540 0.243073 0.155998
H174  H     H_    0.380964 0.480721 0.217299 0.169270
O43   O     O_3   0.159868 0.564692 0.675869 -0.610030
C283  C     C_3   0.138989 0.553766 0.721430 -0.058131
H175  H     H_    0.101737 0.569042 0.725047 0.095565
H176  H     H_    0.161503 0.567206 0.751724 0.208779
H177  H     H_    0.136280 0.513886 0.725252 0.207692
O44   O     O_3   0.854901 0.430715 0.311168 -0.590413
C284  C     C_3   0.814240 0.447376 0.337555 -0.036924
H178  H     H_    0.819091 0.441988 0.377118 0.103356
H179  H     H_    0.780414 0.429376 0.325511 0.187207
H180  H     H_    0.809940 0.486899 0.331130 0.154485
O45   O     O_3   0.288510 0.604534 0.083388 -0.568380
C285  C     C_3   0.285017 0.622592 0.035784 -0.119281
H181  H     H_    0.321464 0.627628 0.019523 0.082204
H182  H     H_    0.263891 0.657095 0.034333 0.154555
H183  H     H_    0.265749 0.595541 0.013375 0.184325
O46   O     O_3   0.688079 0.430893 0.852131 -0.588568
C286  C     C_3   0.661474 0.447748 0.811908 -0.052584
H184  H     H_    0.621911 0.442717 0.817258 0.100733
H185  H     H_    0.673279 0.429619 0.777866 0.188305
H186  H     H_    0.667982 0.487209 0.807689 0.156655
O47   O     O_3   0.915076 0.610723 0.294569 -0.572884
C287  C     C_3   0.960832 0.632658 0.298309 -0.088704
H187  H     H_    0.975978 0.625981 0.334727 0.087405
H188  H     H_    0.959942 0.672253 0.290045 0.129969
H189  H     H_    0.985620 0.615254 0.271784 0.189155
O48   O     O_3   0.149857 0.428767 0.685691 -0.618698
C288  C     C_3   0.193601 0.439812 0.661620 0.007813
H190  H     H_    0.190072 0.434779 0.621869 0.098202
H191  H     H_    0.224426 0.417731 0.675558 0.179480
H192  H     H_    0.202437 0.478392 0.668178 0.213422
N73   N     N_R   0.863208 0.227925 0.335979 0.266543
O49   O     O_R   0.862062 0.208766 0.378998 -0.270681
O50   O     O_R   0.869329 0.199839 0.298597 -0.333414
N74   N     N_R   0.126733 0.763580 0.686962 0.281788
O51   O     O_R   0.140136 0.783719 0.727275 -0.288301
O52   O     O_R   0.090930 0.783790 0.663907 -0.268885
N75   N     N_R   0.773390 0.862085 0.336577 0.264815
O53   O     O_R   0.792456 0.858513 0.379418 -0.270038
O54   O     O_R   0.801513 0.869087 0.299389 -0.333563
N76   N     N_R   0.278208 0.233276 0.618148 0.259745
O55   O     O_R   0.254045 0.225420 0.578630 -0.305088
O56   O     O_R   0.284654 0.277736 0.632471 -0.381638
N77   N     N_R   0.137221 0.764202 0.324722 0.274643
O57   O     O_R   0.131698 0.790462 0.363481 -0.293251
O58   O     O_R   0.129463 0.783731 0.282565 -0.298651
N78   N     N_R   0.879075 0.245961 0.693754 0.263886
O59   O     O_R   0.854634 0.205800 0.693596 -0.303329
O60   O     O_R   0.924233 0.244854 0.706953 -0.306593
N79   N     N_R   0.306926 0.249197 0.367573 0.259771
O61   O     O_R   0.312559 0.285002 0.337415 -0.372269
O62   O     O_R   0.301320 0.259703 0.413106 -0.344324
N80   N     N_R   0.768596 0.833126 0.635327 0.268405
O63   O     O_R   0.805984 0.848517 0.659241 -0.326473
O64   O     O_R   0.775337 0.813345 0.593128 -0.344257
N81   N     N_R   0.751856 0.695384 0.631005 0.259042
O65   O     O_R   0.715709 0.689907 0.660766 -0.372870
O66   O     O_R   0.741980 0.700932 0.585370 -0.345228
N82   N     N_R   0.171246 0.232538 0.367130 0.266937
O67   O     O_R   0.155897 0.194019 0.344840 -0.334873
O68   O     O_R   0.191938 0.227535 0.409019 -0.345359
N83   N     N_R   0.762942 0.133603 0.677817 0.274475
O69   O     O_R   0.789116 0.124446 0.639643 -0.271239
O70   O     O_R   0.782636 0.130272 0.720392 -0.301348
N84   N     N_R   0.240247 0.880350 0.308102 0.262908
O71   O     O_R   0.201654 0.853679 0.307902 -0.304112
O72   O     O_R   0.236417 0.926072 0.296886 -0.266078
N85   N     N_R   0.140511 0.226813 0.660988 0.262629
O73   O     O_R   0.145428 0.208590 0.617821 -0.273739
O74   O     O_R   0.132889 0.197810 0.697361 -0.327003
N86   N     N_R   0.767885 0.722979 0.382353 0.259636
O75   O     O_R   0.775739 0.747589 0.421676 -0.307461
O76   O     O_R   0.723540 0.716373 0.368218 -0.378149
N87   N     N_R   0.235586 0.856235 0.670469 0.264373
O77   O     O_R   0.211052 0.857830 0.630398 -0.317403
O78   O     O_R   0.213335 0.863767 0.711364 -0.301189
N88   N     N_R   0.727217 0.226886 0.384319 0.259705
O79   O     O_R   0.753590 0.216427 0.421840 -0.286668
O80   O     O_R   0.719580 0.272188 0.373309 -0.373474
N89   N     N_R   0.370631 0.754894 0.302348 0.259629
O81   O     O_R   0.342002 0.717867 0.307275 -0.387810
O82   O     O_R   0.416601 0.746168 0.296537 -0.333031
N90   N     N_R   0.616818 0.227407 0.725946 0.258983
O83   O     O_R   0.578977 0.217941 0.752372 -0.293927
O84   O     O_R   0.628321 0.272419 0.717914 -0.374975
N91   N     N_R   0.335811 0.774004 0.864384 0.266990
O85   O     O_R   0.378956 0.792680 0.863661 -0.251904
O86   O     O_R   0.298477 0.802626 0.869162 -0.329889
N92   N     N_R   0.696559 0.247173 0.121807 0.264634
O87   O     O_R   0.698361 0.207211 0.146733 -0.305231
O88   O     O_R   0.708803 0.246097 0.076315 -0.308002
N93   N     N_R   0.324838 0.138346 0.763419 0.267723
O89   O     O_R   0.363348 0.131448 0.789554 -0.287978
O90   O     O_R   0.282389 0.133612 0.783345 -0.301234
N94   N     N_R   0.631033 0.829458 0.235278 0.260720
O91   O     O_R   0.653436 0.844326 0.196560 -0.350858
O92   O     O_R   0.587063 0.813471 0.231035 -0.348421
N95   N     N_R   0.317243 0.238347 0.130376 0.275680
O93   O     O_R   0.354195 0.211838 0.117446 -0.276171
O94   O     O_R   0.274125 0.219640 0.129107 -0.296973
N96   N     N_R   0.616597 0.724367 0.769528 0.258636
O95   O     O_R   0.577263 0.749216 0.777803 -0.255885
O96   O     O_R   0.630583 0.717520 0.725052 -0.373231
N97   N     N_R   0.659855 0.860842 0.773565 0.263975
O97   O     O_R   0.616336 0.856048 0.790996 -0.255715
O98   O     O_R   0.695582 0.868504 0.803101 -0.332981
N98   N     N_R   0.308588 0.121744 0.240409 0.261626
O99   O     O_R   0.312793 0.147581 0.201292 -0.312875
O100  O     O_R   0.294267 0.076986 0.236964 -0.265903
N99   N     N_R   0.626934 0.700682 0.244542 0.259312
O101  O     O_R   0.654584 0.695799 0.282267 -0.382742
O102  O     O_R   0.580866 0.707369 0.251985 -0.335569
N100  N     N_R   0.314572 0.236033 0.874170 0.274558
O103  O     O_R   0.275078 0.214801 0.860199 -0.294820
O104  O     O_R   0.337625 0.216707 0.910412 -0.295171
N101  N     N_R   0.679473 0.135728 0.237637 0.273998
O105  O     O_R   0.641468 0.127783 0.211188 -0.291894
O106  O     O_R   0.722273 0.131489 0.218252 -0.300980
N102  N     N_R   0.384212 0.774926 0.730623 0.260558
O107  O     O_R   0.420399 0.787491 0.757779 -0.249867
O108  O     O_R   0.375181 0.729053 0.724468 -0.389052
N103  N     N_R   0.663844 0.228164 0.860127 0.263415
O109  O     O_R   0.620978 0.209003 0.857847 -0.278915
O110  O     O_R   0.701163 0.200137 0.867506 -0.328386
N104  N     N_R   0.370735 0.764430 0.173734 0.260097
O111  O     O_R   0.349710 0.804065 0.158840 -0.349573
O112  O     O_R   0.414427 0.767237 0.190778 -0.352569
N105  N     N_R   0.293675 0.376145 0.761061 0.257892
O113  O     O_R   0.300293 0.350720 0.721904 -0.388754
O114  O     O_R   0.284886 0.422291 0.756070 -0.334584
N106  N     N_R   0.760603 0.686841 0.123798 0.265210
O115  O     O_R   0.798696 0.686103 0.151168 -0.305057
O116  O     O_R   0.765881 0.695564 0.077814 -0.310391
N107  N     N_R   0.743661 0.364304 0.683947 0.268315
O117  O     O_R   0.709561 0.333893 0.673009 -0.359523
O118  O     O_R   0.731675 0.407145 0.699689 -0.365605
N108  N     N_R   0.225857 0.617085 0.270580 0.259588
O119  O     O_R   0.214684 0.580446 0.243231 -0.255156
O120  O     O_R   0.271254 0.627117 0.277635 -0.382612
N109  N     N_R   0.685938 0.366187 0.255957 0.268079
O121  O     O_R   0.675134 0.336392 0.290835 -0.364090
O122  O     O_R   0.702697 0.408776 0.266724 -0.367759
N110  N     N_R   0.232864 0.632673 0.833657 0.261704
O123  O     O_R   0.194761 0.656778 0.847902 -0.342313
O124  O     O_R   0.227349 0.588349 0.818611 -0.339255
N111  N     N_R   0.137025 0.336906 0.227094 0.265926
O125  O     O_R   0.139109 0.380336 0.208742 -0.256696
O126  O     O_R   0.130568 0.300063 0.198450 -0.332504
N112  N     N_R   0.877827 0.692456 0.759115 0.262698
O127  O     O_R   0.851544 0.689724 0.798076 -0.308404
O128  O     O_R   0.922868 0.705463 0.762748 -0.271950
N113  N     N_R   0.761114 0.680022 0.866255 0.273611
O129  O     O_R   0.787768 0.642414 0.876749 -0.276011
O130  O     O_R   0.779558 0.723199 0.869978 -0.296764
N114  N     N_R   0.275208 0.382672 0.229485 0.258071
O131  O     O_R   0.249798 0.421732 0.221532 -0.260388
O132  O     O_R   0.282859 0.368967 0.273861 -0.373086
N115  N     N_R   0.239955 0.622884 0.705959 0.258577
O133  O     O_R   0.279243 0.648098 0.700139 -0.399579
O134  O     O_R   0.244775 0.576663 0.714343 -0.335525
N116  N     N_R   0.826334 0.370463 0.235305 0.270277
O135  O     O_R   0.841941 0.349475 0.196030 -0.335308
O136  O     O_R   0.803618 0.411778 0.231817 -0.326669
N117  N     N_R   0.227193 0.667122 0.134952 0.267031
O137  O     O_R   0.207393 0.624396 0.134738 -0.254013
O138  O     O_R   0.199819 0.705360 0.129904 -0.331148
N118  N     N_R   0.764231 0.370462 0.823204 0.270609
O139  O     O_R   0.803634 0.349925 0.839061 -0.330060
O140  O     O_R   0.767434 0.411353 0.799921 -0.331657
N119  N     N_R   0.865903 0.678919 0.238141 0.276820
O141  O     O_R   0.876336 0.641542 0.211232 -0.270429
O142  O     O_R   0.870235 0.722290 0.220052 -0.301467
N120  N     N_R   0.166618 0.367827 0.766510 0.262337
O143  O     O_R   0.151618 0.343671 0.804105 -0.341670
O144  O     O_R   0.181160 0.412194 0.772647 -0.337819

loop_
_geom_bond_atom_site_label_1
_geom_bond_atom_site_label_2
_geom_bond_distance
_ccdc_geom_bond_type
C48   N48   1.345390 A    
C270  H138  1.109298 S    
C113  C161  1.407629 A    
C258  H100  1.112839 S    
Ni1   N38   1.916242 S    
C51   N51   1.340104 A    
C52   C217  1.378630 A    
C6    C198  1.461612 S    
C74   C194  1.417856 A    
O37   C277  1.416422 S    
N104  O112  1.300148 A    
C102  C150  1.405312 A    
C286  H184  1.112057 S    
Ni4   N39   1.906837 S    
C117  C165  1.415720 A    
N114  O131  1.300997 A    
C128  C176  1.418168 A    
N93   O89   1.301225 A    
C53   H29   1.075768 S    
N103  O109  1.301273 A    
C40   N40   1.344073 A    
C284  H178  1.112086 S    
N107  O118  1.299350 A    
C186  C236  1.471186 S    
O9    C249  1.417059 S    
C270  H137  1.112566 S    
Ni11  N68   1.911278 S    
O43   C283  1.416421 S    
N86   O76   1.301148 A    
Ni9   N57   1.910959 S    
C20   N16   1.358087 A    
N108  O120  1.301339 A    
C107  C198  1.414723 A    
N91   O86   1.301486 A    
Ni1   N29   1.905701 S    
C112  C201  1.413165 A    
C23   N19   1.354244 A    
O40   C280  1.413809 S    
C80   C128  1.406271 A    
C64   N64   1.347576 A    
C130  O10   1.382556 S    
N76   O55   1.301122 A    
C114  N114  1.436375 S    
C22   C214  1.465606 S    
C249  H75   1.105656 S    
C144  O24   1.384719 S    
C62   H38   1.078044 S    
C91   C209  1.416149 A    
O32   C272  1.412358 S    
C266  H125  1.109104 S    
Ni7   N52   1.910770 S    
C43   C230  1.387002 A    
C257  H98   1.106920 S    
C74   C122  1.420749 A    
Ni12  N67   1.911279 S    
C83   N83   1.438347 S    
N93   O90   1.301268 A    
C5    N5    1.356179 A    
C108  C197  1.413908 A    
C279  H165  1.109160 S    
C14   C206  1.473198 S    
N97   O98   1.301482 A    
Ni9   N70   1.917571 S    
C149  C184  1.410736 A    
Ni3   N27   1.917307 S    
N73   O50   1.301465 A    
C105  N105  1.450507 S    
C165  C192  1.416336 A    
C119  C167  1.407397 A    
N75   O54   1.301467 A    
C166  C191  1.416453 A    
C277  H158  1.108437 S    
C108  N108  1.436068 S    
N74   O52   1.301089 A    
N74   O51   1.301112 A    
C91   N91   1.439006 S    
C81   C129  1.408327 A    
C146  O26   1.386367 S    
C106  C213  1.413623 A    
C119  N119  1.438310 S    
C70   C219  1.390390 A    
Ni2   N30   1.905700 S    
O39   C279  1.410353 S    
N92   O88   1.301432 A    
Ni12  N60   1.917743 S    
C250  H78   1.109363 S    
C85   C133  1.412112 A    
C152  C192  1.409598 A    
C31   C223  1.381017 A    
C268  H131  1.111439 S    
O46   C286  1.412002 S    
C280  H168  1.109300 S    
C90   C138  1.402179 A    
C260  H106  1.116154 S    
N36   N57   1.283531 A    
C54   N54   1.337137 A    
C51   C218  1.387375 A    
C75   N75   1.438729 S    
C277  H159  1.108707 S    
C70   H46   1.076762 S    
C140  O20   1.384414 S    
C59   H35   1.073508 S    
C281  H169  1.112301 S    
C72   H48   1.076542 S    
C100  C214  1.417486 A    
C57   H33   1.079105 S    
C271  H141  1.106498 S    
C92   N92   1.439163 S    
C38   N38   1.338763 A    
C80   N80   1.440117 S    
C287  H188  1.114975 S    
O26   C266  1.413645 S    
C92   C210  1.409792 A    
C162  O42   1.384826 S    
Ni10  N65   1.917402 S    
C103  C215  1.413852 A    
Ni7   N56   1.910850 S    
C17   N22   1.355736 A    
N116  O136  1.300814 A    
C104  C216  1.416111 A    
C21   C213  1.470975 S    
Ni12  N71   1.911168 S    
C44   H20   1.078937 S    
C67   C234  1.376212 A    
C69   N69   1.345443 A    
C6    N6    1.351103 A    
C107  N107  1.440783 S    
C171  C221  1.493857 S    
C49   H25   1.079192 S    
N28   N69   1.283531 A    
C274  H150  1.109265 S    
N81   O65   1.301172 A    
N33   N56   1.287719 A    
C4    C196  1.471892 S    
N83   O69   1.301264 A    
C18   N21   1.351441 A    
O47   C287  1.408596 S    
C58   C227  1.377377 A    
C49   C237  1.384166 A    
C267  H127  1.114020 S    
N37   N44   1.283279 A    
N88   O79   1.300941 A    
C284  H180  1.109365 S    
C16   N1    1.360235 A    
C246  H65   1.109584 S    
C55   H31   1.079873 S    
O38   C278  1.412269 S    
C173  C223  1.482310 S    
C160  O40   1.386184 S    
Ni7   N47   1.911693 S    
C283  H175  1.114101 S    
Ni12  N64   1.917607 S    
C243  H56   1.114110 S    
C36   N36   1.348127 A    
Ni5   N41   1.912075 S    
N40   N65   1.284220 A    
C87   C135  1.407497 A    
O30   C270  1.410929 S    
C33   C225  1.382375 A    
Ni7   N43   1.911931 S    
O5    C245  1.408690 S    
C47   N47   1.343401 A    
Ni8   N44   1.911928 S    
C47   H23   1.079998 S    
C174  C224  1.468214 S    
C146  C175  1.408897 A    
C191  C237  1.494218 S    
C33   N33   1.341412 A    
C276  H155  1.112534 S    
C43   N43   1.347464 A    
N89   O81   1.301500 A    
C275  H151  1.117000 S    
C155  C174  1.408153 A    
C27   N27   1.338124 A    
C261  H109  1.107016 S    
N96   O96   1.301024 A    
C187  C233  1.475035 S    
C259  H105  1.109151 S    
C125  C173  1.412595 A    
O24   C264  1.410763 S    
N53   N60   1.279978 A    
N118  O140  1.300823 A    
C244  H58   1.112889 S    
C39   N39   1.340781 A    
C39   H15   1.079627 S    
C113  C212  1.413300 A    
C84   C204  1.415766 A    
C280  H167  1.109191 S    
C114  C211  1.414088 A    
C85   C205  1.414490 A    
C21   N18   1.351329 A    
N110  O123  1.301716 A    
C9    N24   1.351211 A    
C93   N93   1.438721 S    
C285  H181  1.110795 S    
C286  H186  1.109345 S    
N91   O85   1.301222 A    
C141  O21   1.383401 S    
C273  H145  1.114001 S    
N102  O107  1.300985 A    
C81   C201  1.416896 A    
C8    N16   1.359894 A    
C29   C221  1.390304 A    
C12   N9    1.354366 A    
C63   N63   1.343705 A    
C185  C235  1.493657 S    
C82   N82   1.439862 S    
C29   N29   1.342140 A    
N77   O58   1.301330 A    
Ni6   N53   1.913172 S    
C49   N49   1.338416 A    
C71   N71   1.341887 A    
Ni8   N51   1.910770 S    
C155  O35   1.385753 S    
C12   N5    1.351871 A    
C35   N35   1.346133 A    
C148  O28   1.381863 S    
C87   C207  1.414566 A    
C250  H76   1.112294 S    
Ni10  N62   1.911104 S    
C95   C143  1.409573 A    
C34   N34   1.348515 A    
N82   O67   1.301567 A    
C78   C198  1.408253 A    
C288  H190  1.112342 S    
N95   O94   1.301420 A    
C142  O22   1.380637 S    
C252  H82   1.115009 S    
C258  H101  1.112513 S    
C41   C233  1.373219 A    
C25   N25   1.346154 A    
C9    C201  1.467970 S    
C92   C140  1.409001 A    
C68   N68   1.349755 A    
C69   C220  1.389998 A    
N111  O126  1.301462 A    
C95   N95   1.438817 S    
C147  O27   1.381113 S    
C72   C237  1.391181 A    
N101  O106  1.301323 A    
Ni11  N59   1.917747 S    
C246  H64   1.116361 S    
C2    C194  1.468117 S    
N113  O130  1.301409 A    
N78   O59   1.299845 A    
N105  O114  1.300823 A    
C143  C187  1.408092 A    
C241  H49   1.111124 S    
C169  C219  1.493741 S    
N100  O103  1.301057 A    
C110  C158  1.403821 A    
C21   N14   1.354527 A    
O23   C263  1.410236 S    
O4    C244  1.410692 S    
O6    C246  1.416271 S    
C273  H147  1.107189 S    
C18   C210  1.464961 S    
Ni2   N37   1.916238 S    
C281  H170  1.114042 S    
C257  H97   1.114436 S    
C159  O39   1.381788 S    
C100  C148  1.419234 A    
C267  H129  1.105641 S    
C120  C205  1.415171 A    
C101  C208  1.414963 A    
C157  C186  1.408937 A    
C96   N96   1.436661 S    
C102  C207  1.413829 A    
Ni6   N49   1.912953 S    
Ni9   N61   1.911105 S    
C61   C224  1.378769 A    
C113  N113  1.438297 S    
N25   N52   1.283279 A    
C45   C235  1.385953 A    
C98   C199  1.413115 A    
C283  H177  1.107070 S    
C116  N116  1.440180 S    
C59   C240  1.389079 A    
C263  H115  1.112759 S    
C66   H42   1.076805 S    
C279  H164  1.113674 S    
C28   C220  1.384460 A    
C278  H162  1.107673 S    
N79   O62   1.300267 A    
C106  C154  1.412316 A    
C265  H122  1.113954 S    
C26   H2    1.075677 S    
O18   C258  1.411100 S    
C44   N44   1.347210 A    
C52   H28   1.076739 S    
C275  H153  1.108995 S    
Ni6   N46   1.912046 S    
C247  H67   1.115952 S    
C61   H37   1.076930 S    
C245  H61   1.105832 S    
C40   C232  1.381694 A    
C54   H30   1.075338 S    
C153  O33   1.381261 S    
C259  H103  1.110832 S    
C242  H54   1.109319 S    
N84   O72   1.301372 A    
C147  C189  1.409560 A    
C56   H32   1.077909 S    
C256  H95   1.112564 S    
C25   H1    1.077130 S    
C60   H36   1.075764 S    
C35   H11   1.076868 S    
N99   O101  1.301360 A    
C255  H91   1.106220 S    
C241  H51   1.109187 S    
C61   N61   1.341648 A    
C164  C169  1.416576 A    
C119  C206  1.413826 A    
C104  N104  1.441052 S    
N113  O129  1.301338 A    
C181  C231  1.495569 S    
N41   N68   1.279978 A    
C244  H59   1.112766 S    
C88   C136  1.403195 A    
N117  O138  1.301469 A    
O35   C275  1.416644 S    
C154  C189  1.409947 A    
C158  C185  1.412166 A    
C23   N10   1.360190 A    
O48   C288  1.412338 S    
C48   H24   1.077420 S    
C257  H99   1.104592 S    
C110  N110  1.442343 S    
N109  O121  1.301118 A    
N119  O142  1.301440 A    
C16   C208  1.475951 S    
C248  H72   1.109368 S    
C264  H119  1.112739 S    
N31   N62   1.284220 A    
C190  C240  1.489223 S    
C282  H174  1.109259 S    
Ni2   N33   1.916149 S    
C131  C179  1.410682 A    
C93   C141  1.406832 A    
C251  H79   1.108781 S    
N90   O84   1.301147 A    
Ni10  N58   1.910960 S    
C129  C177  1.409267 A    
N54   N59   1.279978 A    
C68   C233  1.386375 A    
C86   N86   1.436727 S    
N80   O64   1.300271 A    
C111  C159  1.412734 A    
C10   N23   1.360264 A    
C288  H192  1.107472 S    
C117  N117  1.438725 S    
O12   C252  1.413571 S    
C132  O12   1.386087 S    
C52   N52   1.340539 A    
C252  H84   1.109306 S    
N38   N43   1.283279 A    
N87   O78   1.301200 A    
C123  C171  1.417346 A    
C81   N81   1.449965 S    
C104  C152  1.404871 A    
C281  H171  1.106665 S    
N115  O134  1.300859 A    
C121  C169  1.416521 A    
C141  C172  1.412610 A    
C26   C218  1.390400 A    
C271  H140  1.113617 S    
N83   O70   1.301342 A    
N114  O132  1.300979 A    
C2    N2    1.349855 A    
C127  O7    1.382572 S    
O31   C271  1.408464 S    
C13   N17   1.355132 A    
C158  O38   1.381201 S    
C37   C229  1.376030 A    
O3    C243  1.409197 S    
C116  C193  1.416006 A    
Ni10  N69   1.917567 S    
C96   C144  1.403766 A    
C3    N3    1.360045 A    
C269  H133  1.108495 S    
C248  H70   1.112251 S    
N39   N66   1.284220 A    
C109  C210  1.414613 A    
C8    C200  1.497273 S    
C16   N12   1.354251 A    
C168  O48   1.380988 S    
C1    N21   1.356197 A    
N112  O127  1.299290 A    
C31   N31   1.341374 A    
C46   H22   1.079155 S    
C149  O29   1.383756 S    
C140  C186  1.408267 A    
C107  C155  1.405667 A    
O22   C262  1.412873 S    
C47   C222  1.383075 A    
N100  O104  1.301211 A    
C137  C180  1.407885 A    
C105  C153  1.404609 A    
C19   C211  1.474471 S    
C100  N100  1.453599 S    
C118  N118  1.439985 S    
O20   C260  1.415901 S    
C97   C200  1.414778 A    
C65   N65   1.342828 A    
C256  H94   1.112736 S    
C19   N23   1.359508 A    
C95   C211  1.415020 A    
C274  H148  1.115012 S    
C73   C193  1.416118 A    
C160  C177  1.408617 A    
C170  C220  1.492048 S    
O33   C273  1.416347 S    
C263  H117  1.107568 S    
C99   C147  1.409452 A    
O28   C268  1.415124 S    
C114  C162  1.403200 A    
C134  C182  1.408355 A    
C58   H34   1.076197 S    
C97   C145  1.412213 A    
C24   C216  1.498907 S    
C71   H47   1.080098 S    
N73   O49   1.301256 A    
C177  C227  1.477838 S    
C77   N77   1.436987 S    
C152  O32   1.380908 S    
Ni1   N25   1.905763 S    
C262  H112  1.112500 S    
C118  C166  1.404648 A    
C247  H69   1.105172 S    
C26   N26   1.346460 A    
C101  C149  1.408658 A    
C151  C191  1.415963 A    
C253  H85   1.112492 S    
C262  H114  1.107798 S    
C133  C181  1.416818 A    
C242  H52   1.114067 S    
C156  O36   1.384825 S    
C150  C183  1.413660 A    
C62   C223  1.386602 A    
N85   O74   1.301493 A    
C101  N101  1.438054 S    
O34   C274  1.413748 S    
C56   N56   1.346541 A    
C46   C236  1.380091 A    
C255  H93   1.109101 S    
N94   O91   1.301687 A    
C250  H77   1.113083 S    
C103  N103  1.438947 S    
C268  H130  1.114066 S    
C76   N76   1.437072 S    
N90   O83   1.300961 A    
C86   C206  1.413493 A    
C22   N17   1.352648 A    
C32   C224  1.380535 A    
C39   C231  1.388885 A    
N87   O77   1.301251 A    
C83   C131  1.408021 A    
C272  H144  1.107879 S    
C85   N85   1.439008 S    
C109  N109  1.440077 S    
C82   C202  1.415357 A    
C272  H142  1.112638 S    
C121  O1    1.381945 S    
O14   C254  1.410557 S    
C184  C226  1.477774 S    
C9    N8    1.354118 A    
C102  N102  1.436422 S    
C10   N7    1.356846 A    
C251  H81   1.109213 S    
N50   N71   1.287176 A    
C11   N6    1.354114 A    
C29   H5    1.080095 S    
C93   C196  1.413654 A    
Ni5   N45   1.912047 S    
N120  O144  1.300630 A    
C94   C195  1.414893 A    
C13   N4    1.359810 A    
C14   N3    1.358406 A    
C41   N41   1.339240 A    
N49   N72   1.287176 A    
C182  C232  1.474826 S    
C73   C121  1.412483 A    
C36   H12   1.076913 S    
C192  C238  1.493287 S    
C56   C225  1.387505 A    
C17   C209  1.496336 S    
C37   N37   1.339533 A    
N104  O111  1.301677 A    
O25   C265  1.409606 S    
C189  C239  1.484244 S    
N119  O141  1.301395 A    
C254  H89   1.112743 S    
C99   N99   1.450071 S    
O17   C257  1.416481 S    
C10   C202  1.498198 S    
C263  H116  1.113537 S    
C82   C130  1.406079 A    
C267  H128  1.108181 S    
C161  C188  1.407837 A    
N88   O80   1.301204 A    
C260  H107  1.109718 S    
C162  C187  1.409718 A    
C3    C195  1.497022 S    
C150  O30   1.384747 S    
C253  H86   1.113524 S    
C282  H172  1.112824 S    
C86   C134  1.402669 A    
C63   H39   1.077158 S    
C66   N66   1.345834 A    
N86   O75   1.301100 A    
C32   H8    1.079240 S    
C283  H176  1.109958 S    
N95   O93   1.301312 A    
N35   N58   1.283531 A    
N108  O119  1.300966 A    
C30   C222  1.380604 A    
N45   N64   1.287176 A    
C89   N89   1.450153 S    
C115  C194  1.414755 A    
C53   C239  1.386964 A    
C22   N13   1.350293 A    
C90   N90   1.436400 S    
C108  C156  1.405375 A    
C2    N22   1.351827 A    
O19   C259  1.410056 S    
C27   C219  1.381600 A    
Ni3   N40   1.906837 S    
C57   C228  1.384279 A    
C275  H152  1.108390 S    
C254  H88   1.112833 S    
N103  O110  1.301500 A    
C131  O11   1.383932 S    
C276  H154  1.112724 S    
Ni9   N66   1.917398 S    
C136  O16   1.385034 S    
C261  H110  1.114345 S    
N115  O133  1.301691 A    
O27   C267  1.416288 S    
C266  H126  1.109333 S    
C103  C151  1.410292 A    
N107  O117  1.301070 A    
C64   H40   1.076715 S    
C20   N24   1.354183 A    
C245  H62   1.114933 S    
C67   H43   1.079747 S    
C83   C203  1.414563 A    
C50   H26   1.077178 S    
C5    N20   1.360644 A    
N110  O124  1.300623 A    
C66   C231  1.389263 A    
C65   H41   1.079996 S    
C6    N19   1.350596 A    
C286  H185  1.112726 S    
Ni3   N31   1.917194 S    
C249  H73   1.115224 S    
C24   N20   1.361187 A    
N27   N70   1.283531 A    
C273  H146  1.110026 S    
C277  H157  1.117008 S    
C68   H44   1.079371 S    
C183  C225  1.484421 S    
C69   H45   1.073242 S    
C261  H111  1.109115 S    
N77   O57   1.301357 A    
N42   N67   1.279978 A    
C42   H18   1.079805 S    
C179  C229  1.474697 S    
C84   N84   1.438019 S    
C30   H6    1.078219 S    
C148  C190  1.416640 A    
C111  N111  1.438371 S    
C20   C212  1.472995 S    
C99   C213  1.417194 A    
C245  H63   1.109073 S    
N82   O68   1.300122 A    
C268  H132  1.109339 S    
N79   O61   1.301151 A    
C55   C226  1.376453 A    
C60   C239  1.381684 A    
C285  H183  1.109170 S    
C178  C228  1.496357 S    
C5    C197  1.480012 S    
C24   N9    1.357291 A    
C76   C196  1.413853 A    
C7    C199  1.469999 S    
C77   C197  1.413809 A    
Ni4   N35   1.906752 S    
C125  O5    1.383372 S    
N101  O105  1.301268 A    
C89   C137  1.408247 A    
C126  C174  1.408516 A    
C15   C207  1.478823 S    
C287  H187  1.106484 S    
N78   O60   1.301403 A    
C55   N55   1.338584 A    
C137  O17   1.380987 S    
N116  O135  1.301524 A    
C241  H50   1.113641 S    
C40   H16   1.079232 S    
C120  C168  1.405045 A    
N34   N55   1.287719 A    
C111  C202  1.415983 A    
O8    C248  1.412225 S    
C57   N57   1.339615 A    
N96   O95   1.301020 A    
C34   H10   1.079089 S    
N81   O66   1.300355 A    
C97   N97   1.438825 S    
C142  C171  1.410261 A    
C59   N59   1.344331 A    
C63   C236  1.381328 A    
C17   N11   1.361685 A    
C18   N12   1.350726 A    
C78   C126  1.407724 A    
C50   N50   1.348188 A    
C172  C222  1.475900 S    
C128  O8    1.382286 S    
C23   C215  1.493766 S    
C246  H66   1.107660 S    
C33   H9    1.079708 S    
Ni5   N54   1.913176 S    
C154  O34   1.383860 S    
N29   N48   1.287719 A    
C145  O25   1.381331 S    
C274  H149  1.109450 S    
Ni11  N63   1.917603 S    
C28   N28   1.338199 A    
O7    C247  1.417291 S    
C249  H74   1.107257 S    
C145  C176  1.419406 A    
N111  O125  1.301271 A    
C37   H13   1.079758 S    
C243  H55   1.108554 S    
C12   C204  1.472412 S    
C110  C209  1.415106 A    
C122  O2    1.382338 S    
O45   C285  1.410071 S    
C13   C205  1.493981 S    
C270  H136  1.112754 S    
C278  H161  1.113561 S    
C98   N98   1.437019 S    
N97   O97   1.301262 A    
C42   C234  1.386047 A    
C4    N13   1.353563 A    
C78   N78   1.438765 S    
C265  H123  1.109098 S    
C168  C181  1.412627 A    
C124  C172  1.407879 A    
C51   H27   1.078719 S    
C255  H92   1.113801 S    
O36   C276  1.410943 S    
C247  H68   1.106568 S    
C276  H156  1.109279 S    
N89   O82   1.300846 A    
C105  C214  1.414987 A    
C242  H53   1.111328 S    
C44   C229  1.384300 A    
C106  N106  1.438310 S    
C266  H124  1.115195 S    
C31   H7    1.079891 S    
O16   C256  1.410908 S    
C115  N115  1.450694 S    
N118  O139  1.301510 A    
N102  O108  1.301425 A    
O29   C269  1.409456 S    
C45   H21   1.079850 S    
C138  O18   1.385186 S    
C43   H19   1.076796 S    
C135  C183  1.413284 A    
C139  C185  1.417659 A    
N109  O122  1.299322 A    
N46   N63   1.287176 A    
C76   C124  1.402361 A    
C133  O13   1.379137 S    
C3    N14   1.357576 A    
C109  C157  1.406729 A    
N106  O115  1.298458 A    
C134  O14   1.383272 S    
C120  N120  1.442355 S    
C176  C218  1.499379 S    
N75   O53   1.301286 A    
C75   C123  1.414462 A    
C38   C230  1.379487 A    
C41   H17   1.079718 S    
C248  H71   1.112905 S    
N117  O137  1.301244 A    
Ni4   N32   1.917198 S    
C127  C175  1.408671 A    
C46   N46   1.342889 A    
C87   N87   1.438184 S    
C35   C227  1.385130 A    
C256  H96   1.109367 S    
C251  H80   1.114200 S    
O42   C282  1.410735 S    
C74   N74   1.453402 S    
Ni5   N50   1.912949 S    
C1    N1    1.361350 A    
O41   C281  1.409426 S    
C167  O47   1.383770 S    
C153  C190  1.411818 A    
N106  O116  1.301408 A    
C65   C232  1.382277 A    
C15   N11   1.361400 A    
N98   O100  1.301240 A    
C4    N4    1.358368 A    
N120  O143  1.301706 A    
C143  O23   1.382910 S    
C252  H83   1.109355 S    
C284  H179  1.112667 S    
C27   H3    1.079257 S    
C258  H102  1.109381 S    
C54   C240  1.383707 A    
C7    N7    1.353860 A    
C8    N8    1.357235 A    
C79   C127  1.408662 A    
C58   N58   1.339135 A    
O44   C284  1.412107 S    
C112  C160  1.412754 A    
C126  O6    1.384648 S    
C75   C195  1.417384 A    
C32   N32   1.343004 A    
C254  H90   1.109271 S    
O11   C251  1.409637 S    
C91   C139  1.414705 A    
C96   C212  1.414339 A    
C15   N2    1.355100 A    
C156  C173  1.413215 A    
C25   C217  1.384364 A    
O21   C261  1.408058 S    
C36   C228  1.390497 A    
C287  H189  1.109084 S    
C62   N62   1.346928 A    
C282  H173  1.112654 S    
C269  H134  1.114154 S    
C163  C170  1.412347 A    
C89   C204  1.416925 A    
C161  O41   1.381993 S    
C244  H60   1.109257 S    
C90   C203  1.413816 A    
N112  O128  1.301279 A    
C278  H160  1.112461 S    
C38   H14   1.076320 S    
C88   C208  1.413105 A    
C167  C182  1.411521 A    
C94   N94   1.441599 S    
C271  H139  1.112580 S    
C11   C203  1.473990 S    
N26   N51   1.283279 A    
C19   N15   1.355240 A    
C94   C142  1.404225 A    
Ni2   N26   1.905763 S    
C42   N42   1.347431 A    
C259  H104  1.113782 S    
N98   O99   1.299623 A    
C130  C178  1.416473 A    
N99   O102  1.300837 A    
C269  H135  1.109180 S    
C53   N53   1.345262 A    
C144  C188  1.409847 A    
C71   C238  1.386581 A    
C84   C132  1.415633 A    
C243  H57   1.109101 S    
C138  C179  1.410494 A    
C175  C217  1.478675 S    
C279  H163  1.111165 S    
O10   C250  1.411998 S    
N30   N47   1.287719 A    
Ni1   N34   1.916145 S    
C188  C234  1.474570 S    
C265  H121  1.108746 S    
C73   N73   1.438438 S    
C122  C170  1.417149 A    
C166  O46   1.382966 S    
Ni3   N36   1.906752 S    
C72   N72   1.347440 A    
C64   C235  1.387812 A    
N105  O113  1.301594 A    
C11   N10   1.358544 A    
C30   N30   1.344127 A    
C116  C164  1.404212 A    
C67   N67   1.339751 A    
C262  H113  1.113588 S    
C157  O37   1.385848 S    
N84   O71   1.298593 A    
C34   C226  1.387794 A    
C123  O3    1.381600 S    
N85   O73   1.301298 A    
C60   N60   1.339445 A    
C285  H182  1.113785 S    
Ni11  N72   1.911168 S    
Ni8   N55   1.910849 S    
C14   N18   1.354239 A    
C264  H118  1.112905 S    
C180  C230  1.482418 S    
N94   O92   1.300389 A    
C288  H191  1.113746 S    
O15   C255  1.408046 S    
C164  O44   1.382944 S    
O1    C241  1.410286 S    
C163  O43   1.381015 S    
C79   C199  1.417225 A    
C280  H166  1.115346 S    
N92   O87   1.299649 A    
C135  O15   1.382950 S    
O2    C242  1.415653 S    
C165  O45   1.381881 S    
C45   N45   1.340084 A    
C272  H143  1.113674 S    
C88   N88   1.436149 S    
Ni4   N28   1.917303 S    
C48   C221  1.385962 A    
C79   N79   1.449502 S    
N32   N61   1.284220 A    
C264  H120  1.109250 S    
C260  H108  1.107811 S    
C253  H87   1.106910 S    
C132  C180  1.409164 A    
C129  O9    1.382585 S    
C70   N70   1.349109 A    
C1    C193  1.496712 S    
C112  N112  1.437426 S    
O13   C253  1.408102 S    
Ni8   N48   1.911697 S    
C117  C216  1.418048 A    
C124  O4    1.383034 S    
C28   H4    1.075360 S    
C7    N15   1.352014 A    
C118  C215  1.416520 A    
C139  O19   1.381526 S    
C151  O31   1.379609 S    
C136  C184  1.411993 A    
Ni6   N42   1.912075 S    
N80   O63   1.301564 A    
N76   O56   1.301301 A    
C159  C178  1.417324 A    
C115  C163  1.406113 A    
C80   C200  1.414113 A    
C77   C125  1.407627 A    
C98   C146  1.413763 A    
C50   C238  1.386025 A    
