data_mof_unit_34466.cif
_audit_creation_date              2012-12-10T19:07:36-0500
_audit_creation_method            fapswitch 2.2
_symmetry_space_group_name_H-M    P1
_symmetry_Int_Tables_number       1
_space_group_crystal_system       triclinic
_cell_length_a                    10.814095
_cell_length_b                    10.832626
_cell_length_c                    9.585977
_cell_angle_alpha                 90.544295
_cell_angle_beta                  90.704287
_cell_angle_gamma                 90.606326
_cell_volume                      1122.74994081

loop_
_atom_site_label
_atom_site_type_symbol
_atom_type_description
_atom_site_fract_x
_atom_site_fract_y
_atom_site_fract_z
_atom_type_partial_charge
C1    C     C_R   0.497591 0.262685 0.499516 0.896911
C2    C     C_R   0.936594 0.416089 0.574169 0.098178
C3    C     C_3   0.938171 0.386709 0.726793 -0.434338
C4    C     C_3   0.077760 0.378942 0.718988 0.228166
C5    C     C_R   0.540728 0.065535 0.611900 -0.026232
C6    C     C_R   0.490426 0.129546 0.500127 -0.066739
C7    C     C_R   0.428250 0.063622 0.393699 -0.235822
C8    C     C_R   0.429765 0.933822 0.391297 0.482125
C9    C     C_R   0.489783 0.870810 0.501258 -0.111992
C10   C     C_R   0.538942 0.938515 0.614024 -0.076437
C11   C     C_3   0.664002 0.933746 0.683134 0.303280
C12   C     C_R   0.262834 0.500249 0.498822 0.909039
C13   C     C_3   0.667157 0.074635 0.675909 0.162634
C14   C     C_R   0.558212 0.592131 0.075104 0.167525
C15   C     C_R   0.427475 0.419622 0.070885 0.417475
C16   C     C_R   0.429091 0.418940 0.922707 -0.118370
C17   C     C_R   0.558177 0.592063 0.928184 0.229338
C18   C     C_3   0.691736 0.624144 0.924969 -0.520572
C19   C     C_3   0.691407 0.626458 0.082594 -0.417036
C20   C     C_R   0.498373 0.737479 0.500353 0.897854
C21   C     C_R   0.737556 0.503246 0.501076 0.939907
C22   C     C_R   0.063969 0.412782 0.569570 0.062764
C23   C     C_R   0.129778 0.499465 0.493397 -0.290746
C24   C     C_R   0.065750 0.582811 0.407442 0.404772
C25   C     C_R   0.936511 0.590677 0.418156 0.232688
C26   C     C_R   0.871421 0.506576 0.502245 -0.248640
Cu1   Cu    Cu3+1 0.499990 0.499980 0.640670 0.974497
Cu2   Cu    Cu3+1 0.500010 0.500020 0.359330 1.049817
H1    H     H_    0.667369 0.120713 0.779986 0.081040
H2    H     H_    0.373312 0.352244 0.864681 0.208787
H3    H     H_    0.746954 0.548180 0.881560 0.217180
H4    H     H_    0.708930 0.715906 0.879818 0.192089
H5    H     H_    0.750044 0.553663 0.129331 0.238038
H6    H     H_    0.704608 0.721239 0.125425 0.242425
H7    H     H_    0.909766 0.465915 0.792062 0.136806
H8    H     H_    0.891396 0.297988 0.751134 0.262770
H9    H     H_    0.127613 0.449668 0.783735 0.110881
H10   H     H_    0.380335 0.112246 0.311935 0.218073
H11   H     H_    0.657609 0.897699 0.791056 0.018859
N1    N     N_R   0.500790 0.500930 0.147930 -0.216093
N2    N     N_R   0.500790 0.500890 0.852020 -0.215381
O1    O     O_R   0.500000 0.319640 0.618810 -0.585387
O2    O     O_R   0.500010 0.319680 0.381230 -0.544186
O3    O     O_R   0.319650 0.499970 0.618810 -0.609578
O4    O     O_R   0.319660 0.500010 0.381230 -0.525137
O5    O     O_R   0.499990 0.680320 0.618770 -0.600697
O6    O     O_R   0.500000 0.680360 0.381190 -0.541590
O7    O     O_R   0.680340 0.499990 0.618770 -0.589354
O8    O     O_R   0.680350 0.500030 0.381190 -0.565256
O9    O     O_3   0.130780 0.668534 0.330244 -0.518175
C27   C     C_3   0.125776 0.631978 0.188499 -0.139373
H12   H     H_    0.160129 0.536432 0.173019 0.170459
H13   H     H_    0.186441 0.694608 0.128427 0.182332
H14   H     H_    0.030637 0.639345 0.144428 0.165833
O10   O     O_3   0.751835 0.875707 0.597102 -0.498477
C28   C     C_3   0.863218 0.858653 0.672772 -0.090855
H15   H     H_    0.860982 0.768326 0.726108 0.104947
H16   H     H_    0.884258 0.934296 0.749411 0.155778
H17   H     H_    0.940839 0.856658 0.598304 0.236333
Cl1   Cl    Cl    0.778368 0.136332 0.556947 -0.555332
Cl2   Cl    Cl    0.325979 0.315416 0.150170 -0.629604
Cl3   Cl    Cl    0.861664 0.719174 0.346067 -0.595220
Cl4   Cl    Cl    0.134144 0.225578 0.737089 -0.560680
O11   O     O_3   0.367422 0.868055 0.286987 -0.539610
C29   C     C_3   0.424076 0.890014 0.157506 -0.235260
H18   H     H_    0.388205 0.820906 0.080634 0.165315
H19   H     H_    0.526360 0.879169 0.163627 0.153481
H20   H     H_    0.400308 0.982785 0.117410 0.183772

loop_
_geom_bond_atom_site_label_1
_geom_bond_atom_site_label_2
_ccdc_geom_bond_type
Cu1   O7    S    
C2    C22   A    
O10   C28   S    
Cu2   O6    S    
C6    C7    A    
C12   O4    A    
C4    C22   S    
C9    C10   A    
Cu1   N2    S    
C9    C20   S    
C5    C13   S    
C14   C19   S    
Cu1   O1    S    
C28   H17   S    
C3    H7    S    
C14   C17   A    
C21   C26   S    
C27   H14   S    
O11   C29   S    
C21   O7    A    
C21   O8    A    
C2    C3    S    
C15   Cl2   S    
C5    C10   A    
C2    C26   A    
C13   Cl1   S    
C28   H15   S    
C11   H11   S    
C11   C13   S    
C4    Cl4   S    
C3    H8    S    
C8    O11   S    
C16   N2    A    
Cu1   O5    S    
C13   H1    S    
C7    H10   S    
C28   H16   S    
C17   C18   S    
C25   Cl3   S    
C24   O9    S    
C5    C6    A    
C15   N1    A    
C17   N2    A    
Cu2   O4    S    
C20   O6    A    
C18   H4    S    
C10   C11   S    
Cu2   N1    S    
C23   C24   A    
C16   H2    S    
C27   H12   S    
C1    O1    A    
C7    C8    A    
C29   H20   S    
C11   O10   S    
C24   C25   A    
C8    C9    A    
C12   O3    A    
C29   H18   S    
Cu2   O8    S    
Cu1   Cu2   S    
C22   C23   A    
C18   C19   S    
C29   H19   S    
C12   C23   S    
C18   H3    S    
Cu2   O2    S    
O9    C27   S    
C25   C26   A    
C14   N1    A    
Cu1   O3    S    
C1    O2    A    
C20   O5    A    
C3    C4    S    
C15   C16   A    
C19   H5    S    
C4    H9    S    
C27   H13   S    
C19   H6    S    
C1    C6    S    
