data_mof_unit_37243.cif
_audit_creation_date              2012-12-11T17:12:46-0500
_audit_creation_method            fapswitch 2.2
_symmetry_space_group_name_H-M    P1
_symmetry_Int_Tables_number       1
_space_group_crystal_system       triclinic
_cell_length_a                    17.153394
_cell_length_b                    6.887959
_cell_length_c                    14.36024
_cell_angle_alpha                 89.999171
_cell_angle_beta                  109.870387
_cell_angle_gamma                 90.000235
_cell_volume                      1595.67505476

loop_
_atom_site_label
_atom_site_type_symbol
_atom_type_description
_atom_site_fract_x
_atom_site_fract_y
_atom_site_fract_z
_atom_type_partial_charge
O1    O     O_R   0.314130 0.635770 0.168990 -0.536239
O2    O     O_R   0.685870 0.364230 0.831010 -0.536331
O3    O     O_R   0.185870 0.135770 0.331010 -0.536240
O4    O     O_R   0.814130 0.864230 0.668990 -0.536330
O5    O     O_R   0.146800 0.302460 0.139760 -0.536779
O6    O     O_R   0.853200 0.697540 0.860240 -0.537131
O7    O     O_R   0.353200 0.802460 0.360240 -0.536780
O8    O     O_R   0.646800 0.197540 0.639760 -0.537132
C1    C     C_R   0.114068 0.475858 0.112710 0.726099
C2    C     C_R   0.885975 0.524145 0.887215 0.725872
C3    C     C_R   0.385932 0.975857 0.387290 0.726097
C4    C     C_R   0.614025 0.024146 0.612784 0.725873
O9    O     O_R   0.311100 0.305780 0.157130 -0.543435
O10   O     O_R   0.688900 0.694220 0.842870 -0.543527
O11   O     O_R   0.188900 0.805780 0.342870 -0.543433
O12   O     O_R   0.811100 0.194220 0.657130 -0.543528
O13   O     O_R   0.351340 0.139640 0.348510 -0.535249
O14   O     O_R   0.648660 0.860360 0.651490 -0.535163
O15   O     O_R   0.148660 0.639640 0.151490 -0.535248
O16   O     O_R   0.851340 0.360360 0.848510 -0.535164
C5    C     C_R   0.331709 0.475939 0.134350 0.736766
C6    C     C_R   0.668159 0.524082 0.865458 0.738303
C7    C     C_R   0.168292 0.975937 0.365652 0.736776
C8    C     C_R   0.831840 0.024084 0.634541 0.738302
C9    C     C_1   0.533555 0.008885 0.533101 -0.188974
C10   C     C_1   0.466364 0.991098 0.467034 -0.190325
C11   C     C_1   0.966445 0.508884 0.966899 -0.188977
C12   C     C_1   0.033636 0.491099 0.032966 -0.190321
O17   O     O_3   0.263010 0.470920 0.312770 -0.369564
O18   O     O_3   0.736990 0.529080 0.687230 -0.369942
O19   O     O_3   0.236990 0.970920 0.187230 -0.369564
O20   O     O_3   0.763010 0.029080 0.812770 -0.369940
V1    V     V_3+5 0.247590 0.194450 0.238360 1.414972
V2    V     V_3+5 0.752410 0.805550 0.761640 1.417381
V3    V     V_3+5 0.252410 0.694450 0.261640 1.414977
V4    V     V_3+5 0.747590 0.305550 0.738360 1.417380
C13   C     C_R   0.119554 0.992580 0.432905 -0.124698
C14   C     C_R   0.880463 0.007317 0.567239 -0.135252
C15   C     C_R   0.380448 0.492589 0.067097 -0.124707
C16   C     C_R   0.619535 0.507311 0.932758 -0.135246
C17   C     C_R   0.905705 0.860233 0.424786 0.454216
C18   C     C_R   0.093890 0.137974 0.575275 0.442644
C19   C     C_R   0.594294 0.360227 0.075213 0.454212
C20   C     C_R   0.406109 0.637974 0.924722 0.442642
C21   C     C_R   0.853770 0.887348 0.482115 0.076234
C22   C     C_R   0.145684 0.114004 0.517596 0.059111
C23   C     C_R   0.646229 0.387344 0.017884 0.076235
C24   C     C_R   0.354320 0.614024 0.982409 0.059089
C25   C     C_R   0.958261 0.096292 0.594482 -0.245203
C26   C     C_R   0.042236 0.900765 0.406312 -0.249391
C27   C     C_R   0.541737 0.596284 0.905512 -0.245218
C28   C     C_R   0.457762 0.400762 0.093687 -0.249393
C29   C     C_R   0.012897 0.059234 0.542353 -0.026288
C30   C     C_R   0.986840 0.939285 0.457333 -0.038669
C31   C     C_R   0.487101 0.559227 0.957643 -0.026284
C32   C     C_R   0.513159 0.439280 0.042665 -0.038666
H1    H     H_    0.024462 0.805240 0.342734 0.153071
H2    H     H_    0.977464 0.187533 0.659867 0.167768
H3    H     H_    0.475535 0.305232 0.157264 0.153072
H4    H     H_    0.522533 0.687526 0.840125 0.167764
C33   C     C_3   0.228286 0.217673 0.546179 -0.745284
H5    H     H_    0.278160 0.114155 0.547265 0.179697
H6    H     H_    0.225324 0.334282 0.491803 0.223833
H7    H     H_    0.246041 0.286054 0.620313 0.224928
C34   C     C_3   0.769887 0.789532 0.452515 -0.744529
H8    H     H_    0.721222 0.897332 0.450543 0.174874
H9    H     H_    0.751947 0.721139 0.378533 0.235404
H10   H     H_    0.770686 0.673882 0.506589 0.220804
C35   C     C_3   0.271726 0.717727 0.953840 -0.745177
H11   H     H_    0.221846 0.614232 0.952781 0.179673
H12   H     H_    0.274711 0.834368 0.008214 0.223828
H13   H     H_    0.253961 0.786073 0.879691 0.224918
C36   C     C_3   0.730113 0.289532 0.047488 -0.744528
H14   H     H_    0.778777 0.397335 0.049456 0.174874
H15   H     H_    0.748054 0.221145 0.121472 0.235403
H16   H     H_    0.729315 0.173878 0.993417 0.220802
O21   O     O_3   0.878364 0.745492 0.340485 -0.560139
C37   C     C_3   0.853930 0.863617 0.254384 0.068063
H17   H     H_    0.900422 0.848899 0.216711 0.130359
H18   H     H_    0.848129 0.021345 0.268670 0.111533
C38   C     C_3   0.771064 0.792920 0.183075 -0.714313
H19   H     H_    0.720301 0.833333 0.210846 0.224260
H20   H     H_    0.758560 0.859886 0.109121 0.191091
H21   H     H_    0.772296 0.633007 0.175157 0.232091
O22   O     O_3   0.120653 0.248071 0.661065 -0.557814
C39   C     C_3   0.155174 0.121735 0.742372 0.054263
H22   H     H_    0.213886 0.057277 0.740005 0.144416
H23   H     H_    0.111624 0.002487 0.743734 0.122607
C40   C     C_3   0.174563 0.235615 0.838257 -0.707776
H24   H     H_    0.117798 0.308955 0.841248 0.218979
H25   H     H_    0.198125 0.136339 0.902646 0.185161
H26   H     H_    0.222775 0.345719 0.842894 0.217184
O23   O     O_3   0.621635 0.245488 0.159517 -0.560140
C41   C     C_3   0.646067 0.363616 0.245615 0.068069
H27   H     H_    0.599574 0.348896 0.283289 0.130356
H28   H     H_    0.651867 0.521346 0.231326 0.111532
C42   C     C_3   0.728934 0.292922 0.316927 -0.714312
H29   H     H_    0.779697 0.333333 0.289154 0.224258
H30   H     H_    0.741438 0.359892 0.390878 0.191091
H31   H     H_    0.727703 0.133010 0.324849 0.232090
O24   O     O_3   0.379343 0.748060 0.838927 -0.557816
C43   C     C_3   0.344822 0.621711 0.757625 0.054235
H32   H     H_    0.286139 0.557169 0.760030 0.144405
H33   H     H_    0.388390 0.502533 0.756233 0.122626
C44   C     C_3   0.325376 0.735602 0.661740 -0.707700
H34   H     H_    0.382111 0.809062 0.658715 0.218968
H35   H     H_    0.301826 0.636304 0.597355 0.185154
H36   H     H_    0.277132 0.845618 0.657126 0.217170

loop_
_geom_bond_atom_site_label_1
_geom_bond_atom_site_label_2
_ccdc_geom_bond_type
C2    C11   S    
C16   C23   A    
C31   C32   A    
O1    C5    A    
O23   C41   S    
C35   H13   S    
C36   H14   S    
O3    C7    A    
C37   C38   S    
C24   C35   S    
C42   H31   S    
C38   H19   S    
C14   C25   A    
O21   C37   S    
O7    C3    A    
C44   H35   S    
C26   C30   A    
O20   V4    S    
C18   C29   A    
C17   O21   S    
O4    C8    A    
C39   H23   S    
O3    V1    S    
O17   V1    S    
C43   C44   S    
C35   H12   S    
C18   C22   A    
C33   H6    S    
C14   C21   A    
C38   H20   S    
C1    O15   A    
C29   C30   A    
C2    O16   A    
C34   H9    S    
O5    V1    S    
O2    C6    A    
C8    C14   S    
O19   V1    S    
C40   H25   S    
C27   C31   A    
C33   H5    S    
O11   C7    A    
C15   C28   A    
O12   C8    A    
C36   H15   S    
C35   H11   S    
O13   V1    S    
O11   V3    S    
C42   H30   S    
C42   H29   S    
C44   H36   S    
O4    V2    S    
O18   V2    S    
C22   C33   S    
C43   H32   S    
O24   C43   S    
C23   C36   S    
C39   H22   S    
C41   C42   S    
C9    C10   T    
O22   C39   S    
C25   H2    S    
O6    V2    S    
O20   V2    S    
C33   H7    S    
C41   H28   S    
O5    C1    A    
C28   H3    S    
C5    C15   S    
O8    C4    A    
C34   H10   S    
C6    C16   S    
O9    C5    A    
C18   O22   S    
C40   H26   S    
C43   H33   S    
O14   V2    S    
C34   H8    S    
C21   C34   S    
C36   H16   S    
O19   V3    S    
C38   H21   S    
O1    V3    S    
O2    V4    S    
C3    O13   A    
C37   H17   S    
C26   H1    S    
O7    V3    S    
C39   C40   S    
O10   V2    S    
O6    C2    A    
C20   O24   S    
O8    V4    S    
C16   C27   A    
C44   H34   S    
O17   V3    S    
C3    C10   S    
O18   V4    S    
C4    C9    S    
O10   C6    A    
C13   C22   A    
C7    C13   S    
O12   V4    S    
C13   C26   A    
C20   C31   A    
C25   C29   A    
C19   O23   S    
C37   H18   S    
C41   H27   S    
C17   C30   A    
O16   V4    S    
C20   C24   A    
C19   C32   A    
O9    V1    S    
C4    O14   A    
C11   C12   T    
C17   C21   A    
O15   V3    S    
C27   H4    S    
C40   H24   S    
C19   C23   A    
C28   C32   A    
C1    C12   S    
C15   C24   A    
