data_mof_unit_18456.cif
_audit_creation_date              2012-12-11T21:06:10-0500
_audit_creation_method            fapswitch 2.2
_symmetry_space_group_name_H-M    P1
_symmetry_Int_Tables_number       1
_space_group_crystal_system       triclinic
_cell_length_a                    36.453608
_cell_length_b                    39.372038
_cell_length_c                    8.397611
_cell_angle_alpha                 90.000201
_cell_angle_beta                  93.759132
_cell_angle_gamma                 90.007373
_cell_volume                      12026.7633942

loop_
_atom_site_label
_atom_site_type_symbol
_atom_type_description
_atom_site_fract_x
_atom_site_fract_y
_atom_site_fract_z
_atom_type_partial_charge
Ba1   Ba    Ba6+2 0.000060 0.523150 0.844950 1.672418
Ba2   Ba    Ba6+2 0.000060 0.476850 0.344950 1.672940
Ba3   Ba    Ba6+2 0.500060 0.023150 0.844950 1.673179
Ba4   Ba    Ba6+2 0.500060 0.976850 0.344950 1.674308
C1    C     C_3   0.986511 0.691152 0.643659 -0.308121
C2    C     C_2   0.908696 0.634798 0.292046 -0.083742
C3    C     C_R   0.631332 0.815605 0.676261 0.594635
C4    C     C_2   0.091604 0.634775 0.396321 -0.083378
C5    C     C_2   0.091071 0.364887 0.894670 -0.081728
C6    C     C_2   0.591073 0.135116 0.394668 -0.080747
C7    C     C_2   0.591202 0.864943 0.894690 -0.081603
C8    C     C_3   0.058108 0.612805 0.416128 -0.105368
C9    C     C_3   0.057725 0.387033 0.915170 -0.107168
C10   C     C_3   0.557729 0.112964 0.415179 -0.107386
C11   C     C_3   0.557827 0.887067 0.915115 -0.106632
C12   C     C_1   0.081123 0.575406 0.210230 0.036845
C13   C     C_2   0.408973 0.864747 0.794890 -0.081543
C14   C     C_1   0.081234 0.424755 0.711300 0.037847
C15   C     C_1   0.581218 0.075257 0.211231 0.037410
C16   C     C_1   0.581304 0.924773 0.711234 0.037351
C17   C     C_2   0.106919 0.597582 0.175451 -0.086737
C18   C     C_2   0.107601 0.402993 0.679037 -0.091035
C19   C     C_2   0.607563 0.097040 0.178867 -0.090672
C20   C     C_2   0.607711 0.903048 0.679049 -0.091559
C21   C     C_2   0.113508 0.628901 0.274963 0.224760
C22   C     C_2   0.113637 0.371401 0.776599 0.233912
C23   C     C_2   0.613608 0.128633 0.276448 0.232330
C24   C     C_2   0.408569 0.134735 0.291856 -0.083568
C25   C     C_2   0.613781 0.871475 0.776686 0.233404
C26   C     C_R   0.739379 0.283052 0.044818 0.022050
C27   C     C_R   0.739711 0.717190 0.545506 0.025331
C28   C     C_R   0.239115 0.783703 0.043244 0.025740
C29   C     C_R   0.239567 0.217064 0.545965 0.025475
C30   C     C_R   0.776869 0.273052 0.045334 0.040952
C31   C     C_R   0.777274 0.727072 0.548010 0.060264
C32   C     C_R   0.277021 0.775508 0.069951 0.060337
C33   C     C_R   0.277105 0.226988 0.547753 0.060118
C34   C     C_R   0.787017 0.238594 0.074954 0.022755
C35   C     C_3   0.942137 0.387167 0.773072 -0.104915
C36   C     C_R   0.787550 0.761428 0.580148 -0.043941
C37   C     C_R   0.287816 0.743546 0.137227 -0.044093
C38   C     C_R   0.287346 0.261374 0.579190 -0.044040
C39   C     C_3   0.895912 0.522694 0.143222 0.296443
C40   C     C_3   0.895856 0.477332 0.643365 0.296577
C41   C     C_3   0.395985 0.022727 0.143535 0.296621
C42   C     C_3   0.396040 0.977204 0.642393 0.291621
C43   C     C_R   0.730816 0.317798 0.020629 -0.098226
C44   C     C_R   0.731024 0.682511 0.519799 -0.102267
C45   C     C_R   0.229740 0.815204 0.970364 -0.102174
C46   C     C_3   0.942230 0.612872 0.273159 -0.105686
C47   C     C_R   0.230922 0.182360 0.520887 -0.102941
C48   C     C_R   0.850414 0.253358 0.022655 -0.120242
C49   C     C_R   0.850911 0.746612 0.526942 -0.038920
C50   C     C_R   0.351969 0.762551 0.144624 -0.037413
C51   C     C_R   0.350671 0.246594 0.525309 -0.038885
C52   C     C_R   0.269128 0.683036 0.168420 -0.115472
C53   C     C_R   0.270006 0.314842 0.715185 -0.117490
C54   C     C_R   0.769899 0.184994 0.209880 -0.024147
C55   C     C_R   0.770176 0.814826 0.716706 -0.117474
C56   C     C_R   0.242350 0.658815 0.196399 -0.049001
C57   C     C_3   0.442412 0.886859 0.774587 -0.106699
C58   C     C_R   0.243378 0.338167 0.755904 -0.050428
C59   C     C_R   0.743320 0.161679 0.251334 -0.035238
C60   C     C_R   0.743542 0.838150 0.757395 -0.050302
C61   C     C_R   0.823644 0.228623 0.045275 -0.060078
C62   C     C_R   0.824258 0.771441 0.551987 -0.061852
C63   C     C_R   0.325600 0.739044 0.189788 -0.059561
C64   C     C_R   0.324002 0.271408 0.550311 -0.061971
C65   C     C_3   0.862320 0.545688 0.132602 -0.336356
C66   C     C_3   0.862256 0.454340 0.632530 -0.336189
C67   C     C_3   0.362418 0.045752 0.132724 -0.337722
C68   C     C_3   0.442143 0.112849 0.273134 -0.105322
C69   C     C_3   0.362485 0.954159 0.631681 -0.332142
C70   C     C_3   0.104027 0.476876 0.047441 0.291848
C71   C     C_3   0.104062 0.523093 0.546754 0.295367
C72   C     C_3   0.604023 0.976882 0.047108 0.291691
C73   C     C_3   0.603943 0.023172 0.547305 0.290136
C74   C     C_3   0.137427 0.453654 0.060458 -0.328962
C75   C     C_3   0.137482 0.546300 0.559667 -0.332796
C76   C     C_3   0.637412 0.953647 0.060410 -0.328142
C77   C     C_3   0.637329 0.046421 0.560202 -0.326295
C78   C     C_3   0.003322 0.658576 0.584529 0.317867
C79   C     C_1   0.919153 0.424303 0.979702 0.035745
C80   C     C_3   0.002755 0.341594 0.084926 0.328438
C81   C     C_3   0.502821 0.158441 0.584878 0.322141
C82   C     C_3   0.503206 0.841405 0.085885 0.318774
C83   C     C_R   0.822389 0.356069 0.956546 0.591949
C84   C     C_R   0.822522 0.644093 0.456270 0.594223
C85   C     C_R   0.321410 0.854626 0.921063 0.594053
C86   C     C_R   0.322417 0.144001 0.456669 0.594026
C87   C     C_2   0.834461 0.193226 0.010063 0.483135
C88   C     C_2   0.834383 0.807308 0.520858 0.488950
C89   C     C_2   0.337778 0.713616 0.313065 0.486826
C90   C     C_1   0.919194 0.575703 0.479659 0.036013
C91   C     C_2   0.334036 0.307260 0.518413 0.489314
C92   C     C_1   0.418948 0.924560 0.978324 0.037628
C93   C     C_3   0.986115 0.308893 0.143594 -0.320007
C94   C     C_1   0.419153 0.075702 0.479747 0.035575
C95   C     C_2   0.893648 0.401877 0.015200 -0.086536
C96   C     C_2   0.893689 0.598124 0.515126 -0.086261
C97   C     C_2   0.392437 0.902932 0.010113 -0.092217
C98   C     C_2   0.393627 0.098108 0.515176 -0.086659
C99   C     C_2   0.886858 0.370783 0.914159 0.221127
C100  C     C_2   0.886976 0.629269 0.414381 0.221630
C101  C     C_2   0.386307 0.871404 0.912410 0.234888
C102  C     C_2   0.386863 0.129221 0.414256 0.221215
C103  C     C_R   0.804339 0.297651 0.013911 -0.079664
C104  C     C_3   0.486195 0.191140 0.643594 -0.310389
C105  C     C_R   0.804667 0.702462 0.515864 -0.077962
C106  C     C_R   0.304294 0.799682 0.030931 -0.077969
C107  C     C_R   0.304508 0.202387 0.515601 -0.077971
C108  C     C_R   0.794833 0.332045 0.988156 -0.034157
C109  C     C_R   0.795036 0.668138 0.488405 -0.031888
C110  C     C_R   0.294010 0.831077 0.960087 -0.032360
C111  C     C_R   0.294918 0.168036 0.488806 -0.031601
C112  C     C_R   0.757927 0.341672 0.993177 -0.055465
C113  C     C_R   0.758076 0.658600 0.492260 -0.057509
C114  C     C_R   0.256577 0.838268 0.929655 -0.058381
C115  C     C_3   0.487479 0.808256 0.144000 -0.296795
C116  C     C_R   0.257986 0.158462 0.493315 -0.058422
C117  C     C_R   0.841298 0.287841 0.007811 -0.019021
C118  C     C_R   0.841660 0.712188 0.510442 -0.056940
C119  C     C_R   0.341836 0.792570 0.063627 -0.058221
C120  C     C_R   0.341469 0.212150 0.509518 -0.056953
C121  C     C_3   0.996606 0.658911 0.104229 0.318486
C122  C     C_3   0.996416 0.341067 0.603545 0.320427
C123  C     C_3   0.496373 0.158983 0.103650 0.316923
C124  C     C_3   0.497231 0.841407 0.603096 0.324654
C125  C     C_2   0.941538 0.420083 0.863239 -0.268414
C126  C     C_R   0.868293 0.312440 0.978278 0.594286
C127  C     C_2   0.941598 0.579941 0.363259 -0.267643
C128  C     C_2   0.442047 0.919767 0.865089 -0.267441
C129  C     C_2   0.441571 0.079947 0.363420 -0.268381
C130  C     C_2   0.058538 0.579887 0.325800 -0.267981
C131  C     C_2   0.058229 0.419996 0.825066 -0.266743
C132  C     C_2   0.558219 0.080007 0.325028 -0.266887
C133  C     C_2   0.558290 0.920007 0.824923 -0.267881
C134  C     C_R   0.211907 0.760174 0.089035 0.020648
C135  C     C_R   0.212019 0.241970 0.570363 0.020880
C136  C     C_R   0.711817 0.258174 0.069737 0.022375
C137  C     C_R   0.868584 0.687571 0.480069 0.594853
C138  C     C_R   0.712176 0.742111 0.569841 0.020431
C139  C     C_R   0.260339 0.717856 0.150706 0.004520
C140  C     C_R   0.260422 0.284121 0.635863 0.005200
C141  C     C_R   0.760191 0.215837 0.132048 0.036275
C142  C     C_R   0.760608 0.784167 0.636761 0.005378
C143  C     C_R   0.222588 0.726823 0.136372 0.063442
C144  C     C_R   0.222693 0.275062 0.621832 0.063720
C145  C     C_R   0.722497 0.225000 0.119986 0.043812
C146  C     C_R   0.722864 0.775156 0.622001 0.063910
C147  C     C_R   0.174187 0.768656 0.087826 -0.103536
C148  C     C_R   0.368579 0.816511 0.022564 0.600622
C149  C     C_R   0.174007 0.234927 0.546544 -0.104159
C150  C     C_R   0.673799 0.265322 0.047834 -0.097623
C151  C     C_R   0.674161 0.735124 0.545277 -0.103240
C152  C     C_R   0.147882 0.744767 0.125401 -0.059821
C153  C     C_R   0.147573 0.259081 0.579278 -0.061762
C154  C     C_R   0.647391 0.241179 0.081155 -0.058663
C155  C     C_R   0.647730 0.759284 0.577965 -0.059821
C156  C     C_R   0.157898 0.711226 0.163874 -0.030251
C157  C     C_R   0.157815 0.291179 0.639305 -0.030401
C158  C     C_R   0.657672 0.208989 0.139910 -0.026087
C159  C     C_R   0.368407 0.187545 0.479210 0.594722
C160  C     C_R   0.657977 0.791328 0.638691 -0.031008
C161  C     C_R   0.195259 0.702054 0.167653 -0.082158
C162  C     C_R   0.195440 0.299179 0.661921 -0.081729
C163  C     C_R   0.695295 0.200891 0.160691 -0.081074
C164  C     C_R   0.695607 0.799274 0.662047 -0.081736
C165  C     C_R   0.205308 0.668092 0.201279 -0.035039
C166  C     C_R   0.205866 0.331152 0.725754 -0.035322
C167  C     C_R   0.705777 0.168820 0.223210 -0.042700
C168  C     C_R   0.706032 0.831192 0.726566 -0.035255
C169  C     C_3   0.013153 0.691554 0.044470 -0.308210
C170  C     C_2   0.908554 0.365287 0.791719 -0.083422
C171  C     C_3   0.012388 0.308137 0.544211 -0.305660
C172  C     C_3   0.512374 0.191896 0.044232 -0.301364
C173  C     C_3   0.512646 0.808117 0.544967 -0.304195
C174  C     C_R   0.178004 0.644033 0.235601 0.593507
C175  C     C_R   0.178533 0.354936 0.762752 0.593248
C176  C     C_R   0.678480 0.145037 0.260700 0.601047
C177  C     C_R   0.678693 0.854976 0.763542 0.593567
C178  C     C_R   0.131266 0.686702 0.198735 0.591858
C179  C     C_R   0.131172 0.315458 0.676903 0.593915
C180  C     C_R   0.631066 0.184708 0.177945 0.594724
H1    H     H_    0.980631 0.640838 0.546768 0.014389
H2    H     H_    0.869621 0.428770 0.679694 0.076994
H3    H     H_    0.625021 0.907886 0.581083 0.094551
H4    H     H_    0.963665 0.437836 0.845695 0.073331
H5    H     H_    0.963715 0.562182 0.345712 0.073363
H6    H     H_    0.464478 0.937269 0.848966 0.073361
H7    H     H_    0.463737 0.062231 0.346075 0.073229
H8    H     H_    0.036254 0.562286 0.342984 0.073746
H9    H     H_    0.035942 0.437600 0.842051 0.073882
H10   H     H_    0.535922 0.062408 0.341970 0.073880
H11   H     H_    0.536008 0.937610 0.841982 0.073544
H12   H     H_    0.019425 0.641395 0.142885 0.015768
H13   H     H_    0.369813 0.071317 0.179856 0.077368
H14   H     H_    0.019513 0.358424 0.640448 0.021361
H15   H     H_    0.519457 0.141646 0.140909 0.020895
H16   H     H_    0.520580 0.858858 0.635464 0.024521
H17   H     H_    0.980811 0.665977 0.208074 -0.034873
H18   H     H_    0.980833 0.334331 0.708472 -0.039217
H19   H     H_    0.480732 0.165750 0.208354 -0.036492
H20   H     H_    0.482388 0.835165 0.710890 -0.049435
H21   H     H_    0.032912 0.685823 0.953193 0.163592
H22   H     H_    0.031806 0.313489 0.451112 0.171782
H23   H     H_    0.531852 0.186516 0.951409 0.170303
H24   H     H_    0.370029 0.928465 0.676720 0.084066
H25   H     H_    0.531718 0.812960 0.449911 0.168713
H26   H     H_    0.991121 0.708586 0.993627 0.104203
H27   H     H_    0.990025 0.291186 0.495690 0.095631
H28   H     H_    0.490031 0.208822 0.995346 0.102015
H29   H     H_    0.489966 0.791166 0.499512 0.104035
H30   H     H_    0.905607 0.519828 0.269879 0.006300
H31   H     H_    0.905483 0.480228 0.770088 0.006419
H32   H     H_    0.405597 0.019793 0.270244 0.006347
H33   H     H_    0.405879 0.979912 0.768961 0.005073
H34   H     H_    0.917650 0.534687 0.075625 0.076324
H35   H     H_    0.851616 0.548230 0.006252 0.134486
H36   H     H_    0.917630 0.465322 0.576059 0.076269
H37   H     H_    0.417785 0.034719 0.076305 0.077090
H38   H     H_    0.417717 0.965339 0.574038 0.077798
H39   H     H_    0.862654 0.185051 0.036267 -0.007834
H40   H     H_    0.813382 0.825569 0.481985 0.006355
H41   H     H_    0.318325 0.703268 0.392587 0.003548
H42   H     H_    0.312977 0.325465 0.479556 0.006274
H43   H     H_    0.851628 0.451755 0.506098 0.134510
H44   H     H_    0.351787 0.048343 0.006297 0.134630
H45   H     H_    0.351537 0.951928 0.505530 0.134431
H46   H     H_    0.094755 0.479736 0.920335 0.005008
H47   H     H_    0.094895 0.520097 0.419608 0.005769
H48   H     H_    0.594862 0.979810 0.919923 0.005107
H49   H     H_    0.979998 0.359404 0.049189 0.015125
H50   H     H_    0.594663 0.020282 0.420230 0.005229
H51   H     H_    0.081953 0.465102 0.113826 0.076751
H52   H     H_    0.081940 0.534944 0.612556 0.076240
H53   H     H_    0.581880 0.965092 0.113009 0.076916
H54   H     H_    0.581867 0.034933 0.613698 0.077274
H55   H     H_    0.159519 0.464196 0.989994 0.138772
H56   H     H_    0.159667 0.535596 0.490247 0.138561
H57   H     H_    0.659574 0.964218 0.990431 0.138807
H58   H     H_    0.659416 0.035893 0.489678 0.139232
H59   H     H_    0.129939 0.428051 0.014101 0.081871
H60   H     H_    0.480055 0.140648 0.548941 0.015465
H61   H     H_    0.130095 0.571822 0.512046 0.076766
H62   H     H_    0.629958 0.928067 0.013682 0.082117
H63   H     H_    0.629824 0.072018 0.513857 0.081673
H64   H     H_    0.147783 0.451230 0.187318 0.135342
H65   H     H_    0.147672 0.548951 0.686640 0.135640
H66   H     H_    0.647662 0.951160 0.187379 0.135757
H67   H     H_    0.647704 0.048857 0.687034 0.137111
H68   H     H_    0.018956 0.665642 0.480158 -0.037690
H69   H     H_    0.018032 0.334714 0.979306 -0.046394
H70   H     H_    0.518139 0.165333 0.479369 -0.044316
H71   H     H_    0.480006 0.858883 0.052139 0.024686
H72   H     H_    0.518282 0.834998 0.979075 -0.047435
H73   H     H_    0.971540 0.704333 0.542282 0.129738
H74   H     H_    0.970955 0.295854 0.042297 0.125850
H75   H     H_    0.471084 0.204209 0.542267 0.130616
H76   H     H_    0.471900 0.795362 0.043292 0.121187
H77   H     H_    0.966817 0.685366 0.735140 0.162495
H78   H     H_    0.966617 0.314487 0.236076 0.161643
H79   H     H_    0.466656 0.185537 0.735917 0.161678
H80   H     H_    0.468528 0.813262 0.239266 0.174219
H81   H     H_    0.027979 0.704946 0.145620 0.125048
H82   H     H_    0.840521 0.534873 0.203883 0.137960
H83   H     H_    0.027485 0.294863 0.645055 0.117118
H84   H     H_    0.527407 0.205215 0.145118 0.119919
H85   H     H_    0.528015 0.795074 0.645774 0.120490
H86   H     H_    0.877638 0.405809 0.118211 0.107070
H87   H     H_    0.877622 0.594157 0.617939 0.106701
H88   H     H_    0.375060 0.907817 0.107806 0.092016
H89   H     H_    0.377596 0.094156 0.618107 0.106912
H90   H     H_    0.749737 0.367931 0.975638 0.125121
H91   H     H_    0.749790 0.632394 0.473506 0.125643
H92   H     H_    0.247763 0.861958 0.873719 0.124601
H93   H     H_    0.840413 0.465184 0.703459 0.137885
H94   H     H_    0.249733 0.132237 0.475067 0.124730
H95   H     H_    0.095501 0.657434 0.469160 0.092998
H96   H     H_    0.094477 0.341743 0.964371 0.083766
H97   H     H_    0.594489 0.158249 0.464447 0.085788
H98   H     H_    0.594618 0.841799 0.964379 0.084399
H99   H     H_    0.119401 0.752734 0.123204 0.120867
H100  H     H_    0.118844 0.252319 0.558423 0.117168
H101  H     H_    0.618654 0.248021 0.061760 0.118989
H102  H     H_    0.618999 0.752566 0.556528 0.119793
H103  H     H_    0.164164 0.793952 0.062150 0.073721
H104  H     H_    0.340562 0.034930 0.203671 0.136791
H105  H     H_    0.163751 0.211100 0.498659 0.071316
H106  H     H_    0.663507 0.289231 0.001104 0.072460
H107  H     H_    0.663904 0.711342 0.496825 0.073507
H108  H     H_    0.703322 0.327572 0.026399 0.072832
H109  H     H_    0.703463 0.672812 0.524456 0.073840
H110  H     H_    0.201685 0.822456 0.939040 0.073030
H111  H     H_    0.203388 0.172635 0.526068 0.072231
H112  H     H_    0.904412 0.342970 0.716738 0.095712
H113  H     H_    0.904613 0.657169 0.217388 0.097060
H114  H     H_    0.405578 0.841540 0.725657 0.084893
H115  H     H_    0.340825 0.964722 0.704467 0.136845
H116  H     H_    0.404451 0.157074 0.217016 0.097455
H117  H     H_    0.878324 0.245250 0.005538 0.110733
H118  H     H_    0.878882 0.754528 0.510151 0.163266
H119  H     H_    0.380664 0.758317 0.181501 0.160953
H120  H     H_    0.378608 0.254528 0.507990 0.163340
H121  H     H_    0.296670 0.673783 0.155916 0.085670
H122  H     H_    0.298199 0.320868 0.751761 0.084498
H123  H     H_    0.798191 0.178792 0.243734 0.071256
H124  H     H_    0.798358 0.820800 0.753803 0.084323
H125  H     H_    0.008406 0.708398 0.693977 0.102062
H126  H     H_    0.869723 0.571274 0.179486 0.076983
H127  H     H_    0.008114 0.291591 0.192378 0.098135
H128  H     H_    0.508198 0.208420 0.692598 0.101536
H129  H     H_    0.509996 0.791119 0.189208 0.096877
H130  H     H_    0.250833 0.632620 0.213297 0.129823
H131  H     H_    0.252371 0.361698 0.812833 0.129446
H132  H     H_    0.752378 0.138030 0.306907 0.130101
H133  H     H_    0.752527 0.861633 0.814836 0.129446
H134  H     H_    0.123257 0.593344 0.073713 0.104368
H135  H     H_    0.124910 0.407815 0.581049 0.094475
H136  H     H_    0.624833 0.092245 0.080721 0.096572
N1    N     N_R   0.858711 0.346123 0.950994 -0.425569
N2    N     N_R   0.858890 0.653955 0.451525 -0.423672
N3    N     N_R   0.358238 0.847042 0.951367 -0.425577
N4    N     N_R   0.358758 0.153898 0.451321 -0.423547
N5    N     N_R   0.141447 0.653577 0.236305 -0.425259
N6    N     N_R   0.141642 0.346925 0.737999 -0.426325
N7    N     N_R   0.641579 0.153138 0.237684 -0.426805
N8    N     N_R   0.641800 0.847014 0.738089 -0.426435
O1    O     O_2   0.072110 0.546320 0.923350 -0.455534
O2    O     O_3   0.973155 0.356063 0.482544 -0.562576
O3    O     O_3   0.473174 0.143939 0.982558 -0.561944
O4    O     O_3   0.473259 0.855975 0.483302 -0.559922
O5    O     O_3   0.958050 0.483830 0.034350 -0.497226
O6    O     O_3   0.958050 0.516170 0.534350 -0.497142
O7    O     O_3   0.458050 0.983830 0.034350 -0.496647
O8    O     O_3   0.458050 0.016170 0.534350 -0.497412
O9    O     O_2   0.813930 0.385727 0.931731 -0.594742
O10   O     O_2   0.813966 0.614494 0.430280 -0.595342
O11   O     O_2   0.312496 0.881776 0.859447 -0.594030
O12   O     O_2   0.072110 0.453680 0.423350 -0.455684
O13   O     O_2   0.313891 0.114378 0.431213 -0.595888
O14   O     O_2   0.098872 0.694797 0.194261 -0.621708
O15   O     O_2   0.098561 0.308641 0.654474 -0.621506
O16   O     O_2   0.598448 0.191610 0.157047 -0.620829
O17   O     O_2   0.598722 0.808840 0.653160 -0.620714
O18   O     O_2   0.900470 0.303836 0.977386 -0.621810
O19   O     O_2   0.900800 0.696093 0.479678 -0.619664
O20   O     O_2   0.401152 0.810318 0.051740 -0.617751
O21   O     O_2   0.400599 0.196107 0.478296 -0.619914
O22   O     O_2   0.186861 0.614725 0.266879 -0.592186
O23   O     O_2   0.572110 0.046320 0.923350 -0.455488
O24   O     O_2   0.187567 0.382641 0.818035 -0.591458
O25   O     O_2   0.687557 0.117248 0.314854 -0.586817
O26   O     O_2   0.687722 0.882636 0.819409 -0.591053
O27   O     O_3   0.042000 0.516250 0.155330 -0.496679
O28   O     O_3   0.042000 0.483750 0.655330 -0.496220
O29   O     O_3   0.542000 0.016250 0.155330 -0.496406
O30   O     O_3   0.542000 0.983750 0.655330 -0.496359
O31   O     O_3   0.012540 0.574900 0.645500 -0.465258
O32   O     O_3   0.012540 0.425100 0.145500 -0.466318
O33   O     O_3   0.512540 0.074900 0.645500 -0.466400
O34   O     O_2   0.572110 0.953680 0.423350 -0.454967
O35   O     O_3   0.512540 0.925100 0.145500 -0.466334
O36   O     O_2   0.079020 0.598266 0.742113 -0.482087
O37   O     O_2   0.078983 0.401584 0.241146 -0.479117
O38   O     O_2   0.578988 0.098417 0.741147 -0.478495
O39   O     O_2   0.579149 0.901827 0.240526 -0.479031
O40   O     O_3   0.113986 0.508609 0.111397 -0.625645
O41   O     O_3   0.113958 0.491432 0.611599 -0.627687
O42   O     O_3   0.613955 0.008574 0.111542 -0.626866
O43   O     O_3   0.613936 0.991461 0.611349 -0.627152
O44   O     O_3   0.026744 0.643927 0.705978 -0.560311
O45   O     O_3   0.886025 0.509076 0.579076 -0.625952
O46   O     O_3   0.026536 0.356029 0.205704 -0.559336
O47   O     O_3   0.526555 0.143973 0.705731 -0.559091
O48   O     O_3   0.526976 0.856027 0.206198 -0.560697
O49   O     O_2   0.928110 0.546600 0.766510 -0.455578
O50   O     O_2   0.928110 0.453400 0.266510 -0.455257
O51   O     O_2   0.428110 0.046600 0.766510 -0.454748
O52   O     O_2   0.428110 0.953400 0.266510 -0.455124
O53   O     O_3   0.987780 0.574950 0.044470 -0.464665
O54   O     O_3   0.987780 0.425050 0.544470 -0.464583
O55   O     O_3   0.487780 0.074950 0.044470 -0.464763
O56   O     O_3   0.886039 0.490934 0.079188 -0.625780
O57   O     O_3   0.487780 0.925050 0.544470 -0.466639
O58   O     O_2   0.921228 0.598180 0.947989 -0.482290
O59   O     O_2   0.921125 0.401972 0.448243 -0.482769
O60   O     O_2   0.421131 0.098035 0.948285 -0.482460
O61   O     O_2   0.421112 0.901771 0.449597 -0.477517
O62   O     O_2   0.812711 0.173566 0.942394 -0.557156
O63   O     O_2   0.866350 0.816759 0.535317 -0.556530
O64   O     O_2   0.369801 0.704399 0.329393 -0.558695
O65   O     O_2   0.365987 0.316757 0.532218 -0.556037
O66   O     O_3   0.386057 0.009034 0.579450 -0.625583
O67   O     O_3   0.386102 0.991011 0.079106 -0.628758
O68   O     O_3   0.973438 0.643942 0.982810 -0.561031
P1    P     P_3+3 0.075650 0.535480 0.098240 0.995170
P2    P     P_3+3 0.954899 0.393040 0.561838 0.968383
P3    P     P_3+3 0.454909 0.106965 0.061885 0.969124
P4    P     P_3+3 0.454985 0.892925 0.562848 0.973589
P5    P     P_3+3 0.045184 0.392911 0.127094 0.971489
P6    P     P_3+3 0.045322 0.606993 0.627644 0.969176
P7    P     P_3+3 0.545309 0.892996 0.127021 0.971675
P8    P     P_3+3 0.545190 0.107090 0.627104 0.972259
P9    P     P_3+3 0.075650 0.464520 0.598240 0.994094
P10   P     P_3+3 0.575650 0.035480 0.098240 0.994774
P11   P     P_3+3 0.575650 0.964520 0.598240 0.994361
P12   P     P_3+3 0.924520 0.535770 0.591580 0.994029
P13   P     P_3+3 0.924520 0.464230 0.091580 0.994052
P14   P     P_3+3 0.424520 0.035770 0.591580 0.994219
P15   P     P_3+3 0.424520 0.964230 0.091580 0.992439
P16   P     P_3+3 0.954989 0.607022 0.061858 0.969552

loop_
_geom_bond_atom_site_label_1
_geom_bond_atom_site_label_2
_ccdc_geom_bond_type
C95   C99   S    
C133  H11   S    
C153  C157  A    
C103  C108  A    
C77   H63   S    
C169  H26   S    
C65   H126  S    
C37   C63   A    
C122  H18   S    
C129  H7    S    
C40   O45   S    
C49   H118  S    
C150  C154  A    
C22   N6    S    
O29   P10   S    
C96   C100  S    
C178  O14   D    
C33   C38   A    
C5    C9    S    
Ba3   P10   S    
C57   C128  S    
C13   C57   S    
C142  C146  A    
C7    C11   S    
C24   C102  D    
C39   O56   S    
C40   C66   S    
C82   C115  S    
C79   P13   S    
C2    C100  D    
C31   C105  A    
O53   P16   S    
Ba1   O1    S    
O60   P3    D    
C115  H76   S    
O2    P2    S    
C42   H33   S    
C1    H77   S    
C87   O62   D    
C77   H67   S    
C35   C170  S    
O32   P5    S    
C5    C22   D    
C127  H5    S    
C161  C165  A    
C43   C112  A    
C58   C166  A    
C97   H88   S    
C64   C91   S    
Ba1   P1    S    
C78   H1    S    
C85   N3    Am   
O41   P9    S    
C160  C164  A    
C176  N7    Am   
C163  C167  A    
C83   C108  A    
C15   C132  D    
C94   C98   D    
O54   P2    S    
C172  H28   S    
C72   H53   S    
C77   H58   S    
C15   C19   D    
O39   P7    D    
C106  C119  A    
C146  C164  A    
O56   P13   S    
C69   H24   S    
Ba1   O53   S    
C27   C44   A    
C73   H54   S    
O28   P9    S    
Ba3   O55   S    
C30   C103  A    
C128  H6    S    
C83   N1    Am   
C123  C172  S    
C61   C87   S    
C119  C148  A    
C107  C120  A    
C48   H117  S    
C86   O13   D    
C46   P16   S    
C147  H103  S    
C152  H99   S    
C72   O42   S    
C37   C139  A    
C134  C147  A    
C14   P9    S    
C95   H86   S    
C74   H59   S    
C42   H38   S    
O49   P12   D    
Ba2   P9    S    
C31   C36   A    
C1    C78   S    
C68   C129  S    
C29   C135  A    
C175  O24   D    
C99   C170  D    
C33   C107  A    
C46   C127  S    
C172  H84   S    
C89   H41   S    
C21   N5    S    
O48   P7    S    
C104  H128  S    
C7    H98   S    
C71   C75   S    
C48   C61   A    
C11   C133  S    
C96   H87   S    
C6    C23   D    
C50   C119  A    
C12   C17   D    
C177  O26   D    
C41   C67   S    
C40   H36   S    
C35   P2    S    
C117  C126  A    
C113  H91   S    
C12   C130  D    
Ba4   O29   S    
C114  H92   S    
O6    P12   S    
C132  H10   S    
C20   H3    S    
C56   C165  A    
Ba2   O54   S    
Ba3   O30   S    
C78   H68   S    
C79   C125  D    
Ba2   P13   S    
C52   H121  S    
C179  O15   D    
C51   H120  S    
C82   H72   S    
C76   H57   S    
C84   C109  A    
C100  N2    S    
C98   H89   S    
C143  C161  A    
C52   C139  A    
Ba2   O12   S    
C168  C177  A    
C72   H48   S    
C74   H64   S    
C5    H96   S    
Ba4   O57   S    
C9    P5    S    
C106  C110  A    
C120  C159  A    
C122  H14   S    
C78   O44   S    
C39   C65   S    
C8    C130  S    
C11   P7    S    
C67   H104  S    
C9    C131  S    
C75   H56   S    
C93   H74   S    
O36   P6    D    
C135  C144  A    
C180  O16   D    
C26   C30   A    
C151  C155  A    
C152  C156  A    
C6    C10   S    
C62   C88   S    
C35   C125  S    
C148  N3    Am   
C81   H60   S    
C2    C46   S    
C68   P3    S    
C112  H90   S    
C28   C134  A    
C54   H123  S    
Ba1   O5    S    
C115  H80   S    
C34   C61   A    
C90   C96   D    
C4    C8    S    
C89   O64   D    
Ba3   O7    S    
C1    H73   S    
C71   H52   S    
Ba3   O33   S    
C83   O9    D    
O59   P2    D    
C109  C113  A    
C148  O20   D    
C1    H125  S    
C162  C166  A    
C32   C106  A    
C76   H62   S    
C125  H4    S    
C92   P15   S    
O42   P10   S    
C90   P12   S    
Ba3   Ba4   S    
C3    O17   D    
C10   P8    S    
C41   O67   S    
C4    H95   S    
C8    P6    S    
C17   C21   S    
C174  O22   D    
C53   C140  A    
C14   C18   D    
O27   P1    S    
C72   C76   S    
C2    H113  S    
C123  H15   S    
C50   H119  S    
O58   P16   D    
C28   C32   A    
C93   H127  S    
C44   C113  A    
C124  O4    S    
C36   C142  A    
C166  C175  A    
C42   O66   S    
C25   N8    S    
C41   H37   S    
C85   C110  A    
C73   H50   S    
Ba3   O51   S    
O45   P12   S    
C53   H122  S    
C28   C45   A    
C66   H2    S    
O7    P15   S    
C39   H34   S    
Ba4   O7    S    
O43   P11   S    
C80   H69   S    
Ba2   O5    S    
C155  C160  A    
C104  H75   S    
C36   C62   A    
C124  C173  S    
C118  C137  A    
C70   H51   S    
C39   H30   S    
C136  C145  A    
C24   H116  S    
C42   C69   S    
C122  C171  S    
O31   P6    S    
O51   P14   D    
C154  H101  S    
C74   H55   S    
Ba2   O6    S    
C144  C162  A    
C67   H44   S    
C57   P4    S    
C145  C163  A    
Ba2   O32   S    
C15   P10   S    
C169  H81   S    
C51   C64   A    
C54   C141  A    
O57   P4    S    
C94   C129  D    
C121  H17   S    
C81   H70   S    
C178  N5    Am   
C170  H112  S    
C80   C93   S    
C75   H61   S    
C88   O63   D    
C69   H115  S    
C135  C149  A    
C23   N7    S    
C124  H20   S    
Ba4   P11   S    
C20   C25   S    
C177  N8    Am   
C149  H105  S    
C58   H131  S    
C81   C104  S    
C70   H46   S    
O30   P11   S    
O66   P14   S    
C79   C95   D    
C92   C97   D    
C122  O2    S    
C4    C21   D    
C32   C37   A    
C24   C68   S    
C123  O3    S    
C43   H108  S    
C69   H45   S    
C155  H102  S    
C176  O25   D    
C66   H43   S    
C171  H83   S    
C65   H82   S    
Ba3   O23   S    
O47   P8    S    
C73   O43   S    
O33   P8    S    
C29   C33   A    
C52   C56   A    
C173  H85   S    
O40   P1    S    
C60   C168  A    
C124  H16   S    
C158  C180  A    
C173  H29   S    
C48   C117  A    
C59   C167  A    
C88   H40   S    
C17   H134  S    
C45   H110  S    
O55   P3    S    
C86   C111  A    
O3    P3    S    
C93   H78   S    
O68   P16   S    
C153  H100  S    
O4    P4    S    
C159  O21   D    
C38   C140  A    
O50   P13   D    
C27   C31   A    
C103  C117  A    
C87   H39   S    
C84   N2    Am   
C172  H23   S    
Ba1   P12   S    
C81   O47   S    
C51   C120  A    
C65   H35   S    
O37   P5    D    
C56   H130  S    
C71   O41   S    
C29   C47   A    
C3    C160  A    
Ba1   O31   S    
C90   C127  D    
C49   C118  A    
C180  N7    Am   
C138  C146  A    
O44   P6    S    
C10   C132  S    
C60   H133  S    
C121  O68   S    
C149  C153  A    
Ba4   O35   S    
C91   O65   D    
C164  C168  A    
C18   C22   S    
O52   P15   D    
C101  N3    S    
C169  H21   S    
C171  H22   S    
C123  H19   S    
Ba3   P14   S    
C141  C145  A    
C44   H109  S    
C16   C133  D    
C157  C179  A    
C40   H31   S    
C140  C144  A    
C121  C169  S    
C53   C58   A    
O1    P1    D    
C139  C143  A    
C76   H66   S    
C55   C60   A    
C66   H93   S    
C159  N4    Am   
C6    H97   S    
C19   H136  S    
Ba2   O27   S    
Ba1   Ba2   S    
C105  C118  A    
C179  N6    Am   
C173  H25   S    
C41   H32   S    
C104  H79   S    
C59   H132  S    
C130  H8    S    
O5    P13   S    
C16   C20   D    
C115  H129  S    
C73   C77   S    
C138  C151  A    
C70   C74   S    
C157  C162  A    
C16   P11   S    
C105  C109  A    
C92   C128  D    
C126  N1    Am   
O12   P9    D    
C12   P1    S    
C171  H27   S    
C38   C64   A    
C75   H65   S    
O38   P8    D    
C156  C178  A    
C55   H124  S    
C174  N5    Am   
C67   H13   S    
C97   C101  S    
Ba1   O49   S    
C26   C136  A    
C26   C43   A    
Ba4   P15   S    
C80   O46   S    
C126  O18   D    
C82   O48   S    
C50   C63   A    
C121  H12   S    
C82   H71   S    
C156  C161  A    
C150  H106  S    
C94   P14   S    
C34   C141  A    
C175  N6    Am   
C13   C101  D    
C131  H9    S    
O35   P7    S    
C116  H94   S    
C45   C114  A    
O67   P15   S    
C134  C143  A    
C47   C116  A    
C14   C131  D    
O23   P10   D    
C84   O10   D    
C137  O19   D    
C71   H47   S    
C49   C62   A    
C110  C114  A    
Ba4   O8    S    
C19   C23   S    
C167  C176  A    
C165  C174  A    
C86   N4    Am   
Ba4   O52   S    
C63   C89   S    
C54   C59   A    
C13   H114  S    
O61   P4    D    
C102  N4    S    
O34   P11   D    
C99   N1    S    
C151  H107  S    
C18   H135  S    
C30   C34   A    
C47   H111  S    
O46   P5    S    
C108  C112  A    
O8    P14   S    
C137  N2    Am   
C27   C138  A    
C80   H49   S    
C91   H42   S    
C70   O40   S    
Ba1   O6    S    
Ba3   O8    S    
Ba1   O28   S    
C98   C102  S    
Ba2   O50   S    
C154  C158  A    
C158  C163  A    
C55   C142  A    
C147  C152  A    
C7    C25   D    
C85   O11   D    
C111  C116  A    
C3    N8    Am   
C107  C111  A    
Ba4   O34   S    
C136  C150  A    
