data_mof_unit_19905.cif
_audit_creation_date              2012-12-11T14:21:04-0500
_audit_creation_method            fapswitch 2.2
_symmetry_space_group_name_H-M    P1
_symmetry_Int_Tables_number       1
_space_group_crystal_system       triclinic
_cell_length_a                    11.551858
_cell_length_b                    11.622642
_cell_length_c                    19.416579
_cell_angle_alpha                 90.915184
_cell_angle_beta                  89.883586
_cell_angle_gamma                 59.720046
_cell_volume                      2250.83130117

loop_
_atom_site_label
_atom_site_type_symbol
_atom_type_description
_atom_site_fract_x
_atom_site_fract_y
_atom_site_fract_z
_atom_type_partial_charge
C1    C     C_R   0.640758 0.118065 0.598834 0.555666
C2    C     C_1   0.651998 0.683143 0.663621 0.005596
C3    C     C_1   0.148918 0.187049 0.863774 0.005856
C4    C     C_1   0.230675 0.144072 0.735945 -0.028897
C5    C     C_1   0.191055 0.162687 0.805584 -0.027043
C6    C     C_1   0.261087 0.132735 0.675984 0.004614
C7    C     C_1   0.678227 0.190167 0.861220 0.005565
C8    C     C_1   0.657948 0.168193 0.728993 -0.031167
C9    C     C_1   0.665069 0.180586 0.800543 -0.030551
C10   C     C_1   0.652666 0.151064 0.668300 0.004631
C11   C     C_R   0.666771 0.653258 0.199264 -0.007486
C12   C     C_R   0.613868 0.743529 0.597713 0.532475
C13   C     C_R   0.558416 0.661775 0.237638 0.025279
C14   C     C_R   0.579216 0.626339 0.306698 0.041494
C15   C     C_R   0.776657 0.646392 0.306230 -0.154346
C16   C     C_R   0.779639 0.637366 0.234801 -0.135974
C17   C     C_R   0.432475 0.698992 0.209451 -0.066207
C18   C     C_R   0.341166 0.677833 0.245450 -0.145479
C19   C     C_R   0.375312 0.617275 0.309357 -0.148739
C20   C     C_R   0.494023 0.590976 0.340106 -0.081733
C21   C     C_R   0.671093 0.648779 0.342586 -0.013430
C22   C     C_R   0.138297 0.193949 0.197114 0.003017
C23   C     C_R   0.298646 0.120314 0.604981 0.552409
C24   C     C_R   0.151022 0.287618 0.238354 -0.012528
C25   C     C_R   0.124036 0.294383 0.308928 -0.021905
C26   C     C_R   0.137693 0.080762 0.304261 -0.045655
C27   C     C_R   0.132258 0.087636 0.231169 -0.037601
C28   C     C_R   0.189339 0.375648 0.212283 -0.129408
C29   C     C_R   0.181292 0.477693 0.254133 -0.097519
C30   C     C_R   0.124474 0.501266 0.320475 0.219162
C31   C     C_R   0.091669 0.410622 0.346680 -0.063792
C32   C     C_R   0.149635 0.178425 0.342092 0.012219
C33   C     C_R   0.646134 0.174363 0.182415 -0.010056
C34   C     C_R   0.625553 0.085654 0.393715 0.556545
C35   C     C_R   0.713095 0.041497 0.203198 0.029208
C36   C     C_R   0.732397 0.015891 0.274195 0.018136
C37   C     C_R   0.550494 0.243188 0.296482 -0.142086
C38   C     C_R   0.558457 0.274370 0.228407 -0.158439
C39   C     C_R   0.781475 0.936559 0.154652 -0.070565
C40   C     C_R   0.896144 0.822097 0.173997 -0.129200
C41   C     C_R   0.933568 0.807995 0.242422 -0.169028
C42   C     C_R   0.848949 0.897298 0.293040 -0.098284
C43   C     C_R   0.641471 0.115572 0.321633 0.003083
C44   C     C_R   0.084897 0.229368 0.929670 0.539539
C45   C     C_R   0.622610 0.729161 0.405879 0.530915
C46   C     C_R   0.709425 0.546139 0.922422 0.556767
C47   C     C_R   0.707915 0.206085 0.930558 0.530761
C48   C     C_R   0.083647 0.234652 0.126185 0.559933
C49   C     C_R   0.682718 0.610621 0.126960 0.547015
C50   C     C_R   0.701944 0.208780 0.123520 0.533031
C51   C     C_R   0.234535 0.144217 0.404527 0.572240
C52   C     C_1   0.699590 0.580483 0.851407 0.003144
C53   C     C_1   0.673709 0.644191 0.721786 -0.026381
C54   C     C_1   0.690040 0.608076 0.791450 -0.029315
Cr1   Cr    Cr6+3 0.404720 0.198220 0.499960 1.027933
Cr2   Cr    Cr6+3 0.698290 0.897110 0.500380 1.031224
Cr3   Cr    Cr6+3 0.396970 0.904720 0.499610 1.075140
Cr4   Cr    Cr6+3 0.926180 0.151990 0.028120 1.072066
Cr5   Cr    Cr6+3 0.921330 0.451820 0.027470 1.019435
Cr6   Cr    Cr6+3 0.626260 0.446870 0.028710 1.029541
H1    H     H_    0.852251 0.657783 0.332839 0.156647
H2    H     H_    0.215628 0.539718 0.233032 0.100757
H3    H     H_    0.052908 0.423835 0.398911 0.116152
H4    H     H_    0.478584 0.321963 0.330334 0.151789
H5    H     H_    0.756794 0.950372 0.100461 0.128344
H6    H     H_    0.501847 0.377251 0.212850 0.146868
H7    H     H_    0.959434 0.747888 0.135726 0.122117
H8    H     H_    0.029535 0.729383 0.255908 0.169695
H9    H     H_    0.885329 0.875829 0.344772 0.197623
H10   H     H_    0.404311 0.744817 0.159801 0.197707
H11   H     H_    0.869445 0.618113 0.207627 0.157184
H12   H     H_    0.244546 0.708739 0.223282 0.116506
H13   H     H_    0.308361 0.596526 0.337247 0.196818
H14   H     H_    0.514863 0.552003 0.391765 0.133271
H15   H     H_    0.230424 0.363215 0.160763 0.140867
O1    O     O_R   0.267740 0.231960 0.575440 -0.502535
O2    O     O_R   0.685970 0.784660 0.430010 -0.519966
O3    O     O_R   0.502530 0.767000 0.423990 -0.505821
O4    O     O_R   0.288330 0.026350 0.429250 -0.445770
O5    O     O_3   0.499990 0.000020 0.499980 -0.297171
O6    O     O_R   0.821500 0.119340 0.952830 -0.505727
O7    O     O_R   0.037130 0.162530 0.957360 -0.485604
O8    O     O_R   0.056440 0.344740 0.951340 -0.513859
O9    O     O_R   0.797900 0.560360 0.957470 -0.488654
O10   O     O_R   0.596130 0.579390 0.952730 -0.493379
O11   O     O_R   0.639060 0.321160 0.958670 -0.513375
O12   O     O_R   0.527280 0.186640 0.570530 -0.506340
O13   O     O_R   0.821240 0.124200 0.104370 -0.508420
O14   O     O_R   0.036890 0.167040 0.097840 -0.438499
O15   O     O_R   0.056180 0.349610 0.102880 -0.533254
O16   O     O_R   0.797660 0.564870 0.097950 -0.499775
O17   O     O_R   0.595880 0.584250 0.104270 -0.517139
O18   O     O_R   0.638830 0.325670 0.099150 -0.502350
O19   O     O_3   0.824590 0.350230 0.028100 -0.280481
O20   O     O_R   0.728090 0.003450 0.576380 -0.487876
O21   O     O_R   0.682970 0.789190 0.570490 -0.499798
O22   O     O_R   0.499290 0.771880 0.575530 -0.510860
O23   O     O_R   0.285330 0.030870 0.569730 -0.474662
O24   O     O_R   0.270980 0.227080 0.423890 -0.529635
O25   O     O_R   0.530280 0.182120 0.430050 -0.497810
O26   O     O_R   0.731330 0.998570 0.424830 -0.504833
O27   O     O_3   0.105146 0.610098 0.359345 -0.770645
H16   H     H_    0.064254 0.610921 0.404448 0.325503
C55   C     C_2   0.120587 0.978850 0.341356 0.240485
H17   H     H_    0.145070 0.885189 0.316765 0.104726
O28   O     O_2   0.072899 0.001384 0.399560 -0.475900
C56   C     C_2   0.116929 0.984968 0.192412 0.229669
H18   H     H_    0.047900 0.954998 0.210823 0.109135
O29   O     O_2   0.182393 0.931921 0.140143 -0.522548

loop_
_geom_bond_atom_site_label_1
_geom_bond_atom_site_label_2
_ccdc_geom_bond_type
C25   C31   A    
Cr2   O20   S    
C22   C48   S    
C26   C32   A    
C39   H5    S    
C41   C42   A    
Cr3   O4    S    
C36   C42   A    
C35   C36   A    
C23   O1    A    
C44   O8    A    
C2    C12   S    
C55   O28   D    
C53   C54   S    
C26   C27   A    
C29   C30   A    
C14   C21   A    
C28   C29   A    
Cr5   O8    S    
Cr2   O26   S    
C44   O7    A    
Cr4   O7    S    
C30   C31   A    
Cr3   O23   S    
C15   C16   A    
C46   C52   S    
Cr2   O21   S    
C18   C19   A    
C1    O12   A    
C26   C55   S    
C38   H6    S    
C8    C9    S    
C40   H7    S    
Cr1   O25   S    
C34   O25   A    
C56   H18   S    
C45   O3    A    
Cr5   O19   S    
C50   O13   A    
C46   O10   A    
Cr6   O18   S    
C25   C32   A    
C17   H10   S    
C48   O15   A    
C13   C14   A    
C18   H12   S    
C56   O29   D    
Cr3   O5    S    
C16   H11   S    
C49   O16   A    
C55   H17   S    
C52   C54   T    
C41   H8    S    
C21   C45   S    
Cr6   O17   S    
C51   O24   A    
C3    C44   S    
C34   O26   A    
C34   C43   S    
C47   O11   A    
C14   C20   A    
C19   H13   S    
Cr5   O9    S    
C4    C6    T    
Cr4   O6    S    
C39   C40   A    
Cr6   O11   S    
C33   C50   S    
C42   H9    S    
Cr2   O2    S    
Cr5   O15   S    
C7    C47   S    
C37   C43   A    
C35   C39   A    
C32   C51   S    
C37   C38   A    
C11   C49   S    
C31   H3    S    
C11   C16   A    
C27   C56   S    
C1    O20   A    
Cr3   O22   S    
C30   O27   S    
C17   C18   A    
C15   H1    S    
C20   H14   S    
Cr5   O16   S    
C24   C25   A    
C12   O22   A    
C46   O9    A    
Cr1   O1    S    
C40   C41   A    
C22   C27   A    
C22   C24   A    
C49   O17   A    
C37   H4    S    
C7    C9    T    
C29   H2    S    
Cr3   O3    S    
C1    C10   S    
C24   C28   A    
C4    C5    S    
C3    C5    T    
C2    C53   T    
Cr4   O13   S    
Cr6   O10   S    
C50   O18   A    
C33   C38   A    
Cr2   O5    S    
C13   C17   A    
C48   O14   A    
C19   C20   A    
Cr4   O19   S    
Cr1   O5    S    
C11   C13   A    
C6    C23   S    
C33   C35   A    
C47   O6    A    
Cr1   O12   S    
O27   H16   S    
Cr4   O14   S    
C51   O4    A    
C15   C21   A    
C23   O23   A    
C8    C10   T    
Cr1   O24   S    
C12   O21   A    
C36   C43   A    
C45   O2    A    
C28   H15   S    
Cr6   O19   S    
