data_mof_unit_60099.cif
_audit_creation_date              2012-10-26T21:01:54-0400
_audit_creation_method            fapswitch 2.2
_symmetry_space_group_name_H-M    P1
_symmetry_Int_Tables_number       1
_space_group_crystal_system       triclinic
_cell_length_a                    9.725692
_cell_length_b                    10.939408
_cell_length_c                    13.886429
_cell_angle_alpha                 90.202798
_cell_angle_beta                  85.028228
_cell_angle_gamma                 90.058265
_cell_volume                      1471.85481094

loop_
_atom_site_label
_atom_site_type_symbol
_atom_type_description
_atom_site_fract_x
_atom_site_fract_y
_atom_site_fract_z
_atom_type_partial_charge
C1    C     C_R   0.500118 0.734533 0.498937 0.555060
C2    C     C_R   0.499713 0.265451 0.501105 0.547086
C3    C     C_R   0.522197 0.499961 0.317132 0.543015
C4    C     C_1   0.535333 0.499955 0.213987 -0.001503
C5    C     C_2   0.556860 0.499926 0.023529 -0.117929
C6    C     C_2   0.443045 0.500355 0.976464 -0.116655
C7    C     C_1   0.453938 0.500261 0.872837 -0.040257
C8    C     C_1   0.545980 0.499946 0.127157 -0.038665
C9    C     C_1   0.464620 0.500163 0.786008 -0.002250
C10   C     C_2   0.612917 0.067055 0.498292 -0.153664
C11   C     C_2   0.496725 0.133466 0.505867 -0.111529
C12   C     C_2   0.612456 0.933123 0.502508 -0.157038
C13   C     C_2   0.498356 0.866488 0.494307 -0.107387
C14   C     C_2   0.071098 0.580425 0.546392 0.434752
C15   C     C_2   0.919061 0.591310 0.530130 0.026971
C16   C     C_R   0.477793 0.500048 0.682866 0.549331
Cu1   Cu    Cu3+1 0.361370 0.499980 0.499980 1.050521
Cu2   Cu    Cu3+1 0.638630 0.500020 0.500020 0.962332
H1    H     H_    0.341220 0.500746 0.015457 0.143659
H2    H     H_    0.180515 0.391368 0.398101 0.365963
H3    H     H_    0.890434 0.415800 0.500526 0.260291
H4    H     H_    0.658683 0.499526 0.984534 0.140343
H5    H     H_    0.713030 0.111748 0.490102 0.155115
H6    H     H_    0.395445 0.092525 0.517812 0.107338
H7    H     H_    0.710427 0.888635 0.511155 0.145714
H8    H     H_    0.400169 0.907239 0.481978 0.111402
H9    H     H_    0.867500 0.677276 0.548000 0.104878
H10   H     H_    0.052525 0.712551 0.639827 0.284928
N1    N     N_2   0.152970 0.501340 0.501040 -0.039855
N2    N     N_2   0.846830 0.501370 0.501060 -0.334242
O1    O     O_R   0.382960 0.678040 0.499980 -0.449811
O2    O     O_3   0.104780 0.445074 0.424720 -0.664861
O3    O     O_R   0.617100 0.678080 0.500020 -0.511303
O4    O     O_R   0.366380 0.499950 0.637830 -0.454980
O5    O     O_R   0.600520 0.499990 0.637860 -0.503604
O6    O     O_R   0.382900 0.321920 0.499980 -0.518163
O7    O     O_R   0.617040 0.321960 0.500020 -0.504752
O8    O     O_R   0.399480 0.500010 0.362140 -0.503913
O9    O     O_R   0.633620 0.500050 0.362170 -0.476319
O10   O     O_3   0.127086 0.659168 0.610318 -0.680021

loop_
_geom_bond_atom_site_label_1
_geom_bond_atom_site_label_2
_ccdc_geom_bond_type
C5    C8    S    
Cu2   O9    S    
C6    C7    S    
Cu2   N2    S    
Cu1   O6    S    
C10   H5    S    
Cu1   N1    S    
H3    N2    S    
C15   H9    S    
C12   H7    S    
C4    C8    T    
C10   C11   D    
Cu1   Cu2   S    
C3    O9    A    
C6    H1    S    
C2    O7    A    
C10   C12   S    
C2    C11   S    
C9    C16   S    
N1    O2    S    
Cu1   O8    S    
C16   O5    A    
H2    O2    S    
C5    C6    D    
Cu1   O1    S    
Cu2   O3    S    
C13   H8    S    
C1    C13   S    
Cu1   O4    S    
H10   O10   S    
C14   N1    D    
C1    O3    A    
C3    C4    S    
C11   H6    S    
C1    O1    A    
C12   C13   D    
C15   N2    D    
Cu2   O5    S    
C2    O6    A    
C7    C9    T    
C14   C15   S    
C16   O4    A    
C14   O10   S    
Cu2   O7    S    
C5    H4    S    
C3    O8    A    
