data_mof_unit_33799.cif
_audit_creation_date              2013-03-05T15:48:29-0500
_audit_creation_method            fapswitch 2.2
_symmetry_space_group_name_H-M    P1
_symmetry_Int_Tables_number       1
_space_group_crystal_system       triclinic
_cell_length_a                    18.69236
_cell_length_b                    18.893108
_cell_length_c                    18.928851
_cell_angle_alpha                 108.895918
_cell_angle_beta                  109.602311
_cell_angle_gamma                 109.22987
_cell_volume                      5188.93539316

loop_
_atom_site_label
_atom_site_type_symbol
_atom_site_description
_atom_site_fract_x
_atom_site_fract_y
_atom_site_fract_z
_atom_type_partial_charge
O1    O     O_R   0.408690 0.356690 0.448570 -0.588665
O2    O     O_R   0.408090 0.460090 0.551440 -0.544995
C1    C     C_R   0.374621 0.381651 0.494330 0.849467
O3    O     O_R   0.592400 0.448300 0.540670 -0.567790
O4    O     O_R   0.591800 0.551700 0.643540 -0.509777
C2    C     C_R   0.618950 0.498742 0.620505 0.940285
Zn1   Zn    Zn3+2 0.500400 0.430960 0.431310 1.171675
Zn2   Zn    Zn3+2 0.499600 0.569040 0.568690 1.159388
O5    O     O_R   0.591910 0.539910 0.448560 -0.609573
O6    O     O_R   0.591310 0.643310 0.551430 -0.606248
O7    O     O_R   0.408200 0.448300 0.356460 -0.573836
O8    O     O_R   0.407600 0.551700 0.459330 -0.616528
C3    C     C_R   0.619094 0.618733 0.498857 0.885713
C4    C     C_R   0.392697 0.512168 0.380755 0.909642
C5    C     C_3   0.686980 0.410895 0.653481 0.083645
H1    H     H_    0.625050 0.361476 0.640780 0.157438
C6    C     C_3   0.764470 0.416697 0.722641 0.017708
H2    H     H_    0.815339 0.427302 0.704066 0.214717
H3    H     H_    0.791123 0.555119 0.667355 0.201689
C7    C     C_3   0.778845 0.574874 0.721835 0.161118
C8    C     C_3   0.664932 0.505891 0.766520 0.142941
C9    C     C_3   0.686393 0.500247 0.689697 -0.422292
H4    H     H_    0.608139 0.441182 0.735155 0.067319
C10   C     C_3   0.806807 0.499302 0.811220 -0.460713
C11   C     C_3   0.847782 0.579717 0.798193 -0.017792
C12   C     C_3   0.737625 0.508814 0.842236 0.418242
H5    H     H_    0.869137 0.637485 0.856883 0.244276
C13   C     C_R   0.424501 0.304853 0.594172 -0.072171
C14   C     C_R   0.451472 0.280657 0.655870 -0.076156
C15   C     C_R   0.395133 0.247968 0.683638 -0.114926
C16   C     C_R   0.309176 0.232125 0.644483 0.395177
C17   C     C_R   0.275448 0.235924 0.566442 0.016041
C18   C     C_R   0.336733 0.285731 0.551326 0.100361
C19   C     C_R   0.186010 0.189025 0.499414 -0.080379
C20   C     C_R   0.160509 0.211007 0.432161 -0.016065
C21   C     C_R   0.219465 0.290278 0.446875 -0.117284
C22   C     C_R   0.309046 0.318347 0.496783 -0.037871
C23   C     C_R   0.078447 0.162820 0.353789 0.432223
C24   C     C_R   0.045899 0.205543 0.316332 -0.220533
C25   C     C_R   0.095403 0.293112 0.348829 0.279262
C26   C     C_R   0.185403 0.334481 0.408512 0.223364
H6    H     H_    0.472617 0.337999 0.580197 0.131168
H7    H     H_    0.518092 0.293819 0.687264 0.195954
H8    H     H_    0.420679 0.241510 0.740307 0.183123
H9    H     H_    0.980692 0.169854 0.261508 0.240183
C27   C     C_R   0.346266 0.653873 0.418809 -0.128962
C28   C     C_R   0.305964 0.701229 0.439839 -0.101852
C29   C     C_R   0.224086 0.678911 0.379103 -0.017671
C30   C     C_R   0.183790 0.611014 0.296386 0.017569
C31   C     C_R   0.224860 0.564528 0.272498 0.068119
C32   C     C_R   0.304901 0.582144 0.335963 0.114842
C33   C     C_R   0.185740 0.499052 0.187314 -0.033109
C34   C     C_R   0.222309 0.445787 0.168010 -0.123909
C35   C     C_R   0.308517 0.472578 0.226096 -0.124987
C36   C     C_R   0.341103 0.528226 0.314305 -0.069962
C37   C     C_R   0.174294 0.363756 0.095058 0.270767
C38   C     C_R   0.218551 0.326922 0.063415 0.124551
C39   C     C_R   0.309623 0.366808 0.110335 0.105513
C40   C     C_R   0.355630 0.439317 0.192862 0.328712
H10   H     H_    0.411114 0.676688 0.467789 0.145566
H11   H     H_    0.338630 0.755657 0.503476 0.169790
H12   H     H_    0.192547 0.715502 0.395347 0.166464
H13   H     H_    0.121830 0.597489 0.249784 0.132137
C41   C     C_R   0.581177 0.740600 0.460422 -0.129734
C42   C     C_R   0.559907 0.796767 0.438094 -0.184703
C43   C     C_R   0.619908 0.860484 0.434419 0.327373
C44   C     C_R   0.702225 0.867440 0.455133 -0.183574
C45   C     C_R   0.726559 0.811280 0.479831 0.062093
C46   C     C_R   0.663316 0.745464 0.479664 0.108265
C47   C     C_R   0.812319 0.820521 0.508893 0.003475
C48   C     C_R   0.831200 0.763200 0.535860 0.036779
C49   C     C_R   0.761867 0.685838 0.510491 0.017162
C50   C     C_R   0.681298 0.682698 0.493709 -0.054264
C51   C     C_R   0.916157 0.776412 0.581935 -0.208121
C52   C     C_R   0.931554 0.707454 0.573672 0.337124
C53   C     C_R   0.859563 0.624046 0.525449 0.284740
C54   C     C_R   0.776347 0.615074 0.503156 -0.252444
H14   H     H_    0.530069 0.690185 0.457468 0.136853
H15   H     H_    0.495647 0.789281 0.422357 0.179180
H16   H     H_    0.746478 0.920998 0.455732 0.224033
H17   H     H_    0.971830 0.839473 0.624841 0.254674
H18   H     H_    0.723590 0.551182 0.474010 0.233270
O9    O     O_R   0.946100 0.356720 0.906240 -0.589376
O10   O     O_R   0.049540 0.460090 0.906170 -0.638300
C55   C     C_R   0.990451 0.380227 0.871281 0.895460
O11   O     O_R   0.853530 0.448360 0.905250 -0.547851
O12   O     O_R   0.956970 0.551730 0.905180 -0.578906
C56   C     C_R   0.876520 0.498904 0.876139 1.017883
Zn3   Zn    Zn3+2 0.928290 0.431030 0.997370 1.194841
Zn4   Zn    Zn3+2 0.066410 0.569060 0.997270 1.219022
O13   O     O_R   0.945170 0.540000 0.088470 -0.601519
O14   O     O_R   0.048600 0.643370 0.088400 -0.523925
O15   O     O_R   0.037740 0.448360 0.089460 -0.547468
O16   O     O_R   0.141170 0.551730 0.089390 -0.582610
C57   C     C_R   0.009309 0.619381 0.126947 0.925410
C58   C     C_R   0.118490 0.497656 0.116771 0.843094
O17   O     O_R   0.948510 0.908450 0.356890 -0.514674
O18   O     O_R   0.052500 0.908420 0.460860 -0.633117
C59   C     C_R   0.995679 0.873961 0.380408 0.973070
O19   O     O_R   0.039610 0.091640 0.448030 -0.592011
O20   O     O_R   0.143600 0.091610 0.551990 -0.597370
C60   C     C_R   0.120398 0.120706 0.499921 0.896529
Zn5   Zn    Zn3+2 0.930570 0.000030 0.430590 1.205071
Zn6   Zn    Zn3+2 0.069430 0.999990 0.569430 1.210797
O21   O     O_R   0.947500 0.091600 0.539170 -0.638196
O22   O     O_R   0.051490 0.091570 0.643140 -0.502345
O23   O     O_R   0.856400 0.908420 0.448030 -0.599727
O24   O     O_R   0.960390 0.908390 0.552000 -0.593729
C61   C     C_R   0.995582 0.116804 0.620040 0.967312
C62   C     C_R   0.879433 0.882713 0.503159 1.110542
H19   H     H_    0.828594 0.126861 0.861500 0.221595
C63   C     C_R   0.031658 0.407671 0.741364 -0.225192
C64   C     C_R   0.066299 0.425927 0.690721 0.235208
C65   C     C_R   0.063666 0.358896 0.628123 0.343370
C66   C     C_R   0.038641 0.279439 0.625674 -0.174663
C67   C     C_R   0.012677 0.262782 0.683384 0.024044
C68   C     C_R   0.007917 0.328228 0.741031 0.025122
C69   C     C_R   0.993053 0.183590 0.685769 -0.053563
C70   C     C_R   0.962126 0.169590 0.743839 -0.064915
C71   C     C_R   0.934905 0.226119 0.778519 0.049187
C72   C     C_R   0.975499 0.311175 0.793992 -0.046557
C73   C     C_R   0.952051 0.103680 0.769423 0.374820
C74   C     C_R   0.921153 0.102984 0.828039 0.318285
C75   C     C_R   0.867358 0.138451 0.830772 -0.225284
C76   C     C_R   0.870091 0.196168 0.800687 -0.115071
H20   H     H_    0.021938 0.456223 0.779134 0.223959
H21   H     H_    0.042001 0.232009 0.578545 0.197192
H22   H     H_    0.828742 0.224058 0.805049 0.243447
C77   C     C_R   0.160560 0.817856 0.233159 0.371728
C78   C     C_R   0.205965 0.907239 0.271001 -0.230688
C79   C     C_R   0.209101 0.957397 0.344009 0.404588
C80   C     C_R   0.148236 0.921492 0.365690 -0.196290
C81   C     C_R   0.079752 0.835160 0.311165 -0.027841
C82   C     C_R   0.089749 0.777525 0.248795 -0.029236
C83   C     C_R   0.001274 0.807512 0.316392 -0.049132
C84   C     C_R   0.938310 0.716933 0.268135 -0.068263
C85   C     C_R   0.968149 0.660987 0.237412 -0.114360
C86   C     C_R   0.028054 0.686886 0.208757 -0.145584
C87   C     C_R   0.848567 0.675341 0.247944 0.321631
C88   C     C_R   0.796430 0.585832 0.196622 -0.243658
C89   C     C_R   0.836032 0.535396 0.193440 0.206530
C90   C     C_R   0.925629 0.575505 0.222645 0.215337
H23   H     H_    0.251775 0.938490 0.253552 0.243460
H24   H     H_    0.151916 0.965349 0.421584 0.198183
H25   H     H_    0.727578 0.555057 0.176371 0.258506
S1    S     S_3+6 0.685403 0.363936 0.551171 0.118177
O25   O     O_2   0.725763 0.431690 0.530435 -0.259733
O26   O     O_2   0.733500 0.313912 0.553434 -0.195266
O27   O     O_3   0.581243 0.294987 0.472415 -0.468528
H26   H     H_    0.584002 0.276846 0.418526 0.402248
S2    S     S_3+6 0.795546 0.608835 0.947543 0.100002
O28   O     O_2   0.890886 0.638152 0.995572 -0.353696
O29   O     O_2   0.788413 0.682168 0.937707 -0.178544
O30   O     O_3   0.754982 0.592471 0.011375 -0.445214
H27   H     H_    0.788469 0.648667 0.064668 0.381337
S3    S     S_3+6 0.800521 0.683423 0.745458 0.103896
O31   O     O_2   0.729022 0.685410 0.681814 -0.281603
O32   O     O_2   0.817388 0.736110 0.833798 -0.147700
O33   O     O_3   0.891198 0.730247 0.740706 -0.495174
H28   H     H_    0.896508 0.785627 0.745072 0.414114
N1    N     N_R   0.053206 0.338714 0.321793 0.287103
O34   O     O_R   0.976138 0.296255 0.254155 -0.301251
O35   O     O_R   0.081837 0.418911 0.373436 -0.174812
S4    S     S_3+6 0.265532 0.245560 0.714500 0.090047
O36   O     O_2   0.188772 0.257945 0.679284 -0.317115
O37   O     O_2   0.238923 0.168775 0.727809 -0.246893
O38   O     O_3   0.342268 0.333481 0.810111 -0.437807
H29   H     H_    0.376196 0.313470 0.843144 0.392927
S5    S     S_3+6 0.025610 0.051272 0.283828 0.079261
O39   O     O_2   0.074171 0.011773 0.320295 -0.347424
O40   O     O_2   0.934081 0.009830 0.268398 -0.248275
O41   O     O_3   0.021372 0.035416 0.189484 -0.472639
H30   H     H_    0.992706 0.972261 0.153715 0.411310
N2    N     N_R   0.238311 0.421815 0.433041 0.212417
O42   O     O_R   0.229818 0.442545 0.372847 -0.380276
O43   O     O_R   0.269968 0.481685 0.510785 -0.242728
N3    N     N_R   0.354877 0.333024 0.073857 0.288328
O44   O     O_R   0.401101 0.304460 0.111628 -0.244166
O45   O     O_R   0.342804 0.322716 0.998609 -0.257441
S6    S     S_3+6 0.068592 0.293683 0.069978 0.090016
O46   O     O_2   0.003519 0.282479 0.989387 -0.319358
O47   O     O_2   0.059951 0.207753 0.056449 -0.186421
O48   O     O_3   0.049013 0.333821 0.150189 -0.468784
H31   H     H_    0.984872 0.309084 0.122180 0.421427
N4    N     N_R   0.170876 0.249847 0.982419 0.282412
O49   O     O_R   0.185454 0.185696 0.974501 -0.221369
O50   O     O_R   0.120924 0.248327 0.914308 -0.372872
S7    S     S_3+6 0.470317 0.499821 0.238978 0.096824
O51   O     O_2   0.490781 0.509304 0.171130 -0.192455
O52   O     O_2   0.505782 0.587430 0.310323 -0.360967
O53   O     O_3   0.517878 0.448104 0.275653 -0.475827
H32   H     H_    0.578703 0.478008 0.287819 0.397842
S8    S     S_3+6 0.868906 0.530633 0.485102 0.147270
O54   O     O_2   0.897637 0.507405 0.554311 -0.127708
O55   O     O_2   0.782474 0.456484 0.410698 -0.229621
O56   O     O_3   0.942284 0.547605 0.451291 -0.415731
H33   H     H_    0.919250 0.561595 0.405423 0.363299
N5    N     N_R   0.744784 0.334691 0.723158 0.278064
O57   O     O_R   0.807625 0.316949 0.744022 -0.434181
O58   O     O_R   0.665247 0.270906 0.680333 -0.300326
N6    N     N_R   0.597971 0.919046 0.411124 0.230646
O59   O     O_R   0.521739 0.912691 0.392928 -0.317541
O60   O     O_R   0.653700 0.979059 0.407544 -0.320575
S9    S     S_3+6 0.041373 0.729848 0.619050 0.133261
O61   O     O_2   0.069616 0.726501 0.553001 -0.272965
O62   O     O_2   0.098803 0.818343 0.695977 -0.227538
O63   O     O_3   0.052877 0.658581 0.649955 -0.379761
H34   H     H_    0.111897 0.667984 0.661360 0.422628
N7    N     N_R   0.106306 0.512772 0.705932 0.241868
O64   O     O_R   0.177133 0.543080 0.701527 -0.248312
O65   O     O_R   0.084860 0.566875 0.742932 -0.264107
S10   S     S_3+6 0.084121 0.368693 0.546869 0.097403
O66   O     O_2   0.178416 0.395247 0.575625 -0.205737
O67   O     O_2   0.027867 0.282981 0.466506 -0.353045
O68   O     O_3   0.062213 0.441745 0.526587 -0.387966
H35   H     H_    0.999109 0.419180 0.506630 0.398044
S11   S     S_3+6 0.924186 0.001861 0.699732 0.002199
O69   O     O_2   0.005230 0.998382 0.707352 -0.226669
O70   O     O_2   0.871951 0.932542 0.712946 -0.282639
O71   O     O_3   0.859415 0.992094 0.607499 -0.708631
H36   H     H_    0.812860 0.001288 0.615648 0.351676
N8    N     N_R   0.933568 0.056521 0.874079 0.279003
O72   O     O_R   0.884967 0.035969 0.907641 -0.288344
O73   O     O_R   0.999160 0.042080 0.890010 -0.209502
N9    N     N_R   0.786370 0.446555 0.168105 0.247680
O74   O     O_R   0.706382 0.400602 0.104848 -0.280674
O75   O     O_R   0.814623 0.415908 0.217054 -0.242077
S12   S     S_3+6 0.221095 0.776357 0.194472 0.064169
O76   O     O_2   0.184665 0.744764 0.099650 -0.206658
O77   O     O_2   0.314304 0.846305 0.238797 -0.252994
O78   O     O_3   0.224068 0.699446 0.217503 -0.613572
H37   H     H_    0.279627 0.701608 0.223558 0.392617
S13   S     S_3+6 0.292832 0.064898 0.410167 0.059728
O79   O     O_2   0.263388 0.120253 0.380925 -0.232207
O80   O     O_2   0.313477 0.092505 0.501618 -0.343614
O81   O     O_3   0.382977 0.076013 0.403415 -0.451712
H38   H     H_    0.399577 0.038885 0.424100 0.383689
S14   S     S_3+6 0.809691 0.718297 0.311700 0.005998
O82   O     O_2   0.795527 0.786976 0.296820 -0.225957
O83   O     O_2   0.725850 0.652366 0.296348 -0.264417
O84   O     O_3   0.889142 0.753524 0.409815 -0.653228
H39   H     H_    0.893625 0.702270 0.408525 0.346355
N10   N     N_R   0.974149 0.532677 0.240939 0.199347
O85   O     O_R   0.028772 0.561036 0.320706 -0.327652
O86   O     O_R   0.949150 0.455931 0.183612 -0.296206
N11   N     N_R   0.926393 0.594519 0.789308 0.248106
O87   O     O_R   0.922441 0.543976 0.720690 -0.319461
O88   O     O_R   0.998872 0.666373 0.845434 -0.222040
S15   S     S_3+6 0.609167 0.564525 0.796957 0.156743
O89   O     O_2   0.514399 0.513248 0.729185 -0.288524
O90   O     O_2   0.612609 0.574810 0.880274 -0.137473
O91   O     O_3   0.651382 0.662428 0.805617 -0.411317
H40   H     H_    0.610266 0.683180 0.811109 0.384157
N12   N     N_R   0.690890 0.438084 0.856300 0.209103
O92   O     O_R   0.633210 0.440451 0.879495 -0.265616
O93   O     O_R   0.693850 0.367094 0.834186 -0.330194

loop_
_geom_bond_atom_site_label_1
_geom_bond_atom_site_label_2
_geom_bond_distance
_ccdc_geom_bond_type
C80   H24   1.075399 S    
C85   C90   1.425170 A    
N11   O88   1.302184 A    
O20   C60   1.297244 A    
C42   H15   1.082719 S    
C73   S11   1.716769 S    
N6    O60   1.301710 A    
N6    O59   1.301837 A    
C35   C36   1.422332 A    
C20   C21   1.404187 A    
C8    C12   1.579898 S    
Zn6   O22   2.045822 S    
C65   C66   1.397257 A    
S9    O62   1.503371 D    
C33   C58   1.480876 S    
C74   C75   1.385331 A    
C34   C35   1.405432 A    
O81   H38   0.990651 S    
S11   O71   1.665476 S    
Zn1   O7    2.029556 S    
S14   O84   1.671951 S    
S15   O89   1.503991 D    
C19   C60   1.464060 S    
S7    O53   1.680610 S    
C30   H13   1.076272 S    
C21   C22   1.416601 A    
C52   C53   1.405216 A    
C10   C12   1.625868 S    
C64   C65   1.399340 A    
O2    C1    1.286110 A    
O3    Zn1   2.037369 S    
C8    S15   1.842807 S    
C15   C16   1.400364 A    
N2    O42   1.298260 A    
O7    C4    1.308366 A    
O11   C56   1.276558 A    
N4    O50   1.298255 A    
C7    C11   1.531332 S    
N10   O85   1.300237 A    
C2    C9    1.466249 S    
O84   H39   0.992374 S    
C66   H21   1.076885 S    
C67   C68   1.411112 A    
S7    O52   1.493862 D    
C19   C20   1.444262 A    
S5    O39   1.488875 D    
S2    O30   1.683054 S    
C65   S10   1.754540 S    
C68   C72   1.401492 A    
C69   C70   1.458207 A    
S12   O76   1.503279 D    
N12   O93   1.295352 A    
C47   C62   1.472816 S    
C48   C51   1.418954 A    
N1    O35   1.301244 A    
C27   C28   1.393203 A    
C43   N6    1.442308 S    
C29   H12   1.082793 S    
O10   C55   1.303875 A    
C5    C9    1.608588 S    
O33   H28   0.990701 S    
C67   C69   1.438209 A    
C80   C81   1.418479 A    
N10   O86   1.301021 A    
C76   H22   1.079252 S    
C31   C33   1.409253 A    
S2    O28   1.498606 D    
S9    O63   1.678655 S    
C46   C50   1.413029 A    
C47   C48   1.430683 A    
Zn3   O13   2.054095 S    
C14   C15   1.385630 A    
C12   S2    1.865753 S    
S13   O79   1.500930 D    
C38   N4    1.430958 S    
S6    O48   1.680520 S    
C24   H9    1.083478 S    
C27   H10   1.075931 S    
C11   N11   1.480306 S    
C34   C37   1.407234 A    
C4    C36   1.493384 S    
O22   C61   1.291221 A    
C8    C9    1.614325 S    
C14   H7    1.081419 S    
C87   S14   1.727914 S    
S9    O61   1.503150 D    
S5    O40   1.503238 D    
C15   H8    1.083047 S    
C21   C26   1.436306 A    
O10   Zn4   2.054184 S    
C84   C87   1.443790 A    
S12   O77   1.506756 D    
O71   H36   0.991744 S    
O17   C59   1.305042 A    
C26   N2    1.427227 S    
S6    O47   1.502533 D    
C61   C69   1.484667 S    
N7    O64   1.301249 A    
S1    O26   1.504490 D    
C35   C40   1.430525 A    
S3    O33   1.682176 S    
C89   N9    1.436185 S    
C23   C24   1.388937 A    
O9    Zn3   2.045012 S    
C74   N8    1.441500 S    
S14   O83   1.505384 D    
S15   O90   1.501436 D    
Zn4   O16   2.033912 S    
C51   C52   1.396369 A    
C16   S4    1.769321 S    
O63   H34   0.990734 S    
C6    C10   1.573067 S    
C28   C29   1.386438 A    
C83   C84   1.444856 A    
C20   C23   1.435622 A    
C10   C11   1.599536 S    
O3    C2    1.300246 A    
S14   O82   1.498701 D    
O38   H29   0.990519 S    
C71   C76   1.416821 A    
C49   C50   1.407302 A    
N3    O45   1.301293 A    
S11   O69   1.498396 D    
C27   C32   1.418902 A    
O11   Zn3   2.033909 S    
O19   Zn5   2.028209 S    
C79   S13   1.756840 S    
O53   H32   0.990873 S    
C17   C18   1.401404 A    
S7    O51   1.503781 D    
O1    C1    1.296754 A    
C17   C19   1.436202 A    
O12   C56   1.288805 A    
O16   C58   1.302746 A    
O48   H31   0.990405 S    
C82   C86   1.452190 A    
C49   C54   1.422437 A    
S4    O36   1.496086 D    
N7    O65   1.300259 A    
O4    Zn2   2.029558 S    
S1    O27   1.683471 S    
S13   O80   1.500642 D    
Zn4   O14   2.045012 S    
C16   C17   1.434712 A    
S10   O68   1.682265 S    
Zn2   O8    2.037367 S    
S8    O56   1.681063 S    
Zn1   O5    2.034739 S    
S8    O55   1.503571 D    
C6    H2    1.101068 S    
N5    O57   1.296909 A    
C59   C83   1.497173 S    
C6    N5    1.474002 S    
Zn5   O21   2.053610 S    
N2    O43   1.300724 A    
C41   C46   1.417259 A    
C53   C54   1.402117 A    
C70   C71   1.399451 A    
N8    O73   1.301597 A    
C78   H23   1.083519 S    
C10   C56   1.464994 S    
O30   H27   0.990715 S    
O17   Zn5   2.045736 S    
N3    O44   1.300580 A    
Zn2   O6    2.025497 S    
C25   C26   1.415650 A    
O9    C55   1.279982 A    
O19   C60   1.286831 A    
C3    C50   1.431284 S    
C13   C18   1.416628 A    
C30   C31   1.408900 A    
O15   C58   1.285124 A    
C8    H4    1.107323 S    
C12   N12   1.495739 S    
C81   C82   1.436625 A    
S5    O41   1.681708 S    
C39   C40   1.411740 A    
C11   H5    1.102194 S    
C37   C38   1.403272 A    
C7    C9    1.574332 S    
C51   H17   1.073083 S    
C79   C80   1.381382 A    
Zn6   O24   2.028204 S    
C41   H14   1.073917 S    
O41   H30   0.990657 S    
C23   S5    1.764745 S    
S1    O25   1.499947 D    
C37   S6    1.767031 S    
C70   C73   1.455318 A    
C5    C6    1.534278 S    
O5    C3    1.281010 A    
N11   O87   1.300067 A    
C13   C14   1.389110 A    
C57   C86   1.486525 S    
C7    S3    1.818541 S    
N9    O74   1.301287 A    
H19   C75   1.082606 S    
O1    Zn1   2.025497 S    
C63   H20   1.075989 S    
C45   C46   1.403714 A    
S4    O38   1.683331 S    
C40   S7    1.774337 S    
C44   H16   1.069208 S    
C52   S9    1.772034 S    
O8    C4    1.308837 A    
O56   H33   0.990860 S    
O6    C3    1.296922 A    
C88   H25   1.083095 S    
C28   H11   1.082519 S    
C5    S1    1.835763 S    
Zn5   O23   2.030590 S    
C87   C88   1.402997 A    
C44   C45   1.430989 A    
S11   O70   1.504933 D    
C85   C86   1.416357 A    
H3    C7    1.105166 S    
N4    O49   1.301152 A    
C63   C68   1.415289 A    
O23   C62   1.294127 A    
C55   C72   1.472981 S    
O91   H40   0.990409 S    
N12   O92   1.301507 A    
S4    O37   1.503626 D    
C78   C79   1.368248 A    
C77   C78   1.396309 A    
C64   N7    1.440673 S    
C25   N1    1.445252 S    
C42   C43   1.388942 A    
N1    O34   1.301524 A    
C89   C90   1.398636 A    
C41   C42   1.385065 A    
C38   C39   1.400588 A    
O4    C2    1.284188 A    
O21   C61   1.304080 A    
C54   H18   1.074005 S    
C88   C89   1.384534 A    
C5    H1    1.107050 S    
C77   S12   1.788817 S    
S3    O32   1.499292 D    
N9    O75   1.301238 A    
O18   C59   1.299284 A    
O24   C62   1.291231 A    
C43   C44   1.402563 A    
C39   N3    1.435925 S    
C32   C36   1.425986 A    
S2    O29   1.498050 D    
O68   H35   0.990587 S    
Zn3   O15   2.031651 S    
N8    O72   1.301661 A    
S13   O81   1.681824 S    
C18   C22   1.406086 A    
S15   O91   1.681142 S    
C53   S8    1.774266 S    
S10   O67   1.500537 D    
O13   C57   1.318832 A    
C77   C82   1.471315 A    
C24   C25   1.386465 A    
C63   C64   1.393092 A    
C48   C49   1.388006 A    
S3    O31   1.490278 D    
S10   O66   1.500529 D    
C1    C22   1.429527 S    
O14   C57   1.277376 A    
C45   C47   1.436892 A    
S8    O54   1.500918 D    
C29   C30   1.391287 A    
O12   Zn4   2.031524 S    
O2    Zn2   2.034739 S    
O78   H37   0.991206 S    
C81   C83   1.435503 A    
C31   C32   1.414023 A    
C71   C72   1.409528 A    
C84   C85   1.405141 A    
N5    O58   1.303138 A    
O20   Zn6   2.030716 S    
C66   C67   1.416213 A    
C73   C74   1.413943 A    
O27   H26   0.990521 S    
O18   Zn6   2.053480 S    
S12   O78   1.658860 S    
S6    O46   1.492532 D    
C90   N10   1.432263 S    
C33   C34   1.412821 A    
C75   C76   1.378768 A    
C13   H6    1.080278 S    
