data_mof_unit_35233.cif
_audit_creation_date              2012-12-10T16:49:25-0500
_audit_creation_method            fapswitch 2.2
_symmetry_space_group_name_H-M    P1
_symmetry_Int_Tables_number       1
_space_group_crystal_system       triclinic
_cell_length_a                    7.75294
_cell_length_b                    8.578474
_cell_length_c                    12.877856
_cell_angle_alpha                 90.057455
_cell_angle_beta                  88.064167
_cell_angle_gamma                 93.619306
_cell_volume                      854.288893329

loop_
_atom_site_label
_atom_site_type_symbol
_atom_type_description
_atom_site_fract_x
_atom_site_fract_y
_atom_site_fract_z
_atom_type_partial_charge
C1    C     C_R   0.454627 0.205208 0.497284 0.970220
C2    C     C_R   0.711390 0.462033 0.140276 -0.206592
C3    C     C_R   0.589373 0.473551 0.868860 -0.274528
C4    C     C_R   0.410627 0.526449 0.131140 -0.274528
C5    C     C_R   0.578770 0.481708 0.975312 0.186636
C6    C     C_R   0.421230 0.518292 0.024688 0.186635
C7    C     C_2   0.430731 0.041742 0.495733 -0.380056
C8    C     C_2   0.569269 0.958258 0.504267 -0.380056
C9    C     C_R   0.545372 0.794792 0.502716 0.970220
C10   C     C_R   0.465860 0.501961 0.699815 0.882917
C11   C     C_R   0.534140 0.498038 0.300185 0.882917
C12   C     C_R   0.554289 0.496609 0.189019 -0.049680
C13   C     C_R   0.445711 0.503391 0.810981 -0.049680
C14   C     C_R   0.276404 0.545483 0.967035 -0.224384
C15   C     C_R   0.723596 0.454517 0.032965 -0.224385
C16   C     C_R   0.288610 0.537967 0.859724 -0.206592
H1    H     H_    0.823146 0.439039 0.184788 0.162559
H2    H     H_    0.700115 0.009380 0.512413 0.180240
H3    H     H_    0.176854 0.560960 0.815212 0.162559
H4    H     H_    0.155067 0.573291 0.004759 0.138381
H5    H     H_    0.844933 0.426709 0.995240 0.138381
H6    H     H_    0.998465 0.615594 0.421811 0.189893
H7    H     H_    0.001535 0.384406 0.578189 0.189894
H8    H     H_    0.289137 0.554831 0.168602 0.161673
H9    H     H_    0.710862 0.445169 0.831398 0.161673
H10   H     H_    0.299885 0.990620 0.487587 0.180240
N1    N     N_2   0.054030 0.541640 0.471970 -0.177106
N2    N     N_2   0.945970 0.458360 0.528030 -0.177107
O1    O     O_R   0.609680 0.261530 0.506880 -0.612238
O2    O     O_R   0.390320 0.738470 0.493120 -0.612238
O3    O     O_R   0.323330 0.288220 0.488910 -0.629414
O4    O     O_R   0.676670 0.711780 0.511090 -0.629414
O5    O     O_R   0.619510 0.488830 0.661140 -0.625204
O6    O     O_R   0.380490 0.511170 0.338860 -0.625204
O7    O     O_R   0.333160 0.515520 0.643180 -0.632833
O8    O     O_R   0.666840 0.484480 0.356820 -0.632833
Zn1   Zn    Zn3+2 0.691200 0.482180 0.511990 0.939516
Zn2   Zn    Zn3+2 0.308800 0.517820 0.488010 0.939516

loop_
_geom_bond_atom_site_label_1
_geom_bond_atom_site_label_2
_ccdc_geom_bond_type
C11   C12   S    
C10   O7    A    
C4    C12   A    
C3    C13   A    
O3    Zn2   S    
C15   H5    S    
C2    C12   A    
O7    Zn2   S    
C1    O1    A    
C7    C8    D    
C1    C7    S    
H7    N2    S    
C2    H1    S    
C2    C15   A    
C7    H10   S    
N2    Zn1   S    
C16   H3    S    
C9    O2    A    
C11   O8    A    
O5    Zn1   S    
C10   O5    A    
H6    N1    S    
C5    C6    A    
C4    H8    S    
C14   C16   A    
C5    C15   A    
C6    C14   A    
N1    Zn2   S    
C14   H4    S    
C1    O3    A    
C3    H9    S    
O2    Zn2   S    
C4    C6    A    
C13   C16   A    
O1    Zn1   S    
N1    N2    D    
O8    Zn1   S    
O4    Zn1   S    
C9    O4    A    
O6    Zn2   S    
C11   O6    A    
C8    H2    S    
C8    C9    S    
C3    C5    A    
C10   C13   S    
