data_mof_unit_37801.cif
_audit_creation_date              2012-12-10T18:19:12-0500
_audit_creation_method            fapswitch 2.2
_symmetry_space_group_name_H-M    P1
_symmetry_Int_Tables_number       1
_space_group_crystal_system       triclinic
_cell_length_a                    14.846307
_cell_length_b                    14.232028
_cell_length_c                    11.483951
_cell_angle_alpha                 89.999103
_cell_angle_beta                  88.663073
_cell_angle_gamma                 90.000216
_cell_volume                      2425.81857526

loop_
_atom_site_label
_atom_site_type_symbol
_atom_type_description
_atom_site_fract_x
_atom_site_fract_y
_atom_site_fract_z
_atom_type_partial_charge
C1    C     C_R   0.327370 0.500000 0.499647 0.888138
C2    C     C_R   0.450578 0.200900 0.583282 0.026282
C3    C     C_R   0.450577 0.799098 0.583281 0.026284
C4    C     C_R   0.549423 0.200902 0.416718 0.026284
C5    C     C_R   0.449162 0.899415 0.583997 -0.019006
C6    C     C_R   0.550838 0.100585 0.416003 -0.019006
C7    C     C_R   0.550838 0.899417 0.416004 -0.019005
C8    C     C_R   0.449162 0.100583 0.583997 -0.019005
C9    C     C_R   0.500000 0.949624 0.500000 0.081738
C10   C     C_R   0.500000 0.050376 0.500000 0.081738
C11   C     C_R   0.397928 0.950995 0.666921 -0.208297
C12   C     C_R   0.672630 0.500000 0.500352 0.888138
C13   C     C_R   0.602072 0.049005 0.333079 -0.208297
C14   C     C_R   0.602072 0.950999 0.333079 -0.208296
C15   C     C_R   0.397929 0.049000 0.666921 -0.208296
C16   C     C_R   0.499881 0.500000 0.282259 0.910467
C17   C     C_R   0.500119 0.499999 0.717741 0.910468
C18   C     C_1   0.499462 0.500001 0.161745 -0.170060
C19   C     C_1   0.500539 0.499998 0.838255 -0.170062
C20   C     C_1   0.499646 0.500001 0.059365 -0.042139
C21   C     C_1   0.500355 0.499999 0.940635 -0.042141
C22   C     C_R   0.814801 0.500008 0.394555 -0.291100
C23   C     C_R   0.908004 0.500008 0.393244 0.115949
C24   C     C_R   0.185199 0.499991 0.605445 -0.291098
C25   C     C_R   0.767870 0.500000 0.500619 -0.035128
C26   C     C_R   0.232129 0.500000 0.499381 -0.035127
C27   C     C_R   0.811172 0.499990 0.606704 -0.278703
C28   C     C_R   0.188828 0.500010 0.393295 -0.278704
C29   C     C_R   0.904464 0.499989 0.607430 0.131467
C30   C     C_R   0.095536 0.500009 0.392569 0.131467
C31   C     C_R   0.953151 0.499999 0.500168 0.058218
C32   C     C_R   0.046849 0.499999 0.499831 0.058218
C33   C     C_R   0.601056 0.748742 0.324684 0.186193
C34   C     C_R   0.091996 0.499990 0.606756 0.115947
C35   C     C_R   0.691966 0.726318 0.340855 -0.119521
C36   C     C_R   0.744587 0.691084 0.248184 -0.180489
C37   C     C_R   0.707119 0.678767 0.138735 -0.127139
C38   C     C_R   0.617482 0.703777 0.120996 -0.144647
C39   C     C_R   0.564831 0.739733 0.213175 -0.141596
C40   C     C_R   0.398944 0.251257 0.675316 0.186193
C41   C     C_R   0.435168 0.260267 0.786825 -0.141597
C42   C     C_R   0.382517 0.296222 0.879004 -0.144647
C43   C     C_R   0.292881 0.321232 0.861265 -0.127140
C44   C     C_R   0.255414 0.308916 0.751815 -0.180489
C45   C     C_R   0.949732 0.499980 0.713014 -0.218980
C46   C     C_R   0.308035 0.273682 0.659144 -0.119520
C47   C     C_R   0.398939 0.748738 0.675311 0.186195
C48   C     C_R   0.308030 0.726314 0.659133 -0.119517
C49   C     C_R   0.255405 0.691075 0.751798 -0.180479
C50   C     C_R   0.292868 0.678756 0.861251 -0.127144
C51   C     C_R   0.382502 0.703766 0.878997 -0.144652
C52   C     C_R   0.435158 0.739725 0.786824 -0.141601
C53   C     C_R   0.601058 0.251262 0.324686 0.186195
C54   C     C_R   0.564837 0.260272 0.213174 -0.141603
C55   C     C_R   0.617490 0.296230 0.120998 -0.144649
C56   C     C_R   0.050268 0.500018 0.286985 -0.218979
C57   C     C_R   0.707125 0.321244 0.138742 -0.127140
C58   C     C_R   0.744589 0.308928 0.248194 -0.180482
C59   C     C_R   0.691967 0.273689 0.340862 -0.119515
C60   C     C_R   0.043400 0.499981 0.712672 -0.245165
C61   C     C_R   0.956600 0.500018 0.287327 -0.245164
C62   C     C_R   0.549423 0.799100 0.416718 0.026282
H1    H     H_    0.778474 0.500014 0.313677 0.149734
H2    H     H_    0.643192 0.083627 0.266988 0.158570
H3    H     H_    0.643192 0.916379 0.266988 0.158570
H4    H     H_    0.356809 0.083621 0.733012 0.158570
H5    H     H_    0.722441 0.737946 0.424420 0.137446
H6    H     H_    0.814787 0.674396 0.260835 0.146589
H7    H     H_    0.747959 0.651314 0.067230 0.125976
H8    H     H_    0.589029 0.696138 0.035584 0.132993
H9    H     H_    0.496073 0.761015 0.197795 0.122010
H10   H     H_    0.503927 0.238984 0.802206 0.122010
H11   H     H_    0.410970 0.303861 0.964416 0.132993
H12   H     H_    0.221525 0.499985 0.686323 0.149735
H13   H     H_    0.252041 0.348685 0.932769 0.125976
H14   H     H_    0.185214 0.325603 0.739164 0.146589
H15   H     H_    0.277560 0.262054 0.575580 0.137446
H16   H     H_    0.277559 0.737945 0.575566 0.137444
H17   H     H_    0.185206 0.674387 0.739141 0.146593
H18   H     H_    0.252024 0.651299 0.932751 0.125975
H19   H     H_    0.410951 0.696125 0.964412 0.132996
H20   H     H_    0.503915 0.761008 0.802210 0.122012
H21   H     H_    0.496080 0.238987 0.197790 0.122011
H22   H     H_    0.589040 0.303870 0.035584 0.132994
H23   H     H_    0.772130 0.499982 0.687808 0.125929
H24   H     H_    0.747966 0.348701 0.067239 0.125975
H25   H     H_    0.814788 0.325619 0.260849 0.146591
H26   H     H_    0.722439 0.262061 0.424428 0.137446
H27   H     H_    0.227870 0.500017 0.312192 0.125929
H28   H     H_    0.912740 0.499973 0.795500 0.140661
H29   H     H_    0.087260 0.500026 0.204500 0.140661
H30   H     H_    0.077831 0.499974 0.794876 0.140817
H31   H     H_    0.922169 0.500025 0.205124 0.140817
H32   H     H_    0.356808 0.916373 0.733012 0.158570
N1    N     N_R   0.500000 0.750030 0.500000 -0.135772
N2    N     N_R   0.500000 0.249970 0.500000 -0.135772
O1    O     O_R   0.367850 0.580280 0.500030 -0.620322
O2    O     O_R   0.632150 0.419720 0.499970 -0.620323
O3    O     O_R   0.632150 0.580280 0.499970 -0.620320
O4    O     O_R   0.367850 0.419720 0.500030 -0.620321
O5    O     O_R   0.500010 0.580270 0.334450 -0.612211
O6    O     O_R   0.499990 0.419730 0.665550 -0.612210
O7    O     O_R   0.499990 0.580270 0.665550 -0.612210
O8    O     O_R   0.500010 0.419730 0.334450 -0.612209
Zn1   Zn    Zn3+2 0.500000 0.607200 0.500000 0.948256
Zn2   Zn    Zn3+2 0.500000 0.392800 0.500000 0.948256

loop_
_geom_bond_atom_site_label_1
_geom_bond_atom_site_label_2
_ccdc_geom_bond_type
C38   H8    S    
C45   C60   A    
C37   H7    S    
C4    C53   S    
C27   C29   A    
C41   C42   A    
C35   C36   A    
C43   C44   A    
C58   H25   S    
O8    Zn2   S    
C53   C59   A    
C53   C54   A    
C40   C46   A    
C33   C39   A    
C36   C37   A    
C19   C21   T    
C24   C26   A    
C5    C11   A    
C38   C39   A    
C61   H31   S    
C57   H24   S    
C44   H14   S    
C48   H16   S    
C27   H23   S    
C59   H26   S    
C12   O3    A    
N1    Zn1   S    
C17   C19   S    
C22   H1    S    
C4    N2    A    
C11   C15   A    
C16   O8    A    
C56   H29   S    
C31   C32   A    
C33   C62   S    
C22   C25   A    
C28   H27   S    
C7    C14   A    
C9    C10   A    
C51   H19   S    
C12   O2    A    
O1    Zn1   S    
C13   C14   A    
C34   C60   A    
C1    O4    A    
C54   H21   S    
C44   C46   A    
C3    C47   S    
C60   H30   S    
C43   H13   S    
O3    Zn1   S    
O5    Zn1   S    
C51   C52   A    
C4    C6    A    
C1    O1    A    
C58   C59   A    
C15   H4    S    
C30   C56   A    
C24   C34   A    
C49   H17   S    
C29   C45   A    
C32   C34   A    
C17   O6    A    
C7    C62   A    
C5    C9    A    
C37   C38   A    
C47   C48   A    
C35   H5    S    
C50   C51   A    
O7    Zn1   S    
C52   H20   S    
C45   H28   S    
C41   H10   S    
C11   H32   S    
C16   C18   S    
C48   C49   A    
C8    C15   A    
C55   C57   A    
C1    C26   S    
C42   C43   A    
C7    C9    A    
N2    Zn2   S    
C54   C55   A    
C40   C41   A    
C42   H11   S    
C22   C23   A    
C26   C28   A    
C2    C8    A    
C3    C5    A    
C50   H18   S    
C6    C10   A    
C46   H15   S    
C36   H6    S    
C47   C52   A    
C25   C27   A    
O4    Zn2   S    
O2    Zn2   S    
C12   C25   S    
C2    N2    A    
C17   O7    A    
C29   C31   A    
C6    C13   A    
C30   C32   A    
C24   H12   S    
C57   C58   A    
C13   H2    S    
C28   C30   A    
C33   C35   A    
C14   H3    S    
O6    Zn2   S    
C18   C20   T    
C2    C40   S    
C16   O5    A    
C23   C61   A    
C20   C21   S    
C8    C10   A    
C49   C50   A    
C39   H9    S    
C56   C61   A    
C3    N1    A    
C55   H22   S    
C62   N1    A    
C23   C31   A    
