data_mof_unit_38811.cif
_audit_creation_date              2012-12-10T20:46:49-0500
_audit_creation_method            fapswitch 2.2
_symmetry_space_group_name_H-M    P1
_symmetry_Int_Tables_number       1
_space_group_crystal_system       triclinic
_cell_length_a                    12.857735
_cell_length_b                    8.924297
_cell_length_c                    8.159878
_cell_angle_alpha                 89.999207
_cell_angle_beta                  95.876443
_cell_angle_gamma                 89.998927
_cell_volume                      931.395026031

loop_
_atom_site_label
_atom_site_type_symbol
_atom_type_description
_atom_site_fract_x
_atom_site_fract_y
_atom_site_fract_z
_atom_type_partial_charge
C1    C     C_R   0.500000 0.218223 0.500001 0.939576
C2    C     C_R   0.499998 0.781782 0.499999 0.894697
C3    C     C_R   0.298137 0.515714 0.468583 0.897909
C4    C     C_R   0.701861 0.515726 0.531415 0.897878
C5    C     C_R   0.812329 0.558055 0.552023 -0.221182
C6    C     C_R   0.187665 0.558024 0.447970 -0.221140
C7    C     C_R   0.022977 0.590750 0.280776 -0.230870
C8    C     C_R   0.977017 0.590763 0.719219 -0.230854
C9    C     C_R   0.130697 0.573345 0.290287 0.045153
C10   C     C_R   0.869296 0.573383 0.709707 0.045157
C11   C     C_R   0.137524 0.589624 0.589547 0.465742
C12   C     C_R   0.862470 0.589650 0.410445 0.465742
C13   C     C_R   0.028808 0.591686 0.577737 -0.031515
C14   C     C_R   0.971186 0.591690 0.422256 -0.031485
C15   C     C_1   0.499999 0.065240 0.500001 -0.209565
C16   C     C_1   0.499998 0.934722 0.499999 -0.213462
H1    H     H_    0.979649 0.594410 0.161403 0.186280
H2    H     H_    0.020343 0.594411 0.838592 0.186279
N1    N     N_1   0.500020 0.500000 0.073640 -0.036451
N2    N     N_1   0.499980 0.500000 0.926360 -0.036448
O1    O     O_R   0.499990 0.285340 0.636850 -0.615540
O2    O     O_R   0.500010 0.714660 0.363150 -0.626193
O3    O     O_R   0.500010 0.285340 0.363150 -0.615546
O4    O     O_R   0.499990 0.714660 0.636850 -0.626166
O5    O     O_R   0.346350 0.500000 0.614250 -0.562897
O6    O     O_R   0.653650 0.500000 0.385750 -0.562929
O7    O     O_R   0.346360 0.500000 0.340500 -0.633729
O8    O     O_R   0.653640 0.500000 0.659500 -0.633694
Zn1   Zn    Zn3+2 0.499990 0.500000 0.682780 0.976507
Zn2   Zn    Zn3+2 0.500010 0.500000 0.317220 0.976482
O9    O     O_3   0.805683 0.613420 0.259492 -0.613383
C17   C     C_3   0.778524 0.766548 0.248022 -0.319385
H3    H     H_    0.731738 0.801469 0.349043 0.162693
H4    H     H_    0.729363 0.785382 0.130061 0.186954
H5    H     H_    0.849399 0.838067 0.247553 0.149606
O10   O     O_3   0.194317 0.613392 0.740492 -0.613393
C18   C     C_3   0.221403 0.766556 0.751998 -0.319349
H6    H     H_    0.268087 0.801622 0.650871 0.162583
H7    H     H_    0.270650 0.785351 0.869892 0.186999
H8    H     H_    0.150480 0.837997 0.752672 0.149604
C19   C     C_3   0.820878 0.574046 0.871005 -0.313047
C20   C     C_3   0.814822 0.415181 0.940036 -0.732635
H9    H     H_    0.894334 0.375216 0.985717 0.224482
H10   H     H_    0.764998 0.413730 0.043150 0.281506
H11   H     H_    0.780541 0.336128 0.844273 0.244997
H12   H     H_    0.868114 0.645912 0.959893 0.188762
H13   H     H_    0.744459 0.632111 0.862206 0.220604
C21   C     C_3   0.179110 0.573971 0.128984 -0.312974
C22   C     C_3   0.185161 0.415089 0.059996 -0.732802
H14   H     H_    0.219587 0.336092 0.155726 0.245058
H15   H     H_    0.105622 0.375034 0.014547 0.224479
H16   H     H_    0.234862 0.413655 0.956719 0.281541
H17   H     H_    0.131869 0.645826 0.040086 0.188742
H18   H     H_    0.255528 0.632037 0.137749 0.220619

loop_
_geom_bond_atom_site_label_1
_geom_bond_atom_site_label_2
_ccdc_geom_bond_type
C2    O2    A    
O10   C18   S    
C4    O6    A    
C19   H12   S    
O3    Zn2   S    
C1    O1    A    
C8    C13   A    
C1    C15   S    
C11   O10   S    
C18   H8    S    
C2    C16   S    
C19   C20   S    
C2    O4    A    
O9    C17   S    
C3    C6    S    
C17   H3    S    
C22   H16   S    
C6    C9    A    
C3    O7    A    
C19   H13   S    
C5    C10   A    
C18   H7    S    
C13   C14   A    
O7    Zn2   S    
C21   H18   S    
C11   C13   A    
C18   H6    S    
C20   H10   S    
C9    C21   S    
C21   C22   S    
C4    O8    A    
C12   C14   A    
O6    Zn2   S    
C1    O3    A    
N2    Zn1   S    
C12   O9    S    
O5    Zn1   S    
C21   H17   S    
C7    H1    S    
C20   H9    S    
C15   C16   T    
C17   H5    S    
C3    O5    A    
C5    C12   A    
C8    C10   A    
C22   H14   S    
C6    C11   A    
C7    C9    A    
O4    Zn1   S    
O8    Zn1   S    
O2    Zn2   S    
C22   H15   S    
N1    Zn2   S    
O1    Zn1   S    
C7    C14   A    
C8    H2    S    
N1    N2    T    
C4    C5    S    
C10   C19   S    
C20   H11   S    
C17   H4    S    
