data_mof_unit_34340.cif
_audit_creation_date              2012-12-10T19:10:35-0500
_audit_creation_method            fapswitch 2.2
_symmetry_space_group_name_H-M    P1
_symmetry_Int_Tables_number       1
_space_group_crystal_system       triclinic
_cell_length_a                    10.65072
_cell_length_b                    9.77137
_cell_length_c                    15.735002
_cell_angle_alpha                 89.675885
_cell_angle_beta                  89.702253
_cell_angle_gamma                 89.750462
_cell_volume                      1637.51147395

loop_
_atom_site_label
_atom_site_type_symbol
_atom_type_description
_atom_site_fract_x
_atom_site_fract_y
_atom_site_fract_z
_atom_type_partial_charge
C1    C     C_R   0.257981 0.500221 0.504433 0.887820
C2    C     C_3   0.630765 0.519712 0.950676 -0.412712
C3    C     C_3   0.630018 0.522538 0.048758 -0.582197
C4    C     C_1   0.496982 0.498880 0.825824 -0.061668
C5    C     C_1   0.496881 0.500519 0.174190 -0.041478
C6    C     C_1   0.498606 0.500892 0.249486 -0.176653
C7    C     C_3   0.069198 0.645394 0.530862 0.351973
C8    C     C_3   0.070346 0.391401 0.572449 0.276684
C9    C     C_3   0.925906 0.646288 0.525497 -0.489468
C10   C     C_3   0.925837 0.399688 0.574786 -0.388325
C11   C     C_3   0.074017 0.462414 0.417803 -0.569540
C12   C     C_3   0.121203 0.500341 0.507832 0.001700
C13   C     C_3   0.878392 0.500175 0.505019 0.043513
C14   C     C_R   0.500094 0.500327 0.338341 0.907907
C15   C     C_3   0.930189 0.455961 0.417393 -0.418867
C16   C     C_3   0.368530 0.082270 0.506109 0.659340
C17   C     C_3   0.368711 0.917777 0.501662 0.744042
C18   C     C_3   0.555924 0.082055 0.418276 0.295513
C19   C     C_3   0.559673 0.918740 0.419246 0.273477
C20   C     C_3   0.574226 0.079632 0.569797 -0.375286
C21   C     C_3   0.573320 0.918540 0.570277 -0.382608
C22   C     C_R   0.742213 0.499870 0.502190 0.864984
C23   C     C_R   0.499832 0.499659 0.661630 0.888727
C24   C     C_3   0.410562 0.618306 0.048276 0.327847
C25   C     C_3   0.450005 0.357507 0.049419 0.278874
C26   C     C_3   0.443502 0.361660 0.951221 -0.364304
C27   C     C_3   0.410905 0.617350 0.949591 -0.470194
C28   C     C_1   0.498372 0.498964 0.750506 -0.166891
C29   C     C_3   0.494733 0.499303 0.082660 0.207995
C30   C     C_3   0.495625 0.499346 0.917251 0.215080
H1    H     H_    0.314186 0.606049 0.924173 0.194358
H2    H     H_    0.344865 0.348568 0.929646 0.210288
H3    H     H_    0.896891 0.719135 0.474414 0.212202
H4    H     H_    0.887200 0.295326 0.564858 0.169522
H5    H     H_    0.893032 0.524208 0.366392 0.185869
H6    H     H_    0.899845 0.349743 0.402878 0.218065
H7    H     H_    0.538334 0.117227 0.631805 0.179273
H8    H     H_    0.538627 0.879626 0.632280 0.161893
H9    H     H_    0.666418 0.622785 0.070932 0.196021
H10   H     H_    0.694554 0.441877 0.073531 0.199057
H11   H     H_    0.670326 0.617296 0.925624 0.191149
H12   H     H_    0.692679 0.435049 0.928267 0.191265
H13   H     H_    0.103124 0.719527 0.482497 0.158191
H14   H     H_    0.096896 0.286876 0.550337 0.147113
H15   H     H_    0.882595 0.683871 0.585616 0.180464
H16   H     H_    0.892194 0.434715 0.638208 0.188068
N1    N     N_3   0.499750 0.138610 0.498180 -0.115482
N2    N     N_3   0.499750 0.861390 0.498180 -0.111899
O1    O     O_R   0.314910 0.616040 0.499980 -0.521009
O2    O     O_R   0.314910 0.383960 0.499980 -0.621445
O3    O     O_R   0.500120 0.616090 0.377110 -0.591801
O4    O     O_R   0.500120 0.383910 0.377110 -0.587954
O5    O     O_R   0.685320 0.616040 0.499960 -0.589415
O6    O     O_R   0.685320 0.383960 0.499960 -0.584768
O7    O     O_R   0.500110 0.615990 0.622830 -0.605564
O8    O     O_R   0.500110 0.384010 0.622830 -0.666019
Zn1   Zn    Zn3+2 0.500150 0.654960 0.499960 1.025248
Zn2   Zn    Zn3+2 0.500150 0.345040 0.499960 0.976208
H17   H     H_    0.106354 0.539879 0.370420 0.205563
H18   H     H_    0.112855 0.361622 0.397714 0.225209
O9    O     O_3   0.295749 0.136789 0.439190 -0.770955
H19   H     H_    0.205830 0.127218 0.454980 0.339582
O10   O     O_3   0.305509 0.875579 0.427719 -0.776239
H20   H     H_    0.215038 0.896873 0.435109 0.339935
O11   O     O_3   0.312307 0.121363 0.584077 -0.818153
H21   H     H_    0.345570 0.210492 0.601650 0.365988
O12   O     O_3   0.303684 0.860204 0.571681 -0.661884
H22   H     H_    0.340017 0.892141 0.625684 0.343968
H23   H     H_    0.496636 0.115102 0.363541 0.102954
H24   H     H_    0.507002 0.882304 0.362676 0.113034
H25   H     H_    0.672755 0.116464 0.566041 0.235720
H26   H     H_    0.671721 0.880255 0.567466 0.239248
O13   O     O_3   0.676724 0.136666 0.405909 -0.713972
H27   H     H_    0.696399 0.129553 0.344338 0.308900
O14   O     O_3   0.683633 0.869439 0.411632 -0.722546
H28   H     H_    0.707541 0.876070 0.350672 0.314244
O15   O     O_3   0.288056 0.614705 0.082519 -0.732404
H29   H     H_    0.239460 0.543868 0.052339 0.382814
O16   O     O_3   0.332262 0.320975 0.083293 -0.757949
H30   H     H_    0.347383 0.279339 0.140042 0.343193
H31   H     H_    0.520591 0.277746 0.067677 0.082305
H32   H     H_    0.452510 0.716862 0.068854 0.127816
H33   H     H_    0.499006 0.274810 0.924744 0.138336
H34   H     H_    0.446923 0.717105 0.925347 0.162880
O17   O     O_3   0.112031 0.690517 0.610594 -0.680201
H35   H     H_    0.059338 0.649751 0.656160 0.372199
O18   O     O_3   0.117779 0.410799 0.654767 -0.763930
H36   H     H_    0.204203 0.372918 0.655786 0.340166

loop_
_geom_bond_atom_site_label_1
_geom_bond_atom_site_label_2
_ccdc_geom_bond_type
C9    H3    S    
O18   H36   S    
C26   H2    S    
C26   H33   S    
O13   H27   S    
C17   N2    S    
C18   N1    S    
N2    Zn1   S    
C22   O6    A    
O15   H29   S    
C9    H15   S    
C27   H34   S    
C5    C6    T    
C2    H11   S    
O1    Zn1   S    
C18   C19   S    
C3    C29   S    
C9    C13   S    
C24   C29   S    
C24   H32   S    
C11   C15   S    
C14   O4    A    
C21   H8    S    
C16   C17   S    
C10   H16   S    
C24   C27   S    
C20   H25   S    
O3    Zn1   S    
C7    H13   S    
C1    O2    A    
C21   N2    S    
C18   H23   S    
C3    H9    S    
C27   C30   S    
C25   H31   S    
C1    C12   S    
C11   H17   S    
C16   N1    S    
C15   H5    S    
C4    C28   T    
C22   O5    A    
C5    C29   S    
C25   C29   S    
C7    C12   S    
C17   O12   S    
C21   H26   S    
C27   H1    S    
O12   H22   S    
O2    Zn2   S    
C23   O8    A    
O5    Zn1   S    
C19   N2    S    
C25   C26   S    
O17   H35   S    
O10   H20   S    
O14   H28   S    
C6    C14   S    
C14   O3    A    
C8    C12   S    
C10   H4    S    
O7    Zn1   S    
C23   C28   S    
O4    Zn2   S    
C3    H10   S    
C26   C30   S    
C18   O13   S    
C13   C15   S    
C16   O9    S    
C11   H18   S    
C15   H6    S    
O6    Zn2   S    
C7    C9    S    
C25   O16   S    
C8    H14   S    
C10   C13   S    
C11   C12   S    
C23   O7    A    
C2    C30   S    
C8    O18   S    
C19   O14   S    
C2    C3    S    
C17   O10   S    
N1    Zn2   S    
C20   H7    S    
C7    O17   S    
C2    H12   S    
O8    Zn2   S    
C13   C22   S    
O9    H19   S    
C20   N1    S    
O16   H30   S    
C24   O15   S    
C20   C21   S    
C8    C10   S    
O11   H21   S    
C19   H24   S    
C16   O11   S    
C1    O1    A    
C4    C30   S    
