data_mof_unit_42247.cif
_audit_creation_date              2012-12-10T17:08:43-0500
_audit_creation_method            fapswitch 2.2
_symmetry_space_group_name_H-M    P1
_symmetry_Int_Tables_number       1
_space_group_crystal_system       triclinic
_cell_length_a                    15.735413
_cell_length_b                    10.577489
_cell_length_c                    10.066811
_cell_angle_alpha                 89.47358
_cell_angle_beta                  91.101046
_cell_angle_gamma                 90.16202
_cell_volume                      1675.14571524

loop_
_atom_site_label
_atom_site_type_symbol
_atom_type_description
_atom_site_fract_x
_atom_site_fract_y
_atom_site_fract_z
_atom_type_partial_charge
C1    C     C_R   0.488300 0.262919 0.500022 0.899691
C2    C     C_2   0.497128 0.871957 0.493752 -0.358816
C3    C     C_2   0.442117 0.063223 0.392377 0.111368
C4    C     C_R   0.338444 0.500552 0.498854 0.895825
C5    C     C_2   0.453278 0.134802 0.503452 -0.021695
C6    C     C_2   0.531086 0.590919 0.925372 -0.162853
C7    C     C_2   0.546788 0.573528 0.072204 -0.082072
C8    C     C_R   0.500822 0.738067 0.499130 0.923374
C9    C     C_R   0.661574 0.499567 0.501053 0.916010
C10   C     C_3   0.052273 0.440162 0.626140 -0.404346
C11   C     C_3   0.047865 0.428701 0.375646 -0.430197
C12   C     C_3   0.954398 0.439542 0.629756 -0.404395
C13   C     C_3   0.949090 0.425196 0.377188 -0.060831
C14   C     C_1   0.750477 0.499190 0.503132 -0.201003
C15   C     C_3   0.082890 0.503296 0.495968 0.314810
C16   C     C_3   0.441557 0.117457 0.251122 -0.389717
C17   C     C_3   0.413162 0.025163 0.141562 -0.379771
C18   C     C_3   0.410580 0.090383 0.005633 -0.906215
C19   C     C_3   0.423045 0.089309 0.638930 -0.917095
C20   C     C_3   0.413672 0.468909 0.106393 -0.151749
C21   C     C_3   0.356193 0.586435 0.096243 -0.312931
C22   C     C_3   0.262441 0.549375 0.086854 -0.945920
C23   C     C_3   0.917539 0.500673 0.500691 0.280042
C24   C     C_3   0.915783 0.286676 0.369944 -0.396224
C25   C     C_3   0.926437 0.231013 0.230732 -0.353998
C26   C     C_3   0.900473 0.092000 0.227452 -0.903018
C27   C     C_3   0.917351 0.730985 0.597039 -0.397600
C28   C     C_3   0.929603 0.870562 0.557935 -0.368345
C29   C     C_3   0.899185 0.958502 0.666442 -0.891875
C30   C     C_3   0.950637 0.640686 0.488470 -0.062590
C31   C     C_3   0.049467 0.640321 0.487529 -0.422810
C32   C     C_1   0.825808 0.499372 0.502894 -0.146243
C33   C     C_1   0.174301 0.503380 0.495191 -0.109063
C34   C     C_1   0.249598 0.502240 0.496192 -0.192136
C35   C     C_2   0.441366 0.926118 0.409459 -0.160688
H1    H     H_    0.930923 0.340890 0.641477 0.166312
H2    H     H_    0.076058 0.341246 0.633438 0.169301
H3    H     H_    0.068967 0.473955 0.281496 0.150566
H4    H     H_    0.075360 0.331785 0.378359 0.176535
H5    H     H_    0.924797 0.475567 0.286442 0.133678
H6    H     H_    0.077045 0.695076 0.571988 0.177136
H7    H     H_    0.071580 0.687014 0.394756 0.149009
H8    H     H_    0.364360 0.169589 0.004762 0.256096
H9    H     H_    0.474473 0.127525 0.980613 0.261447
H10   H     H_    0.390462 0.021282 0.928783 0.259923
H11   H     H_    0.458193 0.944497 0.137673 0.230258
H12   H     H_    0.078145 0.492105 0.713786 0.169757
H13   H     H_    0.348497 0.988402 0.162650 0.219634
H14   H     H_    0.396302 0.197657 0.247739 0.200270
H15   H     H_    0.506495 0.151317 0.227375 0.223070
H16   H     H_    0.381031 0.161821 0.682122 0.246896
H17   H     H_    0.384667 0.001240 0.634284 0.255216
H18   H     H_    0.478387 0.074635 0.707371 0.245365
H19   H     H_    0.250336 0.489937 0.998032 0.262595
H20   H     H_    0.243564 0.496220 0.177342 0.269886
H21   H     H_    0.222836 0.635872 0.078042 0.250834
H22   H     H_    0.366532 0.647591 0.184228 0.237671
H23   H     H_    0.932926 0.491537 0.718477 0.167292
H24   H     H_    0.371970 0.642978 0.006577 0.213764
H25   H     H_    0.408072 0.411884 0.016042 0.124054
H26   H     H_    0.388008 0.403110 0.181181 0.198948
H27   H     H_    0.943501 0.035503 0.293284 0.253270
H28   H     H_    0.833878 0.080174 0.260195 0.264035
H29   H     H_    0.905292 0.056087 0.124574 0.249070
H30   H     H_    0.886209 0.284585 0.157888 0.218544
H31   H     H_    0.993623 0.238873 0.199686 0.221271
H32   H     H_    0.950043 0.226594 0.444573 0.209300
H33   H     H_    0.847154 0.282439 0.393230 0.211250
H34   H     H_    0.927361 0.678281 0.390570 0.133650
H35   H     H_    0.830572 0.942636 0.684802 0.261147
H36   H     H_    0.936129 0.941831 0.760073 0.258393
H37   H     H_    0.908362 0.058368 0.634688 0.242910
H38   H     H_    0.997717 0.890722 0.539541 0.222057
H39   H     H_    0.892609 0.891053 0.465150 0.220922
H40   H     H_    0.848408 0.715545 0.612270 0.210932
H41   H     H_    0.950556 0.711689 0.693556 0.207165
H42   H     H_    0.399411 0.868539 0.347745 0.144587
H43   H     H_    0.540783 0.925632 0.556354 0.154539
H44   H     H_    0.548368 0.680173 0.879313 0.160858
H45   H     H_    0.508835 0.411679 0.890958 0.178563
H46   H     H_    0.597774 0.627986 0.118000 0.138681
N1    N     N_2   0.500900 0.501330 0.852150 -0.192681
N2    N     N_2   0.500920 0.501360 0.147810 -0.101364
O1    O     O_R   0.499990 0.319060 0.613040 -0.602841
O2    O     O_R   0.500010 0.319100 0.386900 -0.647037
O3    O     O_R   0.377130 0.499990 0.613120 -0.601994
O4    O     O_R   0.377160 0.500030 0.386980 -0.638922
O5    O     O_R   0.499990 0.680900 0.613100 -0.610488
O6    O     O_R   0.500010 0.680940 0.386960 -0.616993
O7    O     O_R   0.622840 0.499970 0.613020 -0.606283
O8    O     O_R   0.622870 0.500010 0.386880 -0.607581
Zn1   Zn    Zn3+2 0.499980 0.499970 0.650990 0.933669
Zn2   Zn    Zn3+2 0.500020 0.500030 0.349010 0.908937

loop_
_geom_bond_atom_site_label_1
_geom_bond_atom_site_label_2
_ccdc_geom_bond_type
C2    C35   D    
C7    N2    D    
C24   C25   S    
C6    N1    D    
C31   H7    S    
C17   H13   S    
C26   H28   S    
C28   H39   S    
C9    O8    A    
C22   H19   S    
C4    O4    A    
C1    O1    A    
C12   C23   S    
C10   H2    S    
C1    C5    S    
C28   C29   S    
C16   H15   S    
C21   H24   S    
C10   C15   S    
C30   C31   S    
C4    O3    A    
N2    Zn2   S    
N1    Zn1   S    
C13   C23   S    
C20   H26   S    
C26   H29   S    
C13   H5    S    
C24   H32   S    
C11   C15   S    
C19   H17   S    
O5    Zn1   S    
C16   C17   S    
C20   H25   S    
C29   H37   S    
C12   H23   S    
C19   H18   S    
C21   C22   S    
C27   C30   S    
O2    Zn2   S    
C27   H40   S    
C28   H38   S    
C33   C34   T    
C1    O2    A    
C4    C34   S    
C23   C30   S    
C25   H30   S    
C17   H11   S    
H45   N1    S    
C22   H21   S    
C25   C26   S    
C35   H42   S    
C13   C24   S    
C8    O5    A    
C11   H3    S    
C9    C14   S    
C21   H22   S    
C2    H43   S    
C18   H9    S    
O8    Zn2   S    
O7    Zn1   S    
C3    C35   S    
C17   C18   S    
C16   H14   S    
C11   H4    S    
C6    C7    S    
C10   C12   S    
C7    H46   S    
C12   H1    S    
C27   H41   S    
C18   H10   S    
C10   H12   S    
C30   H34   S    
C29   H35   S    
C31   H6    S    
C2    C8    S    
C25   H31   S    
C14   C32   T    
C3    C5    D    
C9    O7    A    
C15   C31   S    
C22   H20   S    
C5    C19   S    
C23   C32   S    
C26   H27   S    
O3    Zn1   S    
C18   H8    S    
C11   C13   S    
C6    H44   S    
O4    Zn2   S    
O6    Zn2   S    
C24   H33   S    
C19   H16   S    
C20   C21   S    
C20   N2    S    
C27   C28   S    
C8    O6    A    
O1    Zn1   S    
C15   C33   S    
C3    C16   S    
C29   H36   S    
