data_mof_unit_42436.cif
_audit_creation_date              2012-12-10T17:04:27-0500
_audit_creation_method            fapswitch 2.2
_symmetry_space_group_name_H-M    P1
_symmetry_Int_Tables_number       1
_space_group_crystal_system       triclinic
_cell_length_a                    14.998735
_cell_length_b                    10.643688
_cell_length_c                    9.990843
_cell_angle_alpha                 87.334822
_cell_angle_beta                  90.027856
_cell_angle_gamma                 90.279482
_cell_volume                      1593.2124757

loop_
_atom_site_label
_atom_site_type_symbol
_atom_type_description
_atom_site_fract_x
_atom_site_fract_y
_atom_site_fract_z
_atom_type_partial_charge
C1    C     C_R   0.491148 0.262497 0.503459 0.893568
C2    C     C_R   0.184922 0.482842 0.379271 -0.216833
C3    C     C_R   0.230608 0.494646 0.500135 -0.075684
C4    C     C_R   0.326539 0.498949 0.500009 0.877631
C5    C     C_R   0.184701 0.500928 0.621360 -0.267879
C6    C     C_2   0.434851 0.930737 0.428407 0.026911
C7    C     C_2   0.507153 0.871737 0.482839 0.256089
C8    C     C_2   0.441457 0.068081 0.408203 0.501540
C9    C     C_2   0.463508 0.132436 0.516617 -0.019082
C10   C     C_2   0.562164 0.450433 0.927497 -0.136953
C11   C     C_2   0.565754 0.460152 0.076992 -0.128209
C12   C     C_R   0.907267 0.497326 0.622106 0.148737
C13   C     C_R   0.503384 0.737538 0.496472 0.814728
C14   C     C_R   0.673415 0.499335 0.500045 0.876928
C15   C     C_R   0.815237 0.500383 0.621322 -0.261752
C16   C     C_R   0.769263 0.495602 0.500126 -0.087618
C17   C     C_R   0.814627 0.485139 0.379016 -0.241425
C18   C     C_R   0.906929 0.478009 0.377675 -0.015999
C19   C     C_R   0.953455 0.486493 0.500050 0.003789
C20   C     C_3   0.655243 0.873262 0.569567 0.099773
C21   C     C_3   0.643355 0.880646 0.721492 -0.345589
C22   C     C_3   0.709541 0.795944 0.798046 -0.927895
C23   C     C_R   0.953790 0.464219 0.256702 0.491815
C24   C     C_3   0.464289 0.069543 0.176307 0.085562
C25   C     C_3   0.565007 0.094792 0.168533 -0.342228
C26   C     C_3   0.604894 0.044759 0.041195 -0.997372
C27   C     C_3   0.375024 0.069871 0.711774 -0.822239
C28   C     C_3   0.878624 0.334861 0.117260 0.041409
C29   C     C_3   0.949190 0.256576 0.048537 -0.355717
C30   C     C_3   0.911515 0.129240 0.011767 -0.940633
C31   C     C_3   0.275806 0.935336 0.357046 -0.757582
C32   C     C_R   0.046613 0.467589 0.257911 -0.311069
C33   C     C_R   0.092707 0.478562 0.378557 0.033726
C34   C     C_R   0.046204 0.486594 0.500383 0.059724
C35   C     C_R   0.092541 0.497319 0.622394 0.140389
C36   C     C_R   0.046164 0.505972 0.743086 -0.229513
C37   C     C_R   0.953641 0.506198 0.742872 -0.228530
H1    H     H_    0.779649 0.507510 0.715088 0.156037
H2    H     H_    0.081375 0.513810 0.837132 0.149725
H3    H     H_    0.918354 0.514531 0.836677 0.182369
H4    H     H_    0.719394 0.920230 0.542076 0.156524
H5    H     H_    0.663121 0.775027 0.538519 0.129571
H6    H     H_    0.653954 0.979397 0.749617 0.213097
H7    H     H_    0.574649 0.852326 0.751610 0.245856
H8    H     H_    0.696329 0.695987 0.777447 0.276788
H9    H     H_    0.702151 0.807565 0.907312 0.265918
H10   H     H_    0.779001 0.820893 0.768371 0.261933
H11   H     H_    0.433176 0.109738 0.082979 0.167441
H12   H     H_    0.615313 0.399649 0.880454 0.156620
H13   H     H_    0.449730 0.966952 0.177877 0.147941
H14   H     H_    0.577751 0.197534 0.169699 0.237774
H15   H     H_    0.598723 0.048854 0.256604 0.243752
H16   H     H_    0.592661 0.941964 0.037627 0.276165
H17   H     H_    0.677961 0.062178 0.039591 0.269253
H18   H     H_    0.574885 0.093301 0.951379 0.261163
H19   H     H_    0.511108 0.102788 0.711506 0.243067
H20   H     H_    0.379804 0.019811 0.811542 0.236680
H21   H     H_    0.351081 0.167117 0.725415 0.251209
H22   H     H_    0.326337 0.018753 0.650564 0.250089
H23   H     H_    0.454322 0.557072 0.895058 0.163602
H24   H     H_    0.818886 0.342257 0.051554 0.161773
H25   H     H_    0.856344 0.285262 0.212428 0.130466
H26   H     H_    0.972981 0.308043 0.956042 0.235715
H27   H     H_    0.006994 0.240911 0.116746 0.215020
H28   H     H_    0.888045 0.075388 0.103067 0.264829
H29   H     H_    0.964259 0.074284 0.963380 0.268139
H30   H     H_    0.855028 0.142205 0.940543 0.261232
H31   H     H_    0.339412 0.786917 0.460475 0.218427
H32   H     H_    0.219321 0.869824 0.341064 0.233731
H33   H     H_    0.288129 0.988770 0.260900 0.264723
H34   H     H_    0.625560 0.427016 0.128148 0.148418
H35   H     H_    0.256528 0.000451 0.435560 0.235129
H36   H     H_    0.441954 0.523917 0.100829 0.162906
H37   H     H_    0.777821 0.482004 0.285916 0.186061
H38   H     H_    0.082522 0.461831 0.164239 0.158430
H39   H     H_    0.220935 0.477025 0.285661 0.164010
H40   H     H_    0.220465 0.509787 0.714862 0.160599
N1    N     N_2   0.500970 0.501330 0.852150 -0.190605
N2    N     N_2   0.500990 0.501360 0.147810 -0.184067
N3    N     N_2   0.461698 0.072881 0.648443 -0.310080
N4    N     N_2   0.354022 0.864073 0.397938 -0.325236
O1    O     O_R   0.499990 0.319060 0.613040 -0.622093
O2    O     O_3   0.425337 0.130741 0.284693 -0.651356
O3    O     O_3   0.910160 0.458692 0.134871 -0.658552
O4    O     O_R   0.500010 0.319100 0.386900 -0.570215
O5    O     O_R   0.367830 0.499950 0.613080 -0.626781
O6    O     O_R   0.367860 0.499990 0.386940 -0.616827
O7    O     O_R   0.499990 0.680900 0.613100 -0.621760
O8    O     O_R   0.500010 0.680940 0.386960 -0.610964
O9    O     O_R   0.632140 0.500010 0.613060 -0.626406
O10   O     O_R   0.632170 0.500050 0.386920 -0.628385
O11   O     O_3   0.586728 0.939845 0.499463 -0.699403
Zn1   Zn    Zn3+2 0.499980 0.499970 0.650990 0.927830
Zn2   Zn    Zn3+2 0.500020 0.500030 0.349010 0.960201

loop_
_geom_bond_atom_site_label_1
_geom_bond_atom_site_label_2
_ccdc_geom_bond_type
C29   H26   S    
C28   O3    S    
C8    O2    S    
C35   C36   A    
C26   H18   S    
C32   H38   S    
C20   H4    S    
C10   N1    D    
C4    O6    A    
C20   O11   S    
H23   N1    S    
H31   N4    S    
C36   C37   A    
C24   O2    S    
C18   C19   A    
C37   H3    S    
C11   H34   S    
C4    O5    A    
N1    Zn1   S    
C15   C16   A    
O6    Zn2   S    
C12   C37   A    
C12   C19   A    
C34   C35   A    
O8    Zn2   S    
C14   O9    A    
C21   H6    S    
C31   H33   S    
C8    C9    D    
C30   H30   S    
C28   H24   S    
C22   H10   S    
C29   H27   S    
O1    Zn1   S    
C21   C22   S    
C24   H13   S    
C26   H17   S    
C17   C18   A    
C1    O4    A    
C23   O3    S    
C18   C23   A    
C24   H11   S    
C1    C9    S    
C24   C25   S    
N2    Zn2   S    
C27   N3    S    
C27   H20   S    
C16   C17   A    
C6    C8    S    
C25   C26   S    
C27   H21   S    
C9    N3    S    
C25   H14   S    
C15   H1    S    
C29   C30   S    
O5    Zn1   S    
C21   H7    S    
O4    Zn2   S    
C12   C15   A    
C7    C13   S    
C33   C34   A    
H36   N2    S    
C30   H29   S    
C11   N2    D    
C2    C33   A    
C31   H35   S    
C22   H9    S    
C17   H37   S    
C14   C16   S    
C5    H40   S    
C3    C4    S    
C26   H16   S    
C2    H39   S    
O9    Zn1   S    
O7    Zn1   S    
C28   C29   S    
C13   O8    A    
C36   H2    S    
C3    C5    A    
C19   C34   A    
C31   N4    S    
C20   H5    S    
C6    C7    D    
H19   N3    S    
C23   C32   A    
C2    C3    A    
C1    O1    A    
C25   H15   S    
C27   H22   S    
C32   C33   A    
O10   Zn2   S    
C7    O11   S    
C5    C35   A    
C13   O7    A    
C14   O10   A    
C30   H28   S    
C10   C11   S    
C31   H32   S    
C22   H8    S    
C20   C21   S    
C6    N4    S    
C10   H12   S    
C28   H25   S    
