data_mof_unit_20224.cif
_audit_creation_date              2012-12-10T16:57:06-0500
_audit_creation_method            fapswitch 2.2
_symmetry_space_group_name_H-M    P1
_symmetry_Int_Tables_number       1
_space_group_crystal_system       triclinic
_cell_length_a                    7.766056
_cell_length_b                    8.572739
_cell_length_c                    16.684286
_cell_angle_alpha                 92.118913
_cell_angle_beta                  79.663069
_cell_angle_gamma                 93.927639
_cell_volume                      1089.83950875

loop_
_atom_site_label
_atom_site_type_symbol
_atom_type_description
_atom_site_fract_x
_atom_site_fract_y
_atom_site_fract_z
_atom_type_partial_charge
C1    C     C_R   0.546389 0.794917 0.497917 0.967759
C2    C     C_R   0.453617 0.205082 0.502089 0.973169
C3    C     C_2   0.570837 0.958426 0.496653 -0.351688
C4    C     C_2   0.429197 0.041553 0.503320 -0.356694
C5    C     C_R   0.476442 0.507153 0.654562 0.907036
C6    C     C_R   0.525406 0.502182 0.345576 0.903656
C7    C     C_R   0.467759 0.555374 0.739500 -0.129969
C8    C     C_R   0.545710 0.514288 0.257914 -0.132741
C9    C     C_R   0.611883 0.645493 0.760204 -0.242872
C10   C     C_R   0.407222 0.455671 0.219916 -0.233813
C11   C     C_R   0.607284 0.704817 0.838841 0.207799
C12   C     C_R   0.417338 0.471053 0.136790 0.217667
C13   C     C_R   0.457200 0.672415 0.897800 0.074694
C14   C     C_R   0.567557 0.547348 0.091593 0.064633
C15   C     C_R   0.308343 0.593235 0.876219 -0.162306
C16   C     C_R   0.708566 0.600885 0.128347 -0.165928
C17   C     C_R   0.312686 0.532371 0.797615 0.172958
C18   C     C_R   0.698796 0.586796 0.211585 0.168661
C19   C     C_2   0.469713 0.675854 0.983405 -0.144248
C20   C     C_2   0.577682 0.578619 0.006449 -0.156963
H1    H     H_    0.728633 0.670549 0.715133 0.183590
H2    H     H_    0.290861 0.397823 0.254947 0.186984
H3    H     H_    0.672525 0.518511 0.962111 0.195538
H4    H     H_    0.370043 0.730011 0.027861 0.187804
H5    H     H_    0.193754 0.566906 0.922324 0.190865
H6    H     H_    0.823564 0.659607 0.092632 0.188368
H7    H     H_    0.704443 0.009841 0.490252 0.186358
H8    H     H_    0.295597 0.990124 0.509709 0.185944
N1    N     N_2   0.953500 0.457650 0.478520 -0.154799
N2    N     N_2   0.046500 0.542350 0.521480 -0.155368
O1    O     O_R   0.388470 0.738640 0.505270 -0.612678
O2    O     O_R   0.611530 0.261360 0.494730 -0.611068
O3    O     O_R   0.679650 0.711510 0.491500 -0.621354
O4    O     O_R   0.320350 0.288490 0.508500 -0.622133
O5    O     O_R   0.337210 0.515200 0.623500 -0.588932
O6    O     O_R   0.662790 0.484800 0.376500 -0.586882
O7    O     O_R   0.628380 0.488060 0.609730 -0.623048
O8    O     O_R   0.371620 0.511940 0.390270 -0.621653
Zn1   Zn    Zn3+2 0.305580 0.518120 0.509190 0.984512
Zn2   Zn    Zn3+2 0.694420 0.481880 0.490810 0.983818
I1    I     I_    0.914406 0.693940 0.260702 -0.316910
I2    I     I_    0.086397 0.394150 0.775996 -0.284170
I3    I     I_    0.204186 0.372474 0.083780 -0.336559
I4    I     I_    0.833282 0.835177 0.866144 -0.311420
H9    H     H_    0.023433 0.380021 0.439095 0.197377
H10   H     H_    0.976575 0.620011 0.560891 0.195002

loop_
_geom_bond_atom_site_label_1
_geom_bond_atom_site_label_2
_ccdc_geom_bond_type
C2    C4    S    
C6    O8    A    
C15   C17   A    
N1    N2    D    
C5    O7    A    
O7    Zn2   S    
C11   C13   A    
O5    Zn1   S    
C19   C20   D    
O1    Zn1   S    
C20   H3    S    
O6    Zn2   S    
C2    O4    A    
C3    H7    S    
C19   H4    S    
C1    O3    A    
C11   I4    S    
C10   H2    S    
C9    C11   A    
C9    H1    S    
C10   C12   A    
C5    O5    A    
N1    Zn2   S    
C16   C18   A    
C4    H8    S    
C12   C14   A    
N2    Zn1   S    
C12   I3    S    
O2    Zn2   S    
C13   C15   A    
C16   H6    S    
O8    Zn1   S    
C14   C16   A    
C15   H5    S    
O3    Zn2   S    
C13   C19   S    
C3    C4    D    
C7    C9    A    
C1    O1    A    
C14   C20   S    
C2    O2    A    
C18   I1    S    
N1    H9    S    
C5    C7    S    
C17   I2    S    
C6    C8    S    
C1    C3    S    
N2    H10   S    
C8    C10   A    
C8    C18   A    
O4    Zn1   S    
C6    O6    A    
C7    C17   A    
