data_mof_unit_29178.cif
_audit_creation_date              2012-12-10T18:49:26-0500
_audit_creation_method            fapswitch 2.2
_symmetry_space_group_name_H-M    P1
_symmetry_Int_Tables_number       1
_space_group_crystal_system       triclinic
_cell_length_a                    9.953856
_cell_length_b                    10.678365
_cell_length_c                    13.748532
_cell_angle_alpha                 89.250935
_cell_angle_beta                  83.00115
_cell_angle_gamma                 92.130423
_cell_volume                      1449.22403671

loop_
_atom_site_label
_atom_site_type_symbol
_atom_type_description
_atom_site_fract_x
_atom_site_fract_y
_atom_site_fract_z
_atom_type_partial_charge
C1    C     C_R   0.503745 0.739665 0.497554 0.956654
C2    C     C_R   0.923513 0.586586 0.552318 -0.130384
C3    C     C_1   0.538904 0.497105 0.212287 -0.154609
C4    C     C_1   0.461097 0.502892 0.787719 -0.154771
C5    C     C_2   0.556074 0.511234 0.021916 -0.025343
C6    C     C_2   0.443864 0.488967 0.978104 -0.025144
C7    C     C_1   0.451788 0.498288 0.874619 -0.044522
C8    C     C_1   0.548193 0.501765 0.125390 -0.044976
C9    C     C_R   0.580077 0.944183 0.421340 -0.175596
C10   C     C_R   0.419854 0.055823 0.578655 -0.175627
C11   C     C_R   0.559420 0.071680 0.418768 0.365877
C12   C     C_R   0.496251 0.260337 0.502451 0.956636
C13   C     C_R   0.440522 0.928327 0.581233 0.365708
C14   C     C_R   0.147113 0.305317 0.402704 0.236747
C15   C     C_R   0.218054 0.314074 0.308222 -0.063620
C16   C     C_R   0.276365 0.208274 0.264507 -0.094169
C17   C     C_R   0.258234 0.091824 0.312678 -0.102546
C18   C     C_R   0.181935 0.081014 0.404728 -0.187200
C19   C     C_R   0.126412 0.187260 0.449616 -0.111121
C20   C     C_R   0.852932 0.694770 0.597174 0.236689
C21   C     C_R   0.781828 0.686147 0.691609 -0.063318
C22   C     C_R   0.723345 0.792000 0.735117 -0.094354
C23   C     C_R   0.488758 0.127433 0.499804 -0.207437
C24   C     C_R   0.741604 0.908383 0.686858 -0.102976
C25   C     C_R   0.818146 0.919074 0.594896 -0.187275
C26   C     C_R   0.873730 0.812761 0.550159 -0.111343
C27   C     C_R   0.309451 0.452267 0.031658 0.155374
C28   C     C_R   0.256889 0.329176 0.025502 -0.210654
C29   C     C_R   0.123865 0.297283 0.065447 -0.163306
C30   C     C_R   0.043008 0.387712 0.112784 -0.052574
C31   C     C_R   0.095572 0.509741 0.121071 -0.159623
C32   C     C_R   0.228246 0.542457 0.080300 -0.164697
C33   C     C_R   0.690353 0.548457 0.968417 0.155200
C34   C     C_R   0.511219 0.872572 0.500207 -0.207332
C35   C     C_R   0.741799 0.672014 0.974031 -0.210680
C36   C     C_R   0.874723 0.704598 0.934268 -0.163933
C37   C     C_R   0.956600 0.614382 0.887659 -0.052682
C38   C     C_R   0.905176 0.491849 0.879949 -0.158302
C39   C     C_R   0.772593 0.458452 0.920536 -0.165025
C40   C     C_R   0.686151 0.893570 0.348296 0.183890
C41   C     C_R   0.817407 0.950469 0.337265 -0.064024
C42   C     C_R   0.917445 0.910285 0.265823 -0.153175
C43   C     C_R   0.888323 0.812074 0.205204 -0.139198
C44   C     C_R   0.759439 0.753708 0.216483 -0.125692
C45   C     C_R   0.476421 0.503345 0.684941 0.928338
C46   C     C_R   0.657471 0.795757 0.286252 -0.111599
C47   C     C_R   0.313607 0.106418 0.651581 0.183810
C48   C     C_R   0.341994 0.204475 0.713490 -0.111023
C49   C     C_R   0.239755 0.246774 0.782930 -0.125831
C50   C     C_R   0.110893 0.188360 0.794067 -0.139134
C51   C     C_R   0.082098 0.089826 0.733655 -0.153376
C52   C     C_R   0.182395 0.049433 0.662500 -0.064290
C53   C     C_R   0.523579 0.496650 0.315061 0.928531
C54   C     C_R   0.934161 0.416841 0.445208 0.381159
C55   C     C_R   0.065834 0.583139 0.554807 0.381294
C56   C     C_R   0.076492 0.413420 0.447671 -0.130433
Cl1   Cl    Cl    0.859037 0.318896 0.364252 -0.593123
Cl2   Cl    Cl    0.140932 0.681028 0.635809 -0.593066
Cl3   Cl    Cl    0.604437 0.158214 0.307720 -0.604055
Cl4   Cl    Cl    0.395428 0.841805 0.692274 -0.604325
H1    H     H_    0.227552 0.402385 0.268319 0.151318
H2    H     H_    0.935245 0.822271 0.479732 0.119563
H3    H     H_    0.318477 0.258384 0.988621 0.142240
H4    H     H_    0.083528 0.202507 0.059638 0.149635
H5    H     H_    0.939956 0.363108 0.143508 0.192889
H6    H     H_    0.033215 0.578601 0.159117 0.143581
H7    H     H_    0.266769 0.638094 0.085080 0.133166
H8    H     H_    0.679450 0.742628 0.010426 0.142314
H9    H     H_    0.914195 0.799742 0.939663 0.149646
H10   H     H_    0.059581 0.639520 0.857086 0.192887
H11   H     H_    0.968411 0.423106 0.842583 0.143614
H12   H     H_    0.334880 0.216166 0.192959 0.160148
H13   H     H_    0.734965 0.362454 0.916248 0.133265
H14   H     H_    0.841877 0.027449 0.383266 0.169881
H15   H     H_    0.017193 0.955766 0.257065 0.145698
H16   H     H_    0.965290 0.782274 0.148842 0.127847
H17   H     H_    0.738918 0.676630 0.170277 0.147992
H18   H     H_    0.556267 0.753873 0.290942 0.086877
H19   H     H_    0.443160 0.246416 0.708900 0.086762
H20   H     H_    0.260034 0.324120 0.828962 0.147726
H21   H     H_    0.033666 0.218381 0.850145 0.127319
H22   H     H_    0.982375 0.044306 0.742316 0.145784
H23   H     H_    0.302364 0.009816 0.278342 0.142288
H24   H     H_    0.158125 0.972303 0.616576 0.170096
H25   H     H_    0.165402 0.990199 0.440869 0.137288
H26   H     H_    0.064995 0.177651 0.520073 0.119731
H27   H     H_    0.772323 0.597910 0.731636 0.151222
H28   H     H_    0.664584 0.784214 0.806571 0.160426
H29   H     H_    0.697373 0.990434 0.721054 0.142426
H30   H     H_    0.834780 0.009847 0.558700 0.137396
N1    N     N_R   0.142790 0.500030 0.500020 -0.144869
N2    N     N_R   0.857210 0.499970 0.499980 -0.144865
O1    O     O_R   0.385380 0.683250 0.500010 -0.556822
O2    O     O_R   0.614620 0.316750 0.499990 -0.556750
O3    O     O_R   0.614710 0.683220 0.500000 -0.622153
O4    O     O_R   0.385290 0.316780 0.500000 -0.622157
O5    O     O_R   0.368830 0.499990 0.640350 -0.550771
O6    O     O_R   0.631170 0.500010 0.359650 -0.550815
O7    O     O_R   0.598160 0.499960 0.640350 -0.650900
O8    O     O_R   0.401840 0.500040 0.359650 -0.650969
Zn1   Zn    Zn3+2 0.346870 0.500020 0.500000 1.005801
Zn2   Zn    Zn3+2 0.653130 0.499980 0.500000 1.005815

loop_
_geom_bond_atom_site_label_1
_geom_bond_atom_site_label_2
_ccdc_geom_bond_type
C31   H6    S    
C14   C56   S    
C21   H27   S    
C40   C41   A    
C41   C42   A    
C35   C36   A    
C16   H12   S    
C19   H26   S    
C24   H29   S    
C13   Cl4   S    
C40   C46   A    
C12   C23   S    
C42   H15   S    
C37   C38   A    
C48   H19   S    
C36   C37   A    
C2    C55   A    
C30   C31   A    
C15   C16   A    
C18   C19   A    
C52   H24   S    
C55   N1    A    
C41   H14   S    
C56   N1    A    
C47   C48   A    
C16   C17   A    
C5    C33   S    
C22   H28   S    
O3    Zn2   S    
N2    Zn2   S    
C29   H4    S    
C21   C22   A    
C12   O2    A    
C6    C27   S    
N1    Zn1   S    
C4    C7    T    
C11   Cl3   S    
C44   C46   A    
C1    C34   S    
C50   C51   A    
C4    C45   S    
C53   O8    A    
C38   C39   A    
C54   C56   A    
C18   H25   S    
C2    C20   S    
C51   C52   A    
O4    Zn1   S    
C24   C25   A    
C3    C8    T    
C45   O7    A    
O1    Zn1   S    
C46   H18   S    
C25   C26   A    
O6    Zn2   S    
C9    C40   S    
C17   H23   S    
C43   C44   A    
C54   N2    A    
C29   C30   A    
C31   C32   A    
C1    O3    A    
C17   C18   A    
C15   H1    S    
C33   C39   A    
C2    N2    A    
C9    C11   A    
C51   H22   S    
C47   C52   A    
C32   H7    S    
C48   C49   A    
C9    C34   A    
C10   C23   A    
C22   C24   A    
C42   C43   A    
C10   C47   S    
C36   H9    S    
C43   H16   S    
C38   H11   S    
C28   C29   A    
C27   C32   A    
C14   C19   A    
C25   H30   S    
C10   C13   A    
C5    C8    S    
C6    C7    S    
C53   O6    A    
C44   H17   S    
C49   H20   S    
C26   H2    S    
C13   C34   A    
C45   O5    A    
C3    C53   S    
C5    C6    D    
C20   C26   A    
C35   H8    S    
C11   C23   A    
O8    Zn1   S    
C33   C35   A    
C39   H13   S    
C30   H5    S    
C28   H3    S    
O7    Zn2   S    
C20   C21   A    
O2    Zn2   S    
C1    O1    A    
C49   C50   A    
C55   Cl2   S    
C27   C28   A    
C14   C15   A    
C12   O4    A    
C37   H10   S    
O5    Zn1   S    
C50   H21   S    
C54   Cl1   S    
