data_mof_unit_64113.cif
_audit_creation_date              2012-12-10T17:23:39-0500
_audit_creation_method            fapswitch 2.2
_symmetry_space_group_name_H-M    P1
_symmetry_Int_Tables_number       1
_space_group_crystal_system       triclinic
_cell_length_a                    10.178074
_cell_length_b                    10.699326
_cell_length_c                    15.738481
_cell_angle_alpha                 90.016476
_cell_angle_beta                  81.242242
_cell_angle_gamma                 95.281437
_cell_volume                      1686.55948982

loop_
_atom_site_label
_atom_site_type_symbol
_atom_type_description
_atom_site_fract_x
_atom_site_fract_y
_atom_site_fract_z
_atom_type_partial_charge
Br1   Br    Br    0.737783 0.704591 0.907565 -0.252958
Br2   Br    Br    0.262192 0.295409 0.092399 -0.240236
Br3   Br    Br    0.237810 0.058004 0.507573 -0.272276
Br4   Br    Br    0.762887 0.941926 0.457409 -0.272756
C1    C     C_R   0.556149 0.733367 0.497500 0.834677
C2    C     C_3   0.522865 0.383905 0.969927 -0.387113
C3    C     C_3   0.596656 0.584503 0.962773 0.210256
C4    C     C_3   0.403336 0.415498 0.037214 0.211163
C5    C     C_1   0.500664 0.499502 0.750748 -0.073704
C6    C     C_1   0.499334 0.500498 0.249247 -0.069008
C7    C     C_3   0.382776 0.529358 0.982925 0.703245
C8    C     C_3   0.617217 0.470644 0.017062 0.706726
C9    C     C_3   0.501400 0.499095 0.916704 -0.182744
C10   C     C_3   0.498592 0.500906 0.083286 -0.183265
C11   C     C_1   0.501030 0.499168 0.825945 0.161165
C12   C     C_R   0.443875 0.266639 0.508613 0.841900
C13   C     C_1   0.498964 0.500831 0.174048 0.167869
C14   C     C_2   0.588596 0.866812 0.506794 0.133310
C15   C     C_2   0.411478 0.133187 0.523989 0.124201
C16   C     C_2   0.492595 0.932543 0.547352 -0.172329
C17   C     C_2   0.507237 0.067498 0.545992 -0.189378
C18   C     C_2   0.927427 0.510564 0.506623 0.659086
C19   C     C_2   0.072400 0.488811 0.493827 0.665378
C20   C     C_R   0.500224 0.499936 0.661937 0.852356
C21   C     C_R   0.499776 0.500065 0.338066 0.885292
C22   C     C_3   0.477127 0.616097 0.030061 -0.383217
F1    F     F_    0.738670 0.441272 0.036803 -0.555557
F2    F     F_    0.261324 0.558730 0.963181 -0.557563
F3    F     F_    0.118406 0.400590 0.437646 -0.585830
F4    F     F_    0.881182 0.597923 0.563428 -0.591901
F5    F     F_    0.114084 0.639428 0.589340 -0.496994
F6    F     F_    0.886281 0.361842 0.409724 -0.485263
H1    H     H_    0.457698 0.710346 0.055815 0.233538
H2    H     H_    0.542293 0.289658 0.944168 0.231191
H3    H     H_    0.603848 0.113430 0.555000 0.214734
H4    H     H_    0.395718 0.886698 0.574919 0.226189
N1    N     N_2   0.842700 0.448880 0.465440 0.102281
N2    N     N_2   0.157300 0.551120 0.534560 0.101749
O1    O     O_R   0.431060 0.692470 0.506960 -0.606833
O2    O     O_R   0.568940 0.307530 0.493040 -0.603733
O3    O     O_R   0.651120 0.659650 0.484770 -0.552480
O4    O     O_R   0.348880 0.340350 0.515230 -0.554580
O5    O     O_R   0.389990 0.516420 0.634310 -0.578456
O6    O     O_R   0.610010 0.483580 0.365690 -0.566752
O7    O     O_R   0.610050 0.483600 0.612130 -0.584956
O8    O     O_R   0.389950 0.516400 0.387870 -0.574757
Zn1   Zn    Zn3+2 0.353060 0.521920 0.514810 1.152559
Zn2   Zn    Zn3+2 0.646940 0.478080 0.485190 1.155777

loop_
_geom_bond_atom_site_label_1
_geom_bond_atom_site_label_2
_ccdc_geom_bond_type
C4    C10   S    
C5    C20   S    
Br3   C15   S    
C17   H3    S    
C19   N2    D    
C18   F4    S    
C22   H1    S    
F5    N2    S    
Br4   C14   S    
C9    C11   S    
C5    C11   T    
Br1   C3    S    
F6    N1    S    
C10   C22   S    
N1    Zn2   S    
C7    C9    S    
C10   C13   S    
N2    Zn1   S    
C3    C22   S    
C7    F2    S    
C12   O2    A    
C4    C7    S    
C20   O7    A    
C19   F3    S    
C21   O6    A    
C15   C17   D    
O3    Zn2   S    
C8    C10   S    
C14   C16   D    
O4    Zn1   S    
C1    O1    A    
C2    C8    S    
C3    C8    S    
C2    H2    S    
C8    F1    S    
C16   H4    S    
C12   O4    A    
C3    C9    S    
C16   C17   S    
C6    C21   S    
O1    Zn1   S    
O7    Zn2   S    
O2    Zn2   S    
C20   O5    A    
C1    O3    A    
O8    Zn1   S    
C2    C4    S    
C1    C14   S    
C6    C13   T    
C7    C22   S    
C18   C19   S    
C18   N1    D    
O5    Zn1   S    
C21   O8    A    
Br2   C4    S    
O6    Zn2   S    
C2    C9    S    
C12   C15   S    
