data_mof_unit_46603.cif
_audit_creation_date              2012-12-11T14:40:22-0500
_audit_creation_method            fapswitch 2.2
_symmetry_space_group_name_H-M    P1
_symmetry_Int_Tables_number       1
_space_group_crystal_system       triclinic
_cell_length_a                    19.696359
_cell_length_b                    10.81621
_cell_length_c                    19.413705
_cell_angle_alpha                 90.32697
_cell_angle_beta                  97.532954
_cell_angle_gamma                 90.313454
_cell_volume                      4100.05307753

loop_
_atom_site_label
_atom_site_type_symbol
_atom_type_description
_atom_site_fract_x
_atom_site_fract_y
_atom_site_fract_z
_atom_type_partial_charge
C1    C     C_R   0.707235 0.001764 0.366510 0.540641
C2    C     C_3   0.247128 0.421418 0.571524 0.057882
C3    C     C_3   0.252383 0.915311 0.431248 0.057873
C4    C     C_3   0.747132 0.921399 0.571516 0.057873
C5    C     C_3   0.780330 0.542094 0.455975 -0.141310
C6    C     C_3   0.272613 0.539988 0.540781 -0.133935
C7    C     C_3   0.280289 0.042119 0.455968 -0.141308
C8    C     C_3   0.772570 0.040017 0.540792 -0.133976
C9    C     C_3   0.832108 0.476733 0.510839 -0.131873
C10   C     C_3   0.200330 0.554938 0.498816 -0.153361
C11   C     C_3   0.332101 0.976817 0.510826 -0.131913
C12   C     C_R   0.293766 0.003565 0.634567 0.559248
C13   C     C_3   0.700289 0.054882 0.498815 -0.153362
C14   C     C_3   0.803791 0.349363 0.485291 -0.101209
C15   C     C_3   0.175426 0.435398 0.531099 -0.114053
C16   C     C_3   0.303828 0.849416 0.485284 -0.101197
C17   C     C_3   0.675431 0.935292 0.531077 -0.114037
C18   C     C_3   0.750059 0.352809 0.536000 -0.115445
C19   C     C_3   0.198677 0.357284 0.471999 -0.108897
C20   C     C_3   0.250105 0.852794 0.536005 -0.115439
C21   C     C_3   0.698730 0.857245 0.471978 -0.108923
C22   C     C_3   0.778523 0.478792 0.561011 0.050035
C23   C     C_R   0.207236 0.501758 0.366512 0.540635
C24   C     C_3   0.223186 0.475918 0.440390 0.050310
C25   C     C_3   0.278525 0.978808 0.561009 0.050015
C26   C     C_3   0.723191 0.975929 0.440387 0.050317
C27   C     C_3   0.452820 0.284869 0.986904 0.267586
C28   C     C_3   0.424516 0.198995 0.038946 0.252346
C29   C     C_3   0.952998 0.784978 0.986878 0.267710
C30   C     C_3   0.924562 0.699356 0.038950 0.252408
C31   C     C_3   0.526629 0.255537 0.017839 -0.122235
C32   C     C_3   0.425516 0.088229 0.988197 -0.141523
C33   C     C_3   0.026759 0.755279 0.017811 -0.122374
C34   C     C_R   0.793766 0.503561 0.634566 0.559238
C35   C     C_3   0.925368 0.588503 0.988234 -0.141615
C36   C     C_3   0.497658 0.168997 0.069809 0.020803
C37   C     C_3   0.454731 0.175493 0.936951 0.013574
C38   C     C_3   0.997653 0.668997 0.069812 0.020782
C39   C     C_3   0.954718 0.675505 0.936956 0.013521
C40   C     C_R   0.564041 0.184032 0.348576 0.533839
C41   C     C_R   0.466348 0.179828 0.663048 0.542134
C42   C     C_R   0.064047 0.684032 0.348575 0.533832
C43   C     C_R   0.966347 0.679827 0.663047 0.542128
C44   C     C_3   0.499971 0.058225 0.020346 -0.164351
C45   C     C_3   0.698638 0.417568 0.481631 -0.123961
C46   C     C_3   0.528433 0.145048 0.967770 -0.164675
C47   C     C_3   0.999770 0.558126 0.020385 -0.164275
C48   C     C_3   0.028370 0.644691 0.967776 -0.164655
C49   C     C_1   0.761692 0.422264 0.903197 0.002472
C50   C     C_1   0.216259 0.479949 0.084626 0.033772
C51   C     C_1   0.261709 0.922304 0.903210 0.002519
C52   C     C_1   0.716271 0.979924 0.084631 0.033820
C53   C     C_1   0.746277 0.405009 0.033793 -0.008372
C54   C     C_1   0.240287 0.443620 0.957141 0.029708
C55   C     C_1   0.246296 0.905057 0.033806 -0.008101
C56   C     C_3   0.270725 0.343929 0.512881 -0.116714
C57   C     C_1   0.740324 0.943544 0.957163 0.029586
C58   C     C_1   0.752686 0.411571 0.962807 -0.027826
C59   C     C_1   0.227120 0.465342 0.025620 0.020511
C60   C     C_1   0.252709 0.911624 0.962821 -0.027667
C61   C     C_1   0.727143 0.965293 0.025633 0.020533
C62   C     C_1   0.741957 0.393045 0.094456 0.034945
C63   C     C_1   0.251395 0.415022 0.899771 0.051896
C64   C     C_1   0.241968 0.893077 0.094466 0.035163
C65   C     C_1   0.751427 0.914952 0.899791 0.051717
C66   C     C_R   0.739998 0.365424 0.361341 0.540834
C67   C     C_3   0.198649 0.917495 0.481643 -0.123971
C68   C     C_R   0.259247 0.369121 0.640488 0.533826
C69   C     C_R   0.239997 0.865418 0.361343 0.540844
C70   C     C_R   0.759251 0.869105 0.640478 0.533839
C71   C     C_R   0.704073 0.999674 0.154815 0.561329
C72   C     C_R   0.277845 0.951706 0.835824 0.544956
C73   C     C_R   0.204072 0.499678 0.154817 0.561342
C74   C     C_R   0.777841 0.451694 0.835819 0.544942
C75   C     C_R   0.529047 0.178068 0.141307 0.594015
C76   C     C_R   0.434979 0.183012 0.862588 0.580381
C77   C     C_R   0.029052 0.678069 0.141304 0.593975
C78   C     C_3   0.770777 0.843977 0.512874 -0.116733
C79   C     C_R   0.934977 0.683014 0.862589 0.580318
C80   C     C_R   0.735724 0.360044 0.164227 0.551387
C81   C     C_R   0.263405 0.363620 0.834563 0.546034
C82   C     C_R   0.235727 0.860055 0.164231 0.551427
C83   C     C_R   0.763410 0.863614 0.834560 0.545959
C84   C     C_1   0.495376 0.171640 0.599642 -0.017940
C85   C     C_1   0.544427 0.176458 0.416626 -0.019881
C86   C     C_1   0.995381 0.671639 0.599643 -0.017948
C87   C     C_1   0.044443 0.676458 0.416631 -0.019895
C88   C     C_1   0.530168 0.171830 0.474846 -0.057287
C89   C     C_3   0.752381 0.415316 0.431247 0.057874
C90   C     C_1   0.513415 0.169607 0.542925 -0.057721
C91   C     C_1   0.030185 0.671828 0.474852 -0.057279
C92   C     C_1   0.013427 0.669605 0.542929 -0.057718
C93   C     C_3   0.726784 0.544987 0.508070 -0.127522
C94   C     C_3   0.295270 0.462814 0.480659 -0.100307
C95   C     C_3   0.226752 0.044945 0.508073 -0.127473
C96   C     C_3   0.795274 0.962912 0.480669 -0.100311
Cl1   Cl    Cl    0.423479 0.437549 0.966592 -0.539816
Cl2   Cl    Cl    0.356336 0.232600 0.087795 -0.551253
Cl3   Cl    Cl    0.923859 0.937757 0.966527 -0.539455
Cl4   Cl    Cl    0.856460 0.733403 0.087823 -0.551175
Cr1   Cr    Cr6+3 0.765830 0.160660 0.268180 1.051560
Cr2   Cr    Cr6+3 0.384070 0.324050 0.751550 1.061729
Cr3   Cr    Cr6+3 0.115930 0.824050 0.248450 1.049485
Cr4   Cr    Cr6+3 0.884070 0.824050 0.751550 1.061792
Cr5   Cr    Cr6+3 0.234170 0.160660 0.731820 1.028390
Cr6   Cr    Cr6+3 0.265830 0.660660 0.268180 1.051519
Cr7   Cr    Cr6+3 0.734170 0.660660 0.731820 1.028336
Cr8   Cr    Cr6+3 0.612110 0.009150 0.248770 1.042568
Cr9   Cr    Cr6+3 0.387890 0.009150 0.751230 1.030518
Cr10  Cr    Cr6+3 0.112110 0.509150 0.248770 1.042559
Cr11  Cr    Cr6+3 0.887890 0.509150 0.751230 1.030550
Cr12  Cr    Cr6+3 0.615930 0.324050 0.248450 1.049374
H1    H     H_    0.694254 0.621899 0.522015 0.131539
H2    H     H_    0.671669 0.142339 0.490767 0.096346
H3    H     H_    0.886995 0.501143 0.524728 0.122290
H4    H     H_    0.171734 0.642421 0.490756 0.096326
H5    H     H_    0.835490 0.267978 0.475762 0.134276
H6    H     H_    0.126533 0.424779 0.553218 0.130857
H7    H     H_    0.335553 0.768068 0.475751 0.134290
H8    H     H_    0.626537 0.924581 0.553181 0.130876
H9    H     H_    0.736629 0.281377 0.572653 0.126510
H10   H     H_    0.168200 0.283107 0.442471 0.135384
H11   H     H_    0.236710 0.781344 0.572667 0.126535
H12   H     H_    0.344151 0.473722 0.458566 0.134942
H13   H     H_    0.668295 0.783041 0.442433 0.135402
H14   H     H_    0.568504 0.324503 0.030387 0.152165
H15   H     H_    0.384080 0.019503 0.974537 0.144610
H16   H     H_    0.068752 0.824020 0.030337 0.151974
H17   H     H_    0.883810 0.520003 0.974602 0.144521
H18   H     H_    0.519696 0.965060 0.035692 0.157412
H19   H     H_    0.570863 0.123346 0.937318 0.141139
H20   H     H_    0.019329 0.464878 0.035761 0.157532
H21   H     H_    0.070754 0.622682 0.937324 0.141164
H22   H     H_    0.643713 0.392945 0.468014 0.121024
H23   H     H_    0.194196 0.121827 0.522009 0.131543
H24   H     H_    0.302934 0.260625 0.522244 0.107212
H25   H     H_    0.143733 0.892803 0.468039 0.120994
H26   H     H_    0.803013 0.760704 0.522229 0.107213
H27   H     H_    0.844154 0.973915 0.458589 0.134940
H28   H     H_    0.791846 0.617921 0.420914 0.130852
H29   H     H_    0.304877 0.610074 0.571714 0.119906
H30   H     H_    0.291772 0.117955 0.420897 0.130868
H31   H     H_    0.804799 0.110129 0.571740 0.119917
H32   H     H_    0.386979 0.001294 0.524702 0.122285
O1    O     O_R   0.783230 0.287800 0.346510 -0.523999
O2    O     O_R   0.454570 0.285140 0.836900 -0.463536
O3    O     O_R   0.045430 0.785140 0.163100 -0.481585
O4    O     O_R   0.954570 0.785140 0.836900 -0.463416
O5    O     O_R   0.677850 0.374730 0.185500 -0.496691
O6    O     O_R   0.322150 0.374730 0.814500 -0.476171
O7    O     O_R   0.177850 0.874730 0.185500 -0.496672
O8    O     O_R   0.822150 0.874730 0.814500 -0.476245
O9    O     O_3   0.664630 0.164620 0.255130 -0.334997
O10   O     O_3   0.335370 0.164620 0.744870 -0.309281
O11   O     O_3   0.164630 0.664620 0.255130 -0.335020
O12   O     O_R   0.216770 0.287800 0.653490 -0.529139
O13   O     O_3   0.835370 0.664620 0.744870 -0.309295
O14   O     O_R   0.760130 0.037060 0.338610 -0.488172
O15   O     O_R   0.239870 0.037060 0.661390 -0.496035
O16   O     O_R   0.260130 0.537060 0.338610 -0.488171
O17   O     O_R   0.739870 0.537060 0.661390 -0.496040
O18   O     O_R   0.666620 0.921370 0.332440 -0.506339
O19   O     O_R   0.333380 0.921370 0.667560 -0.511928
O20   O     O_R   0.166620 0.421370 0.332440 -0.506331
O21   O     O_R   0.833380 0.421370 0.667560 -0.511924
O22   O     O_R   0.557170 0.082420 0.312350 -0.492538
O23   O     O_R   0.283230 0.787800 0.346510 -0.523993
O24   O     O_R   0.442830 0.082420 0.687650 -0.512918
O25   O     O_R   0.057170 0.582420 0.312350 -0.492553
O26   O     O_R   0.942830 0.582420 0.687650 -0.512926
O27   O     O_R   0.548310 0.285980 0.316250 -0.482591
O28   O     O_R   0.451690 0.285980 0.683750 -0.500194
O29   O     O_R   0.048310 0.785980 0.316250 -0.482567
O30   O     O_R   0.951690 0.785980 0.683750 -0.500178
O31   O     O_R   0.680520 0.375500 0.327470 -0.515666
O32   O     O_R   0.319480 0.375500 0.672530 -0.503875
O33   O     O_R   0.180520 0.875500 0.327470 -0.515661
O34   O     O_R   0.716770 0.787800 0.653490 -0.529145
O35   O     O_R   0.819480 0.875500 0.672530 -0.503855
O36   O     O_R   0.780350 0.286970 0.193350 -0.502382
O37   O     O_R   0.219650 0.286970 0.806650 -0.511895
O38   O     O_R   0.280350 0.786970 0.193350 -0.502395
O39   O     O_R   0.719650 0.786970 0.806650 -0.511892
O40   O     O_R   0.757460 0.036290 0.196640 -0.451809
O41   O     O_R   0.242540 0.036290 0.803360 -0.485426
O42   O     O_R   0.257460 0.536290 0.196640 -0.451892
O43   O     O_R   0.742540 0.536290 0.803360 -0.485476
O44   O     O_R   0.663740 0.920540 0.179290 -0.482538
O45   O     O_R   0.554500 0.081650 0.170370 -0.517605
O46   O     O_R   0.336260 0.920540 0.820710 -0.504684
O47   O     O_R   0.163740 0.420540 0.179290 -0.482468
O48   O     O_R   0.836260 0.420540 0.820710 -0.504608
O49   O     O_R   0.445500 0.081650 0.829630 -0.499743
O50   O     O_R   0.054500 0.581650 0.170370 -0.517662
O51   O     O_R   0.945500 0.581650 0.829630 -0.499723
O52   O     O_R   0.545430 0.285140 0.163100 -0.481761

loop_
_geom_bond_atom_site_label_1
_geom_bond_atom_site_label_2
_ccdc_geom_bond_type
C19   C56   S    
C21   C26   S    
Cr6   O11   S    
C19   H10   S    
C8    C13   S    
C87   C91   T    
Cr5   O12   S    
Cr4   O4    S    
C20   C67   S    
C8    C96   S    
C81   O37   A    
Cr4   O13   S    
C4    C8    S    
C34   O17   A    
C35   C47   S    
C96   H27   S    
C4    C70   S    
C73   O42   A    
C68   O32   A    
Cr3   O3    S    
C56   C94   S    
C26   C96   S    
Cr1   O1    S    
C45   H22   S    
C30   C35   S    
C63   C81   S    
C50   C59   T    
C80   O36   A    
C32   H15   S    
C62   C80   S    
C1    O14   A    
Cr9   O24   S    
C83   O8    A    
C3    C7    S    
C52   C61   T    
C31   C36   S    
C43   O30   A    
C70   O35   A    
C65   C83   S    
Cr12  O27   S    
C20   C25   S    
C11   C25   S    
C44   H18   S    
C81   O6    A    
C41   O24   A    
C30   Cl4   S    
Cr10  O47   S    
Cr3   O29   S    
C79   O51   A    
C30   C38   S    
C11   C16   S    
Cr5   O41   S    
C76   O49   A    
C14   C18   S    
Cr6   O38   S    
C66   O1    A    
Cr8   O22   S    
Cr10  O11   S    
C17   H8    S    
C69   O33   A    
C15   C19   S    
Cr12  O52   S    
Cr8   O9    S    
Cr7   O17   S    
C29   C33   S    
C78   C96   S    
C6    C94   S    
C31   C46   S    
C21   C78   S    
Cr10  O50   S    
C23   C24   S    
Cr9   O49   S    
Cr11  O21   S    
C34   O21   A    
C45   C89   S    
C11   H32   S    
C71   O44   A    
C40   O22   A    
C82   O7    A    
Cr3   O7    S    
C75   O52   A    
C3    C69   S    
Cr5   O10   S    
C45   C93   S    
Cr11  O48   S    
C18   C22   S    
C55   C60   S    
C55   C64   T    
C67   C95   S    
C2    C6    S    
C84   C90   T    
C13   C26   S    
C35   H17   S    
C78   H26   S    
C72   O46   A    
Cr7   O13   S    
C43   O26   A    
C44   C46   S    
C7    C11   S    
C66   C89   S    
C54   C59   S    
Cr2   O28   S    
C80   O5    A    
C22   C34   S    
C41   O28   A    
C29   Cl3   S    
C27   C31   S    
C9    H3    S    
C48   H21   S    
C28   C32   S    
Cr6   O42   S    
Cr9   O19   S    
C50   C73   S    
C46   H19   S    
C9    C14   S    
Cr10  O20   S    
C70   O34   A    
Cr4   O30   S    
C10   C24   S    
C41   C84   S    
Cr8   O18   S    
C33   H16   S    
C17   C21   S    
C49   C58   T    
Cr7   O39   S    
Cr3   O33   S    
C39   C79   S    
C40   C85   S    
C36   C75   S    
C35   C39   S    
C77   O50   A    
C69   O23   A    
C14   C89   S    
C4    C78   S    
C29   C30   S    
C2    C15   S    
C42   O25   A    
C24   C94   S    
C53   C62   T    
C47   C48   S    
Cr1   O9    S    
Cr9   O46   S    
C16   C20   S    
C14   H5    S    
C23   O16   A    
C29   C39   S    
C95   H23   S    
C32   C44   S    
C83   O39   A    
Cr8   O45   S    
C93   H1    S    
C32   C37   S    
C6    H29   S    
C57   C61   S    
Cr9   O10   S    
C64   C82   S    
C38   C47   S    
C73   O47   A    
Cr1   O40   S    
C20   H11   S    
C74   O48   A    
C4    C17   S    
Cr3   O11   S    
C37   C76   S    
Cr2   O6    S    
C1    O18   A    
C56   H24   S    
Cr12  O9    S    
Cr7   O34   S    
C1    C26   S    
C22   C93   S    
C66   O31   A    
C36   C44   S    
C51   C72   S    
C21   H13   S    
C18   C45   S    
C91   C92   S    
C10   H4    S    
C5    H28   S    
C23   O20   A    
C85   C88   T    
C28   Cl2   S    
C77   O3    A    
C27   Cl1   S    
C88   C90   S    
C75   O45   A    
Cr12  O5    S    
C43   C86   S    
C71   O40   A    
Cr8   O44   S    
C3    C67   S    
C13   H2    S    
C57   C65   T    
C68   O12   A    
C42   O29   A    
Cr1   O14   S    
C47   H20   S    
C5    C93   S    
C53   C58   S    
C25   C95   S    
C79   O4    A    
C42   C87   S    
C38   C77   S    
C7    C95   S    
C82   O38   A    
C2    C68   S    
C33   C38   S    
C15   H6    S    
C13   C17   S    
C12   C25   S    
C10   C15   S    
Cr11  O26   S    
Cr6   O23   S    
Cr4   O8    S    
C51   C60   T    
C19   C24   S    
Cr11  O13   S    
Cr1   O36   S    
C86   C92   T    
Cr2   O10   S    
Cr2   O2    S    
C12   O19   A    
Cr5   O15   S    
C27   C37   S    
Cr6   O16   S    
C8    H31   S    
C7    H30   S    
C12   O15   A    
C67   H25   S    
C72   O41   A    
C6    C10   S    
C74   O43   A    
C18   H9    S    
C76   O2    A    
Cr4   O35   S    
Cr10  O25   S    
Cr12  O31   S    
C28   C36   S    
C9    C22   S    
C54   C63   T    
C27   C28   S    
C52   C71   S    
C33   C48   S    
C49   C74   S    
Cr7   O43   S    
C2    C56   S    
C5    C9    S    
C31   H14   S    
Cr5   O37   S    
C37   C46   S    
Cr2   O32   S    
C40   O27   A    
C5    C89   S    
C3    C16   S    
C16   H7    S    
Cr11  O51   S    
C39   C48   S    
C94   H12   S    
