data_mof_unit_20646.cif
_audit_creation_date              2012-12-10T18:04:51-0500
_audit_creation_method            fapswitch 2.2
_symmetry_space_group_name_H-M    P1
_symmetry_Int_Tables_number       1
_space_group_crystal_system       triclinic
_cell_length_a                    10.822329
_cell_length_b                    9.628889
_cell_length_c                    17.756128
_cell_angle_alpha                 89.998968
_cell_angle_beta                  89.739301
_cell_angle_gamma                 89.999884
_cell_volume                      1850.29375949

loop_
_atom_site_label
_atom_site_type_symbol
_atom_type_description
_atom_site_fract_x
_atom_site_fract_y
_atom_site_fract_z
_atom_type_partial_charge
C1    C     C_R   0.262405 0.500001 0.499994 0.807457
C2    C     C_R   0.737595 0.500001 0.500005 0.807438
C3    C     C_1   0.496055 0.517276 0.966141 0.244737
C4    C     C_1   0.503777 0.517276 0.033853 0.244727
C5    C     C_R   0.063914 0.373815 0.499950 -0.138103
C6    C     C_R   0.936085 0.626220 0.500062 -0.124794
C7    C     C_R   0.936087 0.373815 0.500045 -0.138129
C8    C     C_R   0.063915 0.626220 0.499943 -0.124775
C9    C     C_R   0.489045 0.499925 0.355756 0.903947
C10   C     C_R   0.510944 0.499921 0.644245 0.903956
C11   C     C_R   0.871617 0.500014 0.500071 -0.016930
C12   C     C_R   0.128383 0.500014 0.499929 -0.016922
C13   C     C_R   0.512215 0.636508 0.843723 0.278569
C14   C     C_R   0.520512 0.386921 0.152445 0.269996
C15   C     C_R   0.487667 0.636517 0.156272 0.278454
C16   C     C_R   0.479345 0.386920 0.847552 0.270067
C17   C     C_R   0.543513 0.627794 0.766680 0.178439
C18   C     C_R   0.487412 0.377758 0.229153 0.246814
C19   C     C_R   0.456423 0.627809 0.233324 0.178349
C20   C     C_R   0.512490 0.377748 0.770850 0.246798
C21   C     C_R   0.525618 0.500918 0.728029 -0.330261
C22   C     C_R   0.474334 0.500930 0.271975 -0.330214
C23   C     C_R   0.401808 0.073937 0.527868 0.104670
C24   C     C_R   0.598309 0.926083 0.472275 0.054066
C25   C     C_R   0.598191 0.073939 0.472132 0.104611
C26   C     C_R   0.401691 0.926082 0.527725 0.054031
C27   C     C_R   0.490005 0.514616 0.884844 -0.221997
C28   C     C_R   0.509846 0.514618 0.115150 -0.221976
Cu1   Cu    Cu3+1 0.500000 0.640660 0.500000 1.038933
Cu2   Cu    Cu3+1 0.500000 0.359340 0.500000 1.077043
H1    H     H_    0.322944 0.128438 0.550944 0.120325
H2    H     H_    0.677234 0.871593 0.449272 0.107881
H3    H     H_    0.677055 0.128440 0.449055 0.120306
H4    H     H_    0.322766 0.871591 0.550728 0.107888
H5    H     H_    0.111913 0.275097 0.499909 0.162668
H6    H     H_    0.888079 0.724934 0.500130 0.164425
H7    H     H_    0.888088 0.275097 0.500081 0.162658
H8    H     H_    0.111920 0.724935 0.499878 0.164430
N1    N     N_R   0.500000 0.852070 0.500000 -0.154457
N2    N     N_R   0.500000 0.147930 0.500000 -0.161211
O1    O     O_R   0.319640 0.618740 0.499990 -0.584913
O2    O     O_R   0.680360 0.381260 0.500010 -0.595305
O3    O     O_R   0.680360 0.618740 0.500010 -0.584927
O4    O     O_R   0.319640 0.381260 0.499990 -0.595294
O5    O     O_R   0.500000 0.618830 0.391250 -0.566058
O6    O     O_R   0.500000 0.381170 0.608750 -0.517460
O7    O     O_R   0.500000 0.618830 0.608750 -0.566110
O8    O     O_R   0.500000 0.381170 0.391250 -0.517474
S1    S     S_3+6 0.466162 0.797715 0.882657 0.140939
O9    O     O_2   0.377383 0.776714 0.946884 -0.197020
O10   O     O_2   0.576975 0.876146 0.910356 -0.129742
O11   O     O_3   0.392236 0.888870 0.816254 -0.504523
H9    H     H_    0.449954 0.963727 0.802460 0.446017
S2    S     S_3+6 0.603966 0.249782 0.108597 0.106010
O12   O     O_2   0.516053 0.146186 0.075794 -0.131050
O13   O     O_2   0.685486 0.305243 0.046718 -0.268543
O14   O     O_3   0.694068 0.172201 0.172958 -0.479932
H10   H     H_    0.752829 0.114943 0.143377 0.410062
S3    S     S_3+6 0.533656 0.797726 0.117306 0.140957
O15   O     O_2   0.622417 0.776723 0.053070 -0.197013
O16   O     O_2   0.422810 0.876100 0.089607 -0.129763
O17   O     O_3   0.607582 0.888959 0.183674 -0.504353
H11   H     H_    0.549758 0.963644 0.197557 0.445994
S4    S     S_3+6 0.395835 0.249807 0.891386 0.105961
O18   O     O_2   0.483706 0.146183 0.924207 -0.131158
O19   O     O_2   0.314298 0.305293 0.953249 -0.268443
O20   O     O_3   0.305743 0.172256 0.827012 -0.480058
H12   H     H_    0.247065 0.114871 0.856579 0.410066
S5    S     S_3+6 0.639119 0.758619 0.725186 0.111727
O21   O     O_2   0.711432 0.833381 0.784645 -0.153805
O22   O     O_2   0.729378 0.691571 0.671826 -0.265676
O23   O     O_3   0.554961 0.874620 0.676824 -0.437708
H13   H     H_    0.468266 0.842815 0.680864 0.344194
S6    S     S_3+6 0.428814 0.218059 0.264600 0.099968
O24   O     O_2   0.532414 0.140539 0.301625 -0.238884
O25   O     O_2   0.327803 0.243115 0.321468 -0.260182
O26   O     O_3   0.368332 0.121813 0.195107 -0.411349
H14   H     H_    0.300163 0.178817 0.174551 0.371439
S7    S     S_3+6 0.360841 0.758630 0.274842 0.111623
O27   O     O_2   0.288530 0.833448 0.215400 -0.153840
O28   O     O_2   0.270580 0.691560 0.328194 -0.265651
O29   O     O_3   0.445023 0.874580 0.323226 -0.437804
H15   H     H_    0.531731 0.842814 0.319117 0.344134
S8    S     S_3+6 0.571064 0.218031 0.735416 0.099963
O30   O     O_2   0.467464 0.140548 0.698370 -0.238946
O31   O     O_2   0.672113 0.243055 0.678569 -0.260137
O32   O     O_3   0.631481 0.121761 0.804922 -0.411311
H16   H     H_    0.699672 0.178727 0.825481 0.371468

loop_
_geom_bond_atom_site_label_1
_geom_bond_atom_site_label_2
_ccdc_geom_bond_type
O32   H16   S    
C9    O5    A    
C14   C18   A    
S8    O32   S    
O14   H10   S    
O26   H14   S    
C7    C11   A    
Cu1   Cu2   S    
S6    O25   D    
Cu1   O7    S    
Cu2   O8    S    
S8    O31   D    
C25   N2    A    
C26   N1    A    
C23   N2    A    
C24   N1    A    
C23   C26   A    
S5    O22   D    
S2    O12   D    
C26   H4    S    
S1    O10   D    
S6    O26   S    
C10   O6    A    
C8    C12   A    
C16   C27   A    
S3    O15   D    
C18   S6    S    
Cu1   O3    S    
Cu2   O4    S    
C1    C12   S    
C8    H8    S    
C2    C11   S    
C4    C28   S    
C10   C21   S    
S2    O13   D    
S3    O16   D    
S6    O24   D    
O20   H12   S    
S4    O20   S    
C19   C22   A    
S8    O30   D    
C5    C12   A    
C6    C11   A    
S7    O28   D    
C6    C8    A    
C17   C21   A    
Cu1   O5    S    
S4    O19   D    
S5    O23   S    
C15   C19   A    
C24   H2    S    
O17   H11   S    
C1    O4    A    
C2    O3    A    
C16   C20   A    
S1    O11   S    
Cu1   N1    S    
C7    H7    S    
Cu2   N2    S    
C24   C25   A    
C19   S7    S    
C13   S1    S    
C1    O1    A    
C14   S2    S    
S1    O9    D    
C20   S8    S    
C3    C4    T    
O11   H9    S    
C5    C7    A    
C17   S5    S    
S3    O17   S    
Cu1   O1    S    
C18   C22   A    
C15   S3    S    
Cu2   O6    S    
C13   C27   A    
O23   H13   S    
S7    O29   S    
C13   C17   A    
S4    O18   D    
C3    C27   S    
C15   C28   A    
C2    O2    A    
C5    H5    S    
C6    H6    S    
S5    O21   D    
C9    C22   S    
S7    O27   D    
C20   C21   A    
C9    O8    A    
O29   H15   S    
C25   H3    S    
C10   O7    A    
Cu2   O2    S    
C16   S4    S    
C14   C28   A    
C23   H1    S    
S2    O14   S    
