data_mof_unit_60254.cif
_audit_creation_date              2012-12-10T21:33:29-0500
_audit_creation_method            fapswitch 2.2
_symmetry_space_group_name_H-M    P1
_symmetry_Int_Tables_number       1
_space_group_crystal_system       triclinic
_cell_length_a                    14.158588
_cell_length_b                    16.1703
_cell_length_c                    16.649294
_cell_angle_alpha                 86.563788
_cell_angle_beta                  91.170445
_cell_angle_gamma                 91.073234
_cell_volume                      3803.60048494

loop_
_atom_site_label
_atom_site_type_symbol
_atom_type_description
_atom_site_fract_x
_atom_site_fract_y
_atom_site_fract_z
_atom_type_partial_charge
C1    C     C_R   0.497033 0.488259 0.653328 0.900213
C2    C     C_R   0.549486 0.147229 0.529486 -0.228029
C3    C     C_R   0.520414 0.890803 0.517274 0.241276
C4    C     C_R   0.479589 0.109198 0.482728 0.241282
C5    C     C_R   0.584317 0.839208 0.561043 -0.283262
C6    C     C_R   0.415673 0.160789 0.438971 -0.283259
C7    C     C_R   0.578107 0.752488 0.556731 -0.065643
C8    C     C_R   0.421882 0.247510 0.443281 -0.065647
C9    C     C_R   0.670878 0.499167 0.500148 0.895107
C10   C     C_R   0.329122 0.500833 0.499852 0.895106
C11   C     C_1   0.772280 0.497784 0.500051 -0.179395
C12   C     C_R   0.502968 0.511741 0.346672 0.900213
C13   C     C_1   0.227720 0.502216 0.499948 -0.179407
C14   C     C_1   0.857507 0.498027 0.500014 0.008228
C15   C     C_1   0.142493 0.501972 0.499986 0.008225
C16   C     C_1   0.957381 0.499320 0.500001 0.024149
C17   C     C_1   0.042618 0.500680 0.499998 0.024149
C18   C     C_R   0.483655 0.480069 0.739726 -0.146603
C19   C     C_R   0.516354 0.519931 0.260275 -0.146603
C20   C     C_R   0.445222 0.546152 0.777896 -0.203369
C21   C     C_R   0.554793 0.453848 0.222108 -0.203367
C22   C     C_R   0.432797 0.540999 0.860351 0.459626
C23   C     C_R   0.496205 0.400975 0.867124 -0.049080
C24   C     C_R   0.567230 0.459002 0.139654 0.459626
C25   C     C_R   0.464316 0.469714 0.905940 0.134740
C26   C     C_R   0.535717 0.530288 0.094063 0.134736
C27   C     C_1   0.525045 0.326574 0.912529 0.229593
C28   C     C_1   0.474994 0.673430 0.087471 0.229598
C29   C     C_R   0.503824 0.599028 0.132877 -0.049086
C30   C     C_R   0.505565 0.406311 0.783862 -0.254376
C31   C     C_R   0.494452 0.593690 0.216139 -0.254368
C32   C     C_R   0.446940 0.766567 0.466392 0.543089
C33   C     C_R   0.553073 0.233436 0.533596 0.543086
C34   C     C_R   0.450529 0.852774 0.470502 -0.228012
H1    H     H_    0.576209 0.398038 0.256473 0.191880
H2    H     H_    0.372177 0.286373 0.409175 0.162068
H3    H     H_    0.629074 0.410815 0.050861 0.349282
H4    H     H_    0.370962 0.589186 0.949149 0.349281
H5    H     H_    0.605843 0.321530 0.593985 0.374488
H6    H     H_    0.394156 0.678465 0.406019 0.374508
H7    H     H_    0.423801 0.601961 0.743532 0.191878
H8    H     H_    0.533071 0.354328 0.753963 0.182538
H9    H     H_    0.466944 0.645674 0.246035 0.182554
H10   H     H_    0.600883 0.110570 0.564197 0.185233
H11   H     H_    0.399143 0.889434 0.435781 0.185235
H12   H     H_    0.639035 0.866042 0.598252 0.171807
H13   H     H_    0.360946 0.133954 0.401772 0.171806
H14   H     H_    0.627802 0.713623 0.590846 0.162069
N1    N     N_2   0.474586 0.470310 0.990004 -0.176304
N2    N     N_2   0.525450 0.529691 0.009999 -0.176305
N3    N     N_R   0.510540 0.716920 0.509720 -0.139706
N4    N     N_R   0.489460 0.283080 0.490280 -0.139702
N5    N     N_2   0.528896 0.979198 0.521577 -0.161184
N6    N     N_2   0.471107 0.020802 0.478427 -0.161187
N7    N     N_1   0.548165 0.266906 0.948941 -0.150751
N8    N     N_1   0.451882 0.733101 0.051058 -0.150748
O1    O     O_R   0.496230 0.422540 0.612660 -0.635840
O2    O     O_3   0.392066 0.607114 0.894384 -0.743223
O3    O     O_3   0.622496 0.264976 0.582541 -0.775124
O4    O     O_3   0.377527 0.735031 0.417434 -0.775148
O5    O     O_R   0.503770 0.577460 0.387340 -0.635831
O6    O     O_R   0.503000 0.561840 0.618900 -0.611343
O7    O     O_R   0.497000 0.438160 0.381100 -0.611338
O8    O     O_R   0.622900 0.430330 0.496880 -0.599352
O9    O     O_R   0.377100 0.569670 0.503120 -0.599383
O10   O     O_R   0.629670 0.569640 0.503120 -0.600099
O11   O     O_R   0.370330 0.430360 0.496880 -0.600099
O12   O     O_3   0.607964 0.392887 0.105624 -0.743220
Zn1   Zn    Zn3+2 0.495480 0.406980 0.495830 0.949366
Zn2   Zn    Zn3+2 0.504520 0.593020 0.504170 0.949361

loop_
_geom_bond_atom_site_label_1
_geom_bond_atom_site_label_2
_ccdc_geom_bond_type
O5    Zn2   S    
C22   O2    S    
C2    C4    A    
C23   C30   A    
C32   N3    A    
N5    N6    D    
C18   C30   A    
N3    Zn2   S    
C23   C27   S    
C9    O8    A    
C3    N5    S    
C5    H12   S    
C8    N4    A    
C27   N7    T    
C9    O10   A    
C19   C31   A    
C7    H14   S    
C26   N2    S    
C13   C15   T    
C20   H7    S    
C28   N8    T    
H5    O3    S    
C29   C31   A    
C34   H11   S    
H4    O2    S    
O8    Zn1   S    
C1    O6    A    
C33   N4    A    
C12   O5    A    
C9    C11   S    
C32   C34   A    
C1    C18   S    
O10   Zn2   S    
C31   H9    S    
C21   H1    S    
C12   C19   S    
C2    C33   A    
C28   C29   S    
C19   C21   A    
C24   C26   A    
C18   C20   A    
C23   C25   A    
O1    Zn1   S    
C11   C14   T    
C25   N1    S    
C10   O9    A    
C6    H13   S    
C32   O4    S    
C7    N3    A    
O9    Zn2   S    
H3    O12   S    
C3    C5    A    
C33   O3    S    
O6    Zn2   S    
C26   C29   A    
C4    C6    A    
N1    N2    D    
C8    H2    S    
C21   C24   A    
C2    H10   S    
H6    O4    S    
C15   C17   S    
C12   O7    A    
C24   O12   S    
C5    C7    A    
C30   H8    S    
C6    C8    A    
N4    Zn1   S    
C3    C34   A    
C4    N6    S    
C14   C16   S    
C10   O11   A    
C22   C25   A    
O7    Zn1   S    
C20   C22   A    
C16   C17   T    
O11   Zn1   S    
C10   C13   S    
C1    O1    A    
