data_mof_unit_23840.cif
_audit_creation_date              2012-12-10T22:11:16-0500
_audit_creation_method            fapswitch 2.2
_symmetry_space_group_name_H-M    P1
_symmetry_Int_Tables_number       1
_space_group_crystal_system       triclinic
_cell_length_a                    12.120625
_cell_length_b                    12.33565
_cell_length_c                    22.938714
_cell_angle_alpha                 90.663832
_cell_angle_beta                  90.739974
_cell_angle_gamma                 91.164214
_cell_volume                      3428.4651204

loop_
_atom_site_label
_atom_site_type_symbol
_atom_type_description
_atom_site_fract_x
_atom_site_fract_y
_atom_site_fract_z
_atom_type_partial_charge
C1    C     C_R   0.656857 0.998414 0.579531 0.870177
C2    C     C_R   0.343143 0.001586 0.420469 0.870176
C3    C     C_R   0.898111 0.760356 0.153071 -0.166535
C4    C     C_R   0.101889 0.239644 0.846929 -0.166533
C5    C     C_R   0.084854 0.893472 0.170255 -0.144349
C6    C     C_R   0.915146 0.106528 0.829745 -0.144349
C7    C     C_R   0.084948 0.813519 0.127720 -0.186347
C8    C     C_R   0.915052 0.186481 0.872280 -0.186348
C9    C     C_R   0.895083 0.123892 0.171656 0.028737
C10   C     C_R   0.104917 0.876107 0.828344 0.028738
C11   C     C_R   0.899393 0.208035 0.132201 -0.228603
C12   C     C_R   0.100607 0.791964 0.867798 -0.228602
C13   C     C_R   0.151063 0.908347 0.300669 -0.181520
C14   C     C_R   0.848937 0.091653 0.699331 -0.181521
C15   C     C_R   0.232834 0.907822 0.343343 -0.191800
C16   C     C_R   0.767166 0.092178 0.656656 -0.191800
C17   C     C_R   0.849874 0.101039 0.308226 -0.092485
C18   C     C_R   0.150126 0.898961 0.691774 -0.092485
C19   C     C_R   0.770135 0.100482 0.350728 -0.159686
C20   C     C_R   0.229865 0.899517 0.649271 -0.159684
C21   C     C_3   0.993276 0.004076 0.247672 -0.127850
C22   C     C_3   0.006724 0.995923 0.752328 -0.127850
C23   C     C_R   0.655570 0.002049 0.421297 0.873881
C24   C     C_R   0.344430 0.997951 0.578703 0.873881
C25   C     C_R   0.094200 0.004327 0.288432 0.128819
C26   C     C_R   0.905800 0.995673 0.711568 0.128820
C27   C     C_R   0.258075 0.002293 0.375460 -0.022361
C28   C     C_R   0.741925 0.997707 0.624540 -0.022361
C29   C     C_R   0.899297 0.003611 0.290793 0.151582
C30   C     C_R   0.100703 0.996389 0.709207 0.151577
C31   C     C_R   0.741572 0.003531 0.378203 -0.028299
C32   C     C_R   0.258428 0.996468 0.621796 -0.028299
C33   C     C_R   0.990368 0.101689 0.206696 0.026568
C34   C     C_R   0.009632 0.898311 0.793304 0.026567
C35   C     C_R   0.996424 0.268514 0.124616 -0.047756
C36   C     C_R   0.003576 0.731486 0.875384 -0.047757
C37   C     C_R   0.992104 0.907313 0.205753 0.106877
C38   C     C_R   0.007896 0.092687 0.794247 0.106878
C39   C     C_R   0.991451 0.747066 0.118924 -0.018369
C40   C     C_R   0.008549 0.252933 0.881076 -0.018370
C41   C     C_R   0.993027 0.661859 0.075303 0.868466
C42   C     C_R   0.006973 0.338141 0.924697 0.868466
C43   C     C_R   0.998710 0.352451 0.081076 0.881172
C44   C     C_R   0.001290 0.647549 0.918924 0.881172
C45   C     C_R   0.118685 0.097866 0.322511 -0.168692
C46   C     C_R   0.881314 0.902134 0.677489 -0.168691
C47   C     C_R   0.200925 0.097382 0.364765 -0.195968
C48   C     C_R   0.799074 0.902617 0.635235 -0.195968
C49   C     C_R   0.876776 0.908950 0.322656 -0.177070
C50   C     C_R   0.123224 0.091050 0.677344 -0.177070
C51   C     C_R   0.796622 0.908176 0.364846 -0.194570
C52   C     C_R   0.203378 0.091824 0.635154 -0.194571
C53   C     C_R   0.088720 0.161820 0.196198 -0.191045
C54   C     C_R   0.911280 0.838181 0.803802 -0.191044
C55   C     C_R   0.091154 0.244916 0.156410 -0.192781
C56   C     C_R   0.908845 0.755084 0.843591 -0.192781
C57   C     C_R   0.898191 0.839776 0.196111 -0.153914
C58   C     C_R   0.101809 0.160223 0.803889 -0.153912
H1    H     H_    0.217929 0.170846 0.389901 0.156148
H2    H     H_    0.782070 0.829154 0.610099 0.156148
H3    H     H_    0.921110 0.835085 0.314528 0.134680
H4    H     H_    0.078890 0.164915 0.685472 0.134680
H5    H     H_    0.166542 0.142682 0.216653 0.156489
H6    H     H_    0.833457 0.857319 0.783347 0.156489
H7    H     H_    0.822287 0.850588 0.219381 0.159390
H8    H     H_    0.177713 0.149411 0.780619 0.159387
H9    H     H_    0.157404 0.945540 0.175404 0.146131
H10   H     H_    0.842596 0.054460 0.824595 0.146131
H11   H     H_    0.130406 0.832142 0.279065 0.141012
H12   H     H_    0.869595 0.167858 0.720935 0.141012
H13   H     H_    0.778791 0.833288 0.387391 0.157119
H14   H     H_    0.221210 0.166712 0.612609 0.157119
H15   H     H_    0.167951 0.289263 0.149766 0.162036
H16   H     H_    0.832049 0.710738 0.850235 0.162036
H17   H     H_    0.824936 0.709573 0.146471 0.152591
H18   H     H_    0.175064 0.290427 0.853529 0.152591
H19   H     H_    0.157662 0.804706 0.101236 0.161944
H20   H     H_    0.842338 0.195295 0.898763 0.161944
H21   H     H_    0.826926 0.223689 0.105572 0.170767
H22   H     H_    0.173074 0.776310 0.894427 0.170767
H23   H     H_    0.275352 0.833034 0.351603 0.156908
H24   H     H_    0.724649 0.166966 0.648397 0.156908
H25   H     H_    0.730730 0.175864 0.361824 0.152171
H26   H     H_    0.269269 0.824136 0.638175 0.152172
H27   H     H_    0.073073 0.171553 0.316631 0.135166
H28   H     H_    0.926926 0.828447 0.683370 0.135166
O1    O     O_R   0.621380 0.090460 0.561410 -0.627405
O2    O     O_R   0.378620 0.909540 0.438590 -0.627405
O3    O     O_R   0.617150 0.909540 0.438590 -0.629171
O4    O     O_R   0.382850 0.090460 0.561410 -0.629171
O5    O     O_R   0.619720 0.093230 0.440890 -0.628494
O6    O     O_R   0.380280 0.906770 0.559110 -0.628494
O7    O     O_R   0.618800 0.906770 0.559110 -0.628309
O8    O     O_R   0.381200 0.093230 0.440890 -0.628309
O9    O     O_R   0.087590 0.627480 0.058790 -0.630651
O10   O     O_R   0.912410 0.372520 0.941210 -0.630651
O11   O     O_R   0.905660 0.383870 0.059980 -0.630087
O12   O     O_R   0.094340 0.616130 0.940020 -0.630088
O13   O     O_R   0.092570 0.390420 0.063230 -0.623335
O14   O     O_R   0.907430 0.609580 0.936770 -0.623335
O15   O     O_R   0.900680 0.620930 0.055550 -0.621178
O16   O     O_R   0.099320 0.379070 0.944450 -0.621178
Zn1   Zn    Zn3+2 0.501730 0.123520 0.501540 0.945037
Zn2   Zn    Zn3+2 0.498270 0.876480 0.498460 0.945038
Zn3   Zn    Zn3+2 0.125690 0.504390 0.002180 0.958610
Zn4   Zn    Zn3+2 0.874310 0.495610 0.997820 0.958610
C59   C     C_2   0.792963 0.056157 0.168796 0.870886
O17   O     O_2   0.723649 0.062647 0.206770 -0.642160
O18   O     O_R   0.771789 0.991912 0.119150 -0.787902
H29   H     H_    0.698624 0.950875 0.121045 0.341442
C60   C     C_2   0.207038 0.943841 0.831202 0.870888
O19   O     O_2   0.276353 0.937346 0.793230 -0.642160
O20   O     O_R   0.228213 0.008088 0.880848 -0.787903
H30   H     H_    0.301378 0.049124 0.878953 0.341442
H31   H     H_    0.871927 0.177942 0.288929 0.123887
H32   H     H_    0.128072 0.822058 0.711070 0.123888

loop_
_geom_bond_atom_site_label_1
_geom_bond_atom_site_label_2
_ccdc_geom_bond_type
C16   C28   A    
C9    C33   A    
C1    O1    A    
C5    C37   A    
C53   H5    S    
C17   C29   A    
C60   O19   D    
C5    H9    S    
C19   C31   A    
C39   C41   S    
C29   C49   A    
O12   Zn3   S    
C13   H11   S    
C42   O10   A    
C43   O13   A    
C19   H25   S    
C21   C33   S    
C22   C38   S    
C24   O6    A    
O16   Zn3   S    
C45   C47   A    
C32   C52   A    
C21   C25   S    
O9    Zn3   S    
C38   C58   A    
C44   O12   A    
C11   C35   A    
C58   H8    S    
C60   O20   S    
C4    C40   A    
C49   C51   A    
C1    C28   S    
C50   C52   A    
C59   O17   D    
C6    C38   A    
C2    O2    A    
C2    C27   S    
C18   C30   A    
C12   C36   A    
C3    H17   S    
C18   C20   A    
C7    H19   S    
C6    H10   S    
C30   C50   A    
C3    C39   A    
C8    H20   S    
C14   H12   S    
C13   C25   A    
C41   O9    A    
C11   H21   S    
C51   H13   S    
O13   Zn3   S    
C42   O16   A    
O7    Zn2   S    
C16   H24   S    
O2    Zn2   S    
C48   H2    S    
C46   C48   A    
C53   C55   A    
C33   C53   A    
C22   C34   S    
C54   C56   A    
C49   H3    S    
C35   C55   A    
C2    O8    A    
C56   H16   S    
C15   H23   S    
O5    Zn1   S    
C5    C7    A    
C26   C46   A    
C6    C8    A    
C21   C29   S    
C23   C31   S    
C45   H27   S    
C24   C32   S    
C52   H14   S    
C31   C51   A    
C15   C27   A    
C23   O3    A    
C10   C60   S    
C10   C34   A    
C14   C26   A    
C9    C11   A    
C10   C12   A    
O1    Zn1   S    
O11   Zn4   S    
C3    C57   A    
O8    Zn1   S    
C34   C54   A    
C13   C15   A    
O3    Zn2   S    
C50   H4    S    
C14   C16   A    
C36   C44   S    
C18   H32   S    
C25   C45   A    
C35   C43   S    
C17   H31   S    
O20   H30   S    
C20   C32   A    
C27   C47   A    
O15   Zn4   S    
O10   Zn4   S    
C28   C48   A    
C22   C30   S    
C43   O11   A    
C57   H7    S    
C24   O4    A    
C9    C59   S    
O14   Zn4   S    
C20   H26   S    
O18   H29   S    
C44   O14   A    
C59   O18   S    
C54   H6    S    
C12   H22   S    
C40   C42   S    
C36   C56   A    
C17   C19   A    
C41   O15   A    
C23   O5    A    
O4    Zn1   S    
C4    H18   S    
O6    Zn2   S    
C47   H1    S    
C55   H15   S    
C21   C37   S    
C1    O7    A    
C22   C26   S    
C4    C58   A    
C7    C39   A    
C8    C40   A    
C37   C57   A    
C46   H28   S    
