data_mof_unit_57022.cif
_audit_creation_date              2012-12-11T14:21:07-0500
_audit_creation_method            fapswitch 2.2
_symmetry_space_group_name_H-M    P1
_symmetry_Int_Tables_number       1
_space_group_crystal_system       triclinic
_cell_length_a                    21.945942
_cell_length_b                    7.206452
_cell_length_c                    14.913491
_cell_angle_alpha                 89.682142
_cell_angle_beta                  106.829556
_cell_angle_gamma                 89.901515
_cell_volume                      2257.53733034

loop_
_atom_site_label
_atom_site_type_symbol
_atom_type_description
_atom_site_fract_x
_atom_site_fract_y
_atom_site_fract_z
_atom_type_partial_charge
O1    O     O_R   0.584770 0.505770 0.002090 -0.538755
O2    O     O_R   0.415230 0.005770 0.997910 -0.538831
O3    O     O_R   0.467060 0.173340 0.861950 -0.534311
O4    O     O_R   0.532940 0.673340 0.138050 -0.535064
C1    C     C_R   0.455381 0.344878 0.826018 0.692437
C2    C     C_R   0.544727 0.843591 0.174089 0.690967
O5    O     O_R   0.587510 0.175890 0.993210 -0.529407
O6    O     O_R   0.412490 0.675890 0.006790 -0.528717
O7    O     O_R   0.536540 0.008150 0.130100 -0.541929
O8    O     O_R   0.463460 0.508150 0.869900 -0.542081
C3    C     C_R   0.612598 0.344418 0.995323 0.761813
C4    C     C_R   0.387417 0.844564 0.004796 0.761883
O9    O     O_3   0.483140 0.340040 0.044760 -0.377272
O10   O     O_3   0.516860 0.840040 0.955240 -0.377531
V1    V     V_3+5 0.503130 0.064190 0.991700 1.469704
V2    V     V_3+5 0.496870 0.564190 0.008300 1.470351
C5    C     C_2   0.217454 0.733058 0.023598 -0.183395
C6    C     C_2   0.782536 0.234367 0.975749 -0.181478
C7    C     C_2   0.181801 0.888831 0.003907 -0.324709
C8    C     C_2   0.818123 0.389478 0.995875 -0.326746
H1    H     H_    0.194558 0.605273 0.035164 0.170747
H2    H     H_    0.805494 0.106959 0.963880 0.171945
H3    H     H_    0.203758 0.021075 0.997711 0.159753
H4    H     H_    0.796050 0.521505 0.002305 0.159487
C9    C     C_2   0.288095 0.725430 0.039434 0.014496
C10   C     C_2   0.711874 0.227335 0.959769 0.012320
C11   C     C_2   0.319434 0.855548 0.003189 -0.344805
C12   C     C_2   0.680616 0.355071 0.997178 -0.348224
H5    H     H_    0.293500 0.973556 0.965202 0.137841
H6    H     H_    0.706648 0.470757 0.036158 0.137846
C13   C     C_R   0.926657 0.891578 0.724037 -0.028540
C14   C     C_R   0.073509 0.383697 0.275579 -0.025101
C15   C     C_R   0.572903 0.847632 0.275638 -0.030284
C16   C     C_R   0.427013 0.355054 0.724726 -0.027325
C17   C     C_R   0.935033 0.949525 0.568639 -0.164025
C18   C     C_R   0.062967 0.355441 0.431491 -0.163461
C19   C     C_R   0.963437 0.935636 0.664754 -0.172107
C20   C     C_R   0.035154 0.367793 0.335155 -0.175190
C21   C     C_R   0.861165 0.862456 0.687299 -0.210325
C22   C     C_R   0.139783 0.387355 0.312034 -0.208245
C23   C     C_R   0.830575 0.880993 0.589976 0.083086
C24   C     C_R   0.169488 0.374904 0.409747 0.083568
C25   C     C_R   0.869151 0.924201 0.530962 0.141221
C26   C     C_R   0.129491 0.358674 0.469140 0.141318
C27   C     C_R   0.763242 0.861280 0.549623 0.052304
C28   C     C_R   0.237162 0.377368 0.450259 0.052062
C29   C     C_R   0.735907 0.883474 0.450567 0.059437
C30   C     C_R   0.263518 0.363140 0.549803 0.059547
C31   C     C_R   0.776742 0.925290 0.395308 -0.187297
C32   C     C_R   0.221368 0.347263 0.605419 -0.186246
C33   C     C_R   0.841818 0.944856 0.434877 -0.202017
C34   C     C_R   0.155921 0.345269 0.565707 -0.202191
C35   C     C_R   0.722303 0.821399 0.604988 -0.178995
C36   C     C_R   0.279333 0.393486 0.394666 -0.178134
C37   C     C_R   0.657211 0.801686 0.565346 -0.190797
C38   C     C_R   0.344813 0.395052 0.434447 -0.189948
C39   C     C_R   0.630005 0.819960 0.469074 0.136547
C40   C     C_R   0.371226 0.381031 0.531051 0.135414
C41   C     C_R   0.668661 0.862263 0.410074 0.084665
C42   C     C_R   0.331171 0.365160 0.590359 0.085248
C43   C     C_R   0.564187 0.793326 0.431186 -0.167658
C44   C     C_R   0.437765 0.383228 0.568871 -0.167289
C45   C     C_R   0.535979 0.804861 0.334905 -0.169528
C46   C     C_R   0.465488 0.370266 0.665267 -0.167286
C47   C     C_R   0.638288 0.877963 0.312569 -0.215190
C48   C     C_R   0.360776 0.352401 0.688086 -0.214513
H7    H     H_    0.871088 0.977956 0.389572 0.123833
H8    H     H_    0.125595 0.332736 0.611349 0.123201
H9    H     H_    0.663960 0.907417 0.262625 0.096760
H10   H     H_    0.334182 0.340980 0.738236 0.094572
H11   H     H_    0.485445 0.779038 0.306497 0.140499
H12   H     H_    0.516860 0.372775 0.693542 0.133337
H13   H     H_    0.627854 0.770067 0.610721 0.130623
H14   H     H_    0.375166 0.407604 0.388836 0.130561
H15   H     H_    0.964462 0.983804 0.523752 0.115655
H16   H     H_    0.032401 0.342813 0.476746 0.115515
H17   H     H_    0.014017 0.960971 0.693083 0.106522
H18   H     H_    0.983783 0.364432 0.307011 0.105423
H19   H     H_    0.835609 0.831384 0.737217 0.105269
H20   H     H_    0.166332 0.399249 0.261828 0.102139
H21   H     H_    0.760123 0.945105 0.320632 0.124544
H22   H     H_    0.237145 0.335754 0.680553 0.124267
H23   H     H_    0.738838 0.803920 0.679827 0.141105
H24   H     H_    0.263523 0.405393 0.319526 0.140228
H25   H     H_    0.534665 0.759964 0.476061 0.118446
H26   H     H_    0.468405 0.395472 0.523709 0.118396
O11   O     O_R   0.036450 0.233070 0.130130 -0.537548
O12   O     O_R   0.963550 0.733070 0.869870 -0.538232
O13   O     O_R   0.912470 0.560570 0.006790 -0.542125
O14   O     O_R   0.087530 0.060570 0.993210 -0.541960
C49   C     C_R   0.886681 0.392500 0.001084 0.741235
C50   C     C_R   0.113297 0.892249 0.998841 0.741915
O15   O     O_R   0.032920 0.562940 0.138050 -0.539916
O16   O     O_R   0.967080 0.062940 0.861950 -0.539991
O17   O     O_R   0.084790 0.730500 0.002090 -0.537998
O18   O     O_R   0.915210 0.230500 0.997910 -0.537592
C51   C     C_R   0.044884 0.393858 0.174379 0.685566
C52   C     C_R   0.955065 0.895191 0.825508 0.685637
O19   O     O_3   0.016820 0.396170 0.955260 -0.378996
O20   O     O_3   0.983180 0.896170 0.044740 -0.378638
V3    V     V_3+5 0.996880 0.672090 0.008300 1.430013
V4    V     V_3+5 0.003120 0.172090 0.991700 1.431108
C53   C     C_2   0.322393 0.569565 0.098913 0.771020
O21   O     O_2   0.298162 0.415671 0.092107 -0.580941
O22   O     O_R   0.381042 0.600551 0.165548 -0.669558
H27   H     H_    0.399218 0.484264 0.202214 0.283031
C54   C     C_2   0.677452 0.075124 0.898872 0.773547
O23   O     O_2   0.701908 0.921396 0.903466 -0.581660
O24   O     O_R   0.618397 0.109563 0.833420 -0.666589
H28   H     H_    0.600172 0.995595 0.795627 0.286714

loop_
_geom_bond_atom_site_label_1
_geom_bond_atom_site_label_2
_ccdc_geom_bond_type
C40   C44   A    
O18   V4    S    
C11   H5    S    
C54   O24   S    
C35   C37   A    
C6    C10   S    
O2    C4    A    
C16   C48   A    
C2    O7    A    
C36   H24   S    
O12   V3    S    
C15   C47   A    
C21   C23   A    
O5    C3    A    
C44   H26   S    
C17   H15   S    
C17   C19   A    
C39   C41   A    
O16   C52   A    
C40   C42   A    
C14   C51   S    
C24   C28   A    
C13   C52   S    
C31   H21   S    
C43   C45   A    
O14   V4    S    
C44   C46   A    
C7    C50   S    
C18   H16   S    
C49   O18   A    
C8    H4    S    
C13   C21   A    
C31   C33   A    
O1    C3    A    
C32   C34   A    
C54   O23   D    
C22   H20   S    
C14   C20   A    
O13   C49   A    
C17   C25   A    
C34   H8    S    
O6    C4    A    
C26   C34   A    
C30   C32   A    
C42   C48   A    
O6    V2    S    
C23   C25   A    
C24   C26   A    
C30   C42   A    
C28   C30   A    
C27   C29   A    
C8    C49   S    
C36   C38   A    
C29   C41   A    
C38   H14   S    
C4    C11   S    
C29   C31   A    
O15   V3    S    
C9    C53   S    
C20   H18   S    
C19   H17   S    
C50   O17   A    
C5    H1    S    
C13   C19   A    
C21   H19   S    
O4    V2    S    
C7    H3    S    
O11   V4    S    
O14   C50   A    
C15   C45   A    
C1    C16   S    
C28   C36   A    
C16   C46   A    
C53   O22   S    
O1    V2    S    
C33   H7    S    
O2    V1    S    
C43   H25   S    
O4    C2    A    
C45   H11   S    
C37   C39   A    
C18   C26   A    
C18   C20   A    
O15   C51   A    
C14   C22   A    
O3    V1    S    
C32   H22   S    
O13   V3    S    
C6    H2    S    
C22   C24   A    
O3    C1    A    
C10   C54   S    
C39   C43   A    
C9    C11   D    
O22   H27   S    
C10   C12   D    
C2    C15   S    
C35   H23   S    
C5    C9    S    
C12   H6    S    
O7    V1    S    
C1    O8    A    
O8    V2    S    
O24   H28   S    
C41   C47   A    
C25   C33   A    
C48   H10   S    
C3    C12   S    
C47   H9    S    
O5    V1    S    
O20   V3    S    
C5    C7    D    
C38   C40   A    
C6    C8    D    
C46   H12   S    
C27   C35   A    
C37   H13   S    
O19   V4    S    
O16   V4    S    
O9    V2    S    
C53   O21   D    
C23   C27   A    
O10   V1    S    
O12   C52   A    
O17   V3    S    
O11   C51   A    
