data_mof_unit_22506.cif
_audit_creation_date              2012-12-11T16:33:21-0500
_audit_creation_method            fapswitch 2.2
_symmetry_space_group_name_H-M    P1
_symmetry_Int_Tables_number       1
_space_group_crystal_system       triclinic
_cell_length_a                    6.944623
_cell_length_b                    18.203818
_cell_length_c                    20.192615
_cell_angle_alpha                 68.434843
_cell_angle_beta                  90.507398
_cell_angle_gamma                 90.461681
_cell_volume                      2373.90827787

loop_
_atom_site_label
_atom_site_type_symbol
_atom_type_description
_atom_site_fract_x
_atom_site_fract_y
_atom_site_fract_z
_atom_type_partial_charge
O1    O     O_R   0.488960 0.443750 0.941980 -0.535838
O2    O     O_R   0.823890 0.406510 0.087590 -0.538582
O3    O     O_R   0.999680 0.556250 0.058020 -0.539068
C1    C     C_R   0.655391 0.382744 0.114454 0.691327
O4    O     O_R   0.818360 0.434410 0.944340 -0.538487
O5    O     O_R   0.994110 0.584350 0.913750 -0.537117
C2    C     C_R   0.649271 0.420308 0.923854 0.722239
O6    O     O_R   0.494530 0.415650 0.086250 -0.534802
O7    O     O_3   0.662590 0.549160 0.990130 -0.369127
V1    V     V_3+5 0.935320 0.490880 0.001830 1.425793
O8    O     O_R   0.324180 0.593490 0.912410 -0.538897
C3    C     C_R   0.155108 0.616033 0.884727 0.692873
O9    O     O_R   0.329720 0.565590 0.055660 -0.539164
C4    C     C_R   0.161812 0.579768 0.076063 0.723080
V2    V     V_3+5 0.435990 0.509120 0.998170 1.424835
O10   O     O_3   0.158850 0.450840 0.009870 -0.364552
C5    C     C_3   0.987447 0.722012 0.296613 -0.258421
C6    C     C_3   0.162226 0.674866 0.287713 0.394175
H1    H     H_    0.869272 0.698166 0.335456 0.126029
H2    H     H_    0.440944 0.733237 0.316678 0.120043
C7    C     C_1   0.154888 0.625845 0.121220 -0.203203
C8    C     C_1   0.111881 0.874016 0.378691 -0.195311
C9    C     C_3   0.965320 0.758398 0.214012 -0.277486
C10   C     C_3   0.141058 0.709917 0.206556 0.062591
C11   C     C_3   0.106703 0.825084 0.212303 0.554068
C12   C     C_3   0.128019 0.789678 0.293623 0.068033
C13   C     C_3   0.281929 0.777573 0.203790 -0.278220
C14   C     C_3   0.303502 0.741176 0.286401 -0.224008
C15   C     C_1   0.148859 0.663951 0.159456 -0.029208
C16   C     C_1   0.119176 0.835819 0.340554 -0.004980
H3    H     H_    0.401055 0.800829 0.165267 0.123175
H4    H     H_    0.827575 0.765928 0.183975 0.123150
H5    H     H_    0.378775 0.541389 0.689097 0.103204
C17   C     C_R   0.011156 0.765255 0.879915 -0.136139
C18   C     C_R   0.941008 0.835803 0.881000 -0.173380
C19   C     C_R   0.936721 0.902115 0.819139 -0.173283
C20   C     C_R   0.002560 0.899320 0.754672 0.272267
C21   C     C_R   0.065034 0.826011 0.750858 0.032886
C22   C     C_R   0.072740 0.758388 0.815797 0.028665
C23   C     C_R   0.120675 0.817744 0.685710 -0.193850
C24   C     C_R   0.189570 0.743855 0.686954 0.054503
C25   C     C_R   0.203460 0.678143 0.752407 0.073841
C26   C     C_R   0.144429 0.685345 0.816612 -0.167942
C27   C     C_R   0.243407 0.733549 0.623337 -0.134330
C28   C     C_R   0.311437 0.661302 0.624475 -0.118795
C29   C     C_R   0.326356 0.597478 0.688506 -0.129135
C30   C     C_R   0.272406 0.605344 0.751813 -0.145795
H6    H     H_    0.016376 0.716184 0.930388 0.112125
H7    H     H_    0.893223 0.839470 0.930588 0.122490
H8    H     H_    0.886768 0.957305 0.821563 0.118766
H9    H     H_    0.232763 0.780825 0.571840 0.093349
H10   H     H_    0.352062 0.654765 0.575296 0.106165
H11   H     H_    0.284193 0.553492 0.800049 0.104509
H12   H     H_    0.527623 0.378021 0.417750 0.126317
C31   C     C_R   0.672426 0.094941 0.255939 -0.261451
C32   C     C_R   0.701332 0.079722 0.193085 0.527091
C33   C     C_R   0.717449 0.143473 0.128746 -0.158175
C34   C     C_R   0.698029 0.220723 0.125683 -0.233943
C35   C     C_R   0.665342 0.237067 0.187838 0.077706
C36   C     C_R   0.652419 0.173108 0.254402 0.006473
C37   C     C_R   0.646574 0.315781 0.184297 -0.114841
C38   C     C_R   0.616550 0.330979 0.247453 -0.041982
C39   C     C_R   0.593428 0.267241 0.314223 -0.030358
C40   C     C_R   0.617241 0.187697 0.317824 -0.148790
C41   C     C_R   0.610389 0.409895 0.244592 -0.180885
C42   C     C_R   0.584507 0.427380 0.305937 0.293546
C43   C     C_R   0.553311 0.365160 0.370279 -0.262309
C44   C     C_R   0.546725 0.286377 0.374746 0.391845
H13   H     H_    0.667130 0.045410 0.305916 0.106563
H14   H     H_    0.744183 0.132993 0.080196 0.134001
H15   H     H_    0.709754 0.267489 0.073889 0.120985
H16   H     H_    0.629412 0.458298 0.194476 0.123220
O11   O     O_R   0.770540 0.084530 0.414050 -0.544921
O12   O     O_R   0.445710 0.065660 0.555720 -0.538747
O13   O     O_R   0.270420 0.915650 0.586190 -0.541818
C45   C     C_R   0.614547 0.080099 0.576064 0.778425
O14   O     O_R   0.441140 0.093540 0.412470 -0.527388
O15   O     O_R   0.265820 0.943740 0.441930 -0.541551
C46   C     C_R   0.609801 0.119145 0.386871 0.793512
O16   O     O_R   0.775150 0.056440 0.558310 -0.532499
O17   O     O_3   0.602370 0.950960 0.510050 -0.375132
V3    V     V_3+5 0.329450 0.009140 0.498150 1.422900
O18   O     O_R   0.935790 0.934280 0.444060 -0.542194
C47   C     C_R   0.103977 0.920150 0.423788 0.715374
O19   O     O_R   0.940370 0.906390 0.587310 -0.532299
C48   C     C_R   0.109246 0.885088 0.616051 0.787343
V4    V     V_3+5 0.828810 0.990710 0.501460 1.429906
O20   O     O_3   0.105780 0.049100 0.489960 -0.372698
C49   C     C_3   0.710789 0.322302 0.714458 -0.223085
C50   C     C_3   0.525576 0.291318 0.689015 -0.216628
H17   H     H_    0.441281 0.323535 0.640085 0.111111
H18   H     H_    0.779427 0.380733 0.686565 0.120644
C51   C     C_1   0.621909 0.126441 0.620950 -0.204883
C52   C     C_1   0.640788 0.374848 0.878186 -0.191191
C53   C     C_3   0.808746 0.241107 0.730429 -0.082004
C54   C     C_3   0.623955 0.210665 0.706139 0.099436
C55   C     C_3   0.730651 0.211614 0.807719 -0.168662
C56   C     C_3   0.633399 0.292237 0.791502 0.086462
C57   C     C_3   0.545409 0.180528 0.782841 -0.200249
C58   C     C_3   0.451750 0.261915 0.766303 0.529825
C59   C     C_1   0.623417 0.164615 0.659137 -0.042194
C60   C     C_1   0.637330 0.337378 0.839373 -0.039383
H19   H     H_    0.474648 0.122493 0.810547 0.118364
H20   H     H_    0.815838 0.179047 0.856321 0.140932
H21   H     H_    0.956793 0.231911 0.714807 0.147771
N1    N     N_2   0.192048 0.591590 0.327506 -0.487255
H22   H     H_    0.092369 0.556117 0.315381 0.258464
C61   C     C_3   0.220789 0.570446 0.403196 -0.570586
H23   H     H_    0.251344 0.506267 0.428151 0.194168
H24   H     H_    0.089421 0.583623 0.427754 0.186088
H25   H     H_    0.345644 0.603266 0.413582 0.197221
N2    N     N_2   0.010131 0.971809 0.695428 -0.524898
H26   H     H_    0.887525 0.004893 0.690662 0.247876
C62   C     C_3   0.181185 0.018194 0.693987 -0.517810
H27   H     H_    0.178886 0.072590 0.645293 0.202416
H28   H     H_    0.312387 0.983875 0.693487 0.193698
H29   H     H_    0.186128 0.035903 0.741132 0.176868
O21   O     O_3   0.729963 0.004538 0.192038 -0.538884
C63   C     C_3   0.610026 0.947108 0.240579 -0.184526
H30   H     H_    0.460644 0.968857 0.240937 0.139076
H31   H     H_    0.674526 0.925868 0.294850 0.131976
H32   H     H_    0.600159 0.895441 0.224016 0.164943
N3    N     N_2   0.578486 0.506674 0.304351 -0.492290
H33   H     H_    0.598810 0.512733 0.352775 0.259097
C64   C     C_3   0.656575 0.570906 0.244096 -0.509667
H34   H     H_    0.650675 0.626605 0.254597 0.197863
H35   H     H_    0.568848 0.579710 0.195590 0.204807
H36   H     H_    0.808819 0.558907 0.235283 0.181647
O22   O     O_3   0.493809 0.229030 0.438897 -0.569293
C65   C     C_3   0.294174 0.236020 0.448683 -0.178357
H37   H     H_    0.208404 0.228315 0.404794 0.133816
H38   H     H_    0.258445 0.293170 0.453695 0.105383
H39   H     H_    0.249308 0.189134 0.499119 0.167319
O23   O     O_3   0.263479 0.269000 0.788952 -0.557611
C66   C     C_3   0.201213 0.347785 0.756513 -0.276598
H40   H     H_    0.169933 0.362149 0.699069 0.126657
H41   H     H_    0.306556 0.390798 0.763325 0.133550
H42   H     H_    0.065802 0.354595 0.782312 0.179382
O24   O     O_3   0.078737 0.906823 0.175959 -0.533775
C67   C     C_3   0.053887 0.922684 0.102728 -0.174485
H43   H     H_    0.920546 0.894280 0.092421 0.121376
H44   H     H_    0.181244 0.904013 0.079905 0.108374
H45   H     H_    0.038028 0.987387 0.074729 0.169417

loop_
_geom_bond_atom_site_label_1
_geom_bond_atom_site_label_2
_ccdc_geom_bond_type
C66   H42   S    
C57   H19   S    
C31   C32   A    
C24   C25   A    
O2    C1    A    
C53   C54   S    
C10   C13   S    
C1    O6    A    
N2    C62   S    
C62   H27   S    
C50   H17   S    
N3    H33   S    
C28   C29   A    
C32   C33   A    
C20   C21   A    
O12   C45   A    
C6    C10   S    
C5    C12   S    
C4    C7    S    
C19   C20   A    
C11   O24   S    
C67   H44   S    
C3    C26   S    
O5    C3    A    
C21   C22   A    
C34   H15   S    
N3    C64   S    
N1    H22   S    
V2    O10   S    
C54   C57   S    
C61   H23   S    
C17   C18   A    
C23   C48   S    
C10   C15   S    
O11   V4    S    
C20   N2    S    
C53   H21   S    
O21   C63   S    
O8    V2    S    
C18   C19   A    
C18   H7    S    
C64   H36   S    
C9    C10   S    
C67   H45   S    
O1    V2    S    
C33   H14   S    
O7    V1    S    
C30   H11   S    
C31   C36   A    
O19   V4    S    
C42   C43   A    
C35   C36   A    
O9    C4    A    
H5    C29   S    
C44   O22   S    
O12   V3    S    
C50   C58   S    
N2    H26   S    
C55   C57   S    
C58   O23   S    
C55   C56   S    
C63   H31   S    
C35   C37   A    
C13   H3    S    
C17   C22   A    
C62   H29   S    
C66   H40   S    
C6    C14   S    
C67   H43   S    
C51   C59   T    
O4    C2    A    
C22   C26   A    
H12   C43   S    
H2    C14   S    
C28   H10   S    
C11   C12   S    
O19   C48   A    
C7    C15   T    
C1    C37   S    
O17   V3    S    
C43   C44   A    
C40   C46   S    
C8    C47   S    
C49   C53   S    
C65   H38   S    
C6    N1    S    
C38   C39   A    
C45   C51   S    
O15   V3    S    
O13   C48   A    
O18   C47   A    
O24   C67   S    
C5    C6    S    
O11   C46   A    
O14   C46   A    
C61   H25   S    
C5    C9    S    
C49   H18   S    
O17   V4    S    
O3    C4    A    
C27   H9    S    
C23   C24   A    
C12   C16   S    
O6    V2    S    
C56   C58   S    
O9    V2    S    
C64   H34   S    
C24   C27   A    
C65   H39   S    
C17   H6    S    
C25   C26   A    
O2    V1    S    
C19   H8    S    
C27   C28   A    
O22   C65   S    
C63   H32   S    
C66   H41   S    
C2    C52   S    
C29   C30   A    
C8    C16   T    
C38   C41   A    
O1    C2    A    
C32   O21   S    
C45   O16   A    
O18   V4    S    
O5    V1    S    
C62   H28   S    
C63   H30   S    
C53   C55   S    
O13   V3    S    
C50   C54   S    
O23   C66   S    
O16   V4    S    
C41   H16   S    
C39   C44   A    
C12   C14   S    
C57   C58   S    
C49   C56   S    
C36   C40   A    
C9    H4    S    
C31   H13   S    
C65   H37   S    
C34   C35   A    
O4    V1    S    
O3    V1    S    
C56   C60   S    
C21   C23   A    
C33   C34   A    
N1    C61   S    
O14   V3    S    
V3    O20   S    
C5    H1    S    
C61   H24   S    
C25   C30   A    
C9    C11   S    
O7    V2    S    
C37   C38   A    
C55   H20   S    
C39   C40   A    
O15   C47   A    
C52   C60   T    
V4    O20   S    
C41   C42   A    
C13   C14   S    
C64   H35   S    
C42   N3    S    
V1    O10   S    
C49   C50   S    
C54   C59   S    
O8    C3    A    
C11   C13   S    
