data_mof_unit_67489.cif
_audit_creation_date              2012-10-26T21:06:57-0400
_audit_creation_method            fapswitch 2.2
_symmetry_space_group_name_H-M    P1
_symmetry_Int_Tables_number       1
_space_group_crystal_system       triclinic
_cell_length_a                    10.839005
_cell_length_b                    8.785401
_cell_length_c                    7.636543
_cell_angle_alpha                 102.288902
_cell_angle_beta                  95.429863
_cell_angle_gamma                 95.302169
_cell_volume                      702.58836762

loop_
_atom_site_label
_atom_site_type_symbol
_atom_type_description
_atom_site_fract_x
_atom_site_fract_y
_atom_site_fract_z
_atom_type_partial_charge
Br1   Br    Br    0.869741 0.527037 0.121825 -0.588928
Br2   Br    Br    0.908336 0.802432 0.759230 -0.555364
Br3   Br    Br    0.094814 0.174063 0.272008 -0.577408
Br4   Br    Br    0.804202 0.205382 0.211188 -0.489468
C1    C     C_R   0.496803 0.200773 0.454845 0.583183
C2    C     C_3   0.073608 0.416975 0.654180 0.030031
C3    C     C_3   0.929558 0.413213 0.645486 0.011803
C4    C     C_3   0.084678 0.664598 0.521911 -0.240504
C5    C     C_3   0.052736 0.392699 0.319044 0.013644
C6    C     C_3   0.122043 0.494909 0.503010 0.004782
C7    C     C_3   0.163093 0.632516 0.935082 -0.235553
C8    C     C_3   0.551871 0.050234 0.899830 -0.205973
C9    C     C_3   0.300074 0.240608 0.996400 -0.211565
C10   C     C_3   0.830670 0.199902 0.768637 -0.240528
C11   C     C_3   0.876888 0.495305 0.495842 0.060606
C12   C     C_3   0.943241 0.667110 0.535551 -0.037874
C13   C     C_3   0.909291 0.407147 0.305681 0.280061
C14   C     C_2   0.503244 0.034293 0.434260 -0.076891
C15   C     C_2   0.496268 0.963718 0.573262 0.088185
C16   C     C_R   0.260438 0.497779 0.500694 0.553958
C17   C     C_R   0.503589 0.798344 0.545744 0.549486
C18   C     C_R   0.739139 0.499329 0.499041 0.630768
Cu1   Cu    Cu3+1 0.514070 0.517380 0.684380 1.017518
Cu2   Cu    Cu3+1 0.485930 0.482620 0.315620 1.001878
H1    H     H_    0.107075 0.707323 0.400072 0.134757
H2    H     H_    0.210820 0.636560 0.071483 0.150254
H3    H     H_    0.077106 0.687812 0.955340 0.230917
H4    H     H_    0.229523 0.699173 0.870573 0.172281
H5    H     H_    0.373961 0.999508 0.759689 0.238087
H6    H     H_    0.582890 0.174667 0.964162 0.232546
H7    H     H_    0.635437 0.991277 0.866686 0.188511
H8    H     H_    0.507549 0.993579 0.998564 0.132785
H9    H     H_    0.363684 0.337809 0.802702 0.322082
H10   H     H_    0.232885 0.168596 0.883488 0.110316
H11   H     H_    0.246348 0.321972 0.075423 0.204582
H12   H     H_    0.904896 0.730255 0.435349 0.206758
H13   H     H_    0.336824 0.156503 0.070051 0.189939
H14   H     H_    0.910705 0.168019 0.531702 0.323796
H15   H     H_    0.786168 0.077588 0.722976 0.190710
H16   H     H_    0.760545 0.273017 0.828001 0.228251
H17   H     H_    0.912505 0.203701 0.869158 0.223994
H18   H     H_    0.518292 0.968398 0.302245 0.099289
H19   H     H_    0.590425 0.634872 0.049651 0.250963
H20   H     H_    0.095808 0.294387 0.619287 0.185118
H21   H     H_    0.907966 0.481568 0.775228 0.245450
H22   H     H_    0.139774 0.750461 0.635194 0.155628
H23   H     H_    0.089650 0.440686 0.210020 0.149607
H24   H     H_    0.098051 0.402048 0.919038 0.253137
N1    N     N_2   0.464720 0.456420 0.038520 -0.055181
N2    N     N_2   0.535280 0.543580 0.961480 -0.211623
N3    N     N_2   0.135118 0.470337 0.838892 -0.527441
N4    N     N_2   0.462933 0.041263 0.742290 -0.501684
N5    N     N_2   0.396810 0.324878 0.925649 -0.372153
N6    N     N_2   0.869981 0.252333 0.614926 -0.523985
O1    O     O_R   0.509140 0.286130 0.619770 -0.481696
O2    O     O_R   0.485380 0.256770 0.308360 -0.507912
O3    O     O_R   0.329570 0.514650 0.655700 -0.516613
O4    O     O_R   0.305810 0.485300 0.344290 -0.530816
O5    O     O_R   0.514620 0.743230 0.691640 -0.504420
O6    O     O_R   0.490860 0.713870 0.380230 -0.538337
O7    O     O_R   0.694190 0.514700 0.655710 -0.464540
O8    O     O_R   0.670430 0.485350 0.344300 -0.449201

loop_
_geom_bond_atom_site_label_1
_geom_bond_atom_site_label_2
_ccdc_geom_bond_type
C2    C6    S    
Cu1   Cu2   S    
H19   N2    S    
Cu1   O1    S    
C2    C3    S    
Br3   C5    S    
C2    N3    S    
C18   O8    A    
Br2   C12   S    
C5    C6    S    
C1    O2    A    
C9    H13   S    
C3    N6    S    
C7    H3    S    
Cu2   O6    S    
C3    C11   S    
C10   H15   S    
C9    H10   S    
C4    C12   S    
C2    H20   S    
C12   H12   S    
C18   O7    A    
Cu1   O5    S    
C4    H1    S    
C7    H4    S    
C10   H17   S    
N1    N5    S    
Br4   C13   S    
C3    H21   S    
C4    C6    S    
C8    N4    S    
C17   O5    A    
C9    N5    S    
C14   H18   S    
C8    H7    S    
H9    N5    S    
N1    N2    D    
C4    H22   S    
C5    H23   S    
Cu2   O2    S    
C10   H16   S    
C11   C12   S    
C10   N6    S    
C9    H11   S    
C16   O4    A    
C7    N3    S    
C17   O6    A    
Cu2   O4    S    
C14   C15   D    
C11   C18   S    
Cu1   O7    S    
C5    C13   S    
Cu2   N1    S    
Cu1   O3    S    
Cu1   N2    S    
Cu2   O8    S    
C1    C14   S    
C7    H2    S    
C8    H6    S    
C16   O3    A    
C11   C13   S    
Br1   C13   S    
C15   N4    S    
C1    O1    A    
H24   N3    S    
C8    H8    S    
C6    C16   S    
C15   C17   S    
H5    N4    S    
H14   N6    S    
