data_mof_unit_53479.cif
_audit_creation_date              2012-10-26T17:12:32-0400
_audit_creation_method            fapswitch 2.2
_symmetry_space_group_name_H-M    P1
_symmetry_Int_Tables_number       1
_space_group_crystal_system       triclinic
_cell_length_a                    16.728517
_cell_length_b                    16.852585
_cell_length_c                    16.734257
_cell_angle_alpha                 67.714035
_cell_angle_beta                  67.84096
_cell_angle_gamma                 67.728856
_cell_volume                      3886.61562607

loop_
_atom_site_label
_atom_site_type_symbol
_atom_type_description
_atom_site_fract_x
_atom_site_fract_y
_atom_site_fract_z
_atom_type_partial_charge
C1    C     C_R   0.029619 0.827950 0.564087 0.600195
C2    C     C_R   0.029217 0.564447 0.828097 0.559693
C3    C     C_R   0.172260 0.969745 0.436291 0.597500
C4    C     C_R   0.827969 0.029392 0.564304 0.544573
C5    C     C_R   0.448875 0.075235 0.700771 0.304897
C6    C     C_R   0.547796 0.940525 0.290332 0.249268
C7    C     C_R   0.076215 0.701921 0.448428 0.307784
C8    C     C_R   0.955256 0.286940 0.544613 0.245157
C9    C     C_R   0.692159 0.449996 0.106917 0.240140
C10   C     C_R   0.295230 0.539523 0.949415 0.243600
C11   C     C_R   0.299637 0.925214 0.551327 0.249809
C12   C     C_R   0.971776 0.171912 0.435227 0.542193
C13   C     C_R   0.709929 0.058239 0.452643 0.245179
C14   C     C_R   0.496450 0.258881 0.064255 0.308917
C15   C     C_R   0.454390 0.712461 0.054489 0.245754
C16   C     C_R   0.927656 0.549345 0.299738 0.249239
C17   C     C_R   0.066454 0.452640 0.707834 0.244095
C18   C     C_R   0.543425 0.026379 0.539828 -0.071529
C19   C     C_R   0.459542 0.975557 0.455627 -0.068570
C20   C     C_R   0.032895 0.538986 0.541253 -0.072057
C21   C     C_R   0.984617 0.453504 0.456433 -0.070961
C22   C     C_R   0.534630 0.538080 0.049231 -0.064172
C23   C     C_R   0.827918 0.563672 0.031019 0.607830
C24   C     C_R   0.443483 0.444988 0.019419 -0.071011
C25   C     C_R   0.590583 0.009722 0.454456 0.037828
C26   C     C_R   0.417367 0.983429 0.543955 0.015083
C27   C     C_R   0.021226 0.451958 0.586640 0.035314
C28   C     C_R   0.989128 0.542498 0.415446 0.014004
C29   C     C_R   0.453539 0.584876 0.023314 0.054362
C30   C     C_R   0.522822 0.397492 0.048904 -0.003332
C31   C     C_R   0.545725 0.990352 0.409223 0.035959
C32   C     C_R   0.454430 0.020255 0.581236 0.008103
C33   C     C_R   0.406578 0.537818 0.010446 0.053729
C34   C     C_R   0.171885 0.435109 0.972416 0.580013
C35   C     C_R   0.566364 0.444420 0.068004 0.021603
C36   C     C_R   0.003738 0.406484 0.540774 0.035545
C37   C     C_R   0.024937 0.580778 0.452754 0.008715
C38   C     C_R   0.404002 0.057426 0.655066 0.294719
C39   C     C_R   0.583599 0.983099 0.320000 0.347305
C40   C     C_R   0.059389 0.656180 0.403038 0.296512
C41   C     C_R   0.001644 0.316386 0.576451 0.351328
C42   C     C_R   0.633954 0.402105 0.114537 0.236389
C43   C     C_R   0.322582 0.579450 0.990597 0.282987
C44   C     C_R   0.345815 0.944145 0.595278 0.239839
C45   C     C_R   0.563831 0.030012 0.827782 0.587188
C46   C     C_R   0.680677 0.014200 0.418227 0.359706
C47   C     C_R   0.553921 0.304008 0.059741 0.287856
C48   C     C_R   0.422604 0.677744 0.012665 0.280266
C49   C     C_R   0.947208 0.593227 0.345357 0.238429
C50   C     C_R   0.027523 0.414683 0.676342 0.352576
C51   C     C_R   0.543961 0.054146 0.674073 -0.033457
C52   C     C_R   0.455110 0.947521 0.324074 -0.085718
C53   C     C_R   0.055286 0.674706 0.543560 -0.033054
C54   C     C_R   0.956244 0.321940 0.453186 -0.093665
C55   C     C_R   0.670800 0.543669 0.069340 -0.024528
C56   C     C_R   0.435704 0.970531 0.172061 0.567562
C57   C     C_R   0.321306 0.446211 0.969579 -0.027888
C58   C     C_R   0.326255 0.945283 0.456195 -0.022405
C59   C     C_R   0.675877 0.052387 0.545008 -0.091819
C60   C     C_R   0.428017 0.304994 0.019837 -0.046833
C61   C     C_R   0.545223 0.677392 0.053743 -0.027373
C62   C     C_R   0.949233 0.454689 0.325537 -0.022198
C63   C     C_R   0.056030 0.545356 0.674892 -0.092349
C64   C     C_R   0.596495 0.049130 0.727751 0.015180
C65   C     C_R   0.402770 0.950898 0.271955 -0.015584
C66   C     C_R   0.048576 0.728314 0.596734 0.017941
C67   C     C_R   0.430246 0.168409 0.986144 0.606745
C68   C     C_R   0.954615 0.271289 0.402118 -0.027747
C69   C     C_R   0.727688 0.597337 0.052313 0.021913
C70   C     C_R   0.270289 0.398506 0.963452 0.019875
C71   C     C_R   0.272397 0.950259 0.403790 0.020474
C72   C     C_R   0.728106 0.048906 0.597287 -0.025565
C73   C     C_R   0.388880 0.261629 0.991296 0.005332
C74   C     C_R   0.598320 0.729678 0.047223 0.003475
C75   C     C_R   0.951979 0.403247 0.272260 0.025162
C76   C     C_R   0.049204 0.597854 0.728085 -0.018688
C77   C     C_R   0.686710 0.049873 0.687101 0.333064
C78   C     C_R   0.564884 0.828481 0.028189 0.574165
C79   C     C_R   0.312994 0.949651 0.313509 0.340604
C80   C     C_R   0.048042 0.687808 0.687312 0.343287
C81   C     C_R   0.950585 0.313660 0.313133 0.335562
C82   C     C_R   0.688893 0.688807 0.045900 0.322702
C83   C     C_R   0.309674 0.309041 0.964912 0.325522
C84   C     C_R   0.587855 0.043871 0.586688 -0.079542
C85   C     C_R   0.413296 0.956535 0.411826 -0.076455
C86   C     C_R   0.047472 0.586751 0.586730 -0.079521
C87   C     C_R   0.964095 0.409810 0.411190 -0.078460
C88   C     C_R   0.584287 0.586596 0.056317 -0.085992
C89   C     C_R   0.970246 0.436112 0.172135 0.597989
C90   C     C_R   0.398210 0.398702 0.002122 -0.094228
Cu1   Cu    Cu3+1 0.995180 0.995180 0.424630 1.165584
Cu2   Cu    Cu3+1 0.004820 0.004820 0.575370 1.140665
Cu3   Cu    Cu3+1 0.995180 0.424630 0.995180 1.141249
Cu4   Cu    Cu3+1 0.004820 0.575370 0.004820 1.130521
Cu5   Cu    Cu3+1 0.424630 0.995180 0.995180 1.157864
Cu6   Cu    Cu3+1 0.575370 0.004820 0.004820 1.189483
F1    F     F_    0.735820 0.048918 0.736430 -0.576184
F2    F     F_    0.263675 0.950419 0.264489 -0.574407
F3    F     F_    0.043870 0.737429 0.737343 -0.574601
F4    F     F_    0.947652 0.266134 0.264830 -0.577481
F5    F     F_    0.740693 0.739575 0.035470 -0.573406
F6    F     F_    0.269285 0.267594 0.941917 -0.571317
H1    H     H_    0.336333 0.132580 0.777238 0.394109
H2    H     H_    0.333133 0.778133 0.106731 0.351684
H3    H     H_    0.894979 0.653837 0.204109 0.349359
H4    H     H_    0.160450 0.427366 0.762039 0.342127
H5    H     H_    0.290758 0.099730 0.624873 0.340239
H6    H     H_    0.663313 0.016237 0.199781 0.370114
H7    H     H_    0.101534 0.628394 0.288860 0.337730
H8    H     H_    0.046722 0.195152 0.647002 0.360655
H9    H     H_    0.659815 0.311715 0.223273 0.358651
H10   H     H_    0.202396 0.661211 0.016427 0.336371
H11   H     H_    0.310573 0.861383 0.711745 0.349355
H12   H     H_    0.576874 0.844168 0.239063 0.335760
H13   H     H_    0.803006 0.972196 0.346636 0.367374
H14   H     H_    0.680687 0.294391 0.018804 0.340174
H15   H     H_    0.364448 0.797517 0.949583 0.339578
H16   H     H_    0.861018 0.707760 0.312829 0.357278
H17   H     H_    0.992220 0.336228 0.796647 0.364460
H18   H     H_    0.133468 0.778722 0.336150 0.387889
H19   H     H_    0.853550 0.240397 0.581104 0.336096
H20   H     H_    0.785029 0.345257 0.145123 0.356891
H21   H     H_    0.246020 0.654176 0.871678 0.349258
H22   H     H_    0.202602 0.895906 0.656006 0.345767
H23   H     H_    0.761227 0.154952 0.421861 0.332786
H24   H     H_    0.546908 0.153565 0.150980 0.372671
O1    O     O_R   0.124540 0.978640 0.385460 -0.420920
O2    O     O_R   0.124540 0.385460 0.978640 -0.431489
O3    O     O_R   0.021360 0.875460 0.614540 -0.423120
O4    O     O_R   0.978640 0.124540 0.385460 -0.420995
O5    O     O_R   0.013780 0.867370 0.487190 -0.489493
O6    O     O_R   0.986220 0.132630 0.512810 -0.513545
O7    O     O_R   0.867370 0.487190 0.013780 -0.501431
O8    O     O_R   0.132630 0.512810 0.986220 -0.496524
O9    O     O_R   0.487190 0.013780 0.867370 -0.494060
O10   O     O_R   0.512810 0.986220 0.132630 -0.487467
O11   O     O_R   0.512810 0.132630 0.986220 -0.479747
O12   O     O_R   0.875460 0.021360 0.614540 -0.419307
O13   O     O_R   0.487190 0.867370 0.013780 -0.497689
O14   O     O_R   0.986220 0.512810 0.132630 -0.512382
O15   O     O_R   0.013780 0.487190 0.867370 -0.511415
O16   O     O_R   0.132630 0.986220 0.512810 -0.507756
O17   O     O_R   0.867370 0.013780 0.487190 -0.510146
O18   O     O_3   0.401419 0.125575 0.761481 -0.638316
O19   O     O_3   0.606769 0.886775 0.235389 -0.648305
O20   O     O_3   0.125838 0.763231 0.401331 -0.642866
O21   O     O_3   0.900319 0.234678 0.607398 -0.639767
O22   O     O_3   0.761877 0.408371 0.146628 -0.662704
O23   O     O_R   0.978640 0.385460 0.124540 -0.423272
O24   O     O_3   0.247632 0.590850 0.886398 -0.661136
O25   O     O_3   0.237163 0.877371 0.600173 -0.655920
O26   O     O_3   0.764893 0.111671 0.392796 -0.643901
O27   O     O_3   0.502665 0.171879 0.116848 -0.671274
O28   O     O_3   0.395184 0.767540 0.108157 -0.646829
O29   O     O_3   0.877496 0.597727 0.238797 -0.654265
O30   O     O_3   0.119712 0.395890 0.764423 -0.634351
O31   O     O_3   0.311207 0.085144 0.678454 -0.642544
O32   O     O_3   0.648183 0.025334 0.259568 -0.606427
O33   O     O_3   0.085825 0.681190 0.310231 -0.651814
O34   O     O_R   0.021360 0.614540 0.875460 -0.413024
O35   O     O_3   0.052189 0.255667 0.634301 -0.613595
O36   O     O_3   0.634123 0.319181 0.175539 -0.638588
O37   O     O_3   0.262256 0.650251 0.023552 -0.641638
O38   O     O_3   0.328600 0.917377 0.687686 -0.652864
O39   O     O_3   0.742467 0.965922 0.359145 -0.607376
O40   O     O_3   0.641459 0.254854 0.058532 -0.626389
O41   O     O_3   0.372245 0.734889 0.953455 -0.638616
O42   O     O_3   0.918273 0.684940 0.329222 -0.647766
O43   O     O_3   0.987103 0.348562 0.735629 -0.612478
O44   O     O_R   0.385460 0.124540 0.978640 -0.427035
O45   O     O_R   0.614540 0.875460 0.021360 -0.429115
O46   O     O_R   0.614540 0.021360 0.875460 -0.432827
O47   O     O_R   0.385460 0.978640 0.124540 -0.423806
O48   O     O_R   0.875460 0.614540 0.021360 -0.421084

loop_
_geom_bond_atom_site_label_1
_geom_bond_atom_site_label_2
_ccdc_geom_bond_type
C25   C31   A    
C14   O27   S    
C21   C87   A    
C26   C32   A    
Cu3   Cu4   S    
C65   C79   A    
C83   F6    S    
C41   O35   S    
Cu4   O14   S    
C64   C77   A    
C23   C69   S    
C40   O33   S    
Cu3   O23   S    
Cu5   Cu6   S    
C3    O16   A    
C2    C76   S    
Cu2   O12   S    
C78   O13   A    
C4    O17   A    
C71   C79   A    
C26   C44   A    
C66   C80   A    
Cu6   O10   S    
C23   O48   A    
H18   O20   S    
C22   C35   A    
C12   C68   S    
C9    C42   A    
Cu1   O1    S    
C30   C35   A    
C68   C81   A    
C52   C85   A    
C22   C29   A    
C9    O22   S    
C37   C40   A    
Cu3   O7    S    
C54   C87   A    
C3    O1    A    
C58   C71   A    
Cu1   O5    S    
C63   C76   A    
C34   O8    A    
C56   C65   S    
C29   C33   A    
C60   C73   A    
C55   C88   A    
C19   C26   A    
C35   C42   A    
C15   O28   S    
C69   C82   A    
C79   F2    S    
C56   O10   A    
Cu6   O45   S    
C20   C86   A    
C18   C84   A    
C7    C40   A    
H19   O21   S    
C77   F1    S    
C53   C86   A    
C67   C73   S    
C32   C38   A    
C57   C70   A    
H13   O39   S    
C11   C58   A    
Cu2   O16   S    
C34   C70   S    
Cu1   Cu2   S    
C27   C50   A    
C59   C72   A    
C7    O20   S    
C89   O23   A    
H21   O24   S    
C19   C31   A    
C5    C38   A    
H1    O18   S    
H14   O40   S    
C36   C41   A    
C18   C25   A    
C16   C62   A    
C15   C48   A    
C74   C82   A    
H5    O31   S    
H8    O35   S    
C24   C33   A    
Cu1   O17   S    
C67   O44   A    
C45   O9    A    
C57   C90   A    
C23   O7    A    
C29   C48   A    
C33   C43   A    
C30   C47   A    
C10   C57   A    
C16   C49   A    
H12   O19   S    
C49   O42   S    
Cu6   O46   S    
C8    C54   A    
Cu6   O11   S    
Cu1   O4    S    
C6    O19   S    
C75   C81   A    
C5    O18   S    
C1    O5    A    
C22   C88   A    
C3    C71   S    
C72   C77   A    
C70   C83   A    
C61   C88   A    
C28   C49   A    
C89   O14   A    
C16   O29   S    
Cu5   O9    S    
C1    C66   S    
C15   C61   A    
C11   C44   A    
C8    C41   A    
C53   C66   A    
C55   C69   A    
C12   O4    A    
Cu4   O48   S    
C9    C55   A    
C11   O25   S    
H3    O29   S    
H22   O25   S    
H17   O43   S    
C46   O39   S    
H4    O30   S    
H6    O32   S    
C63   C86   A    
H9    O36   S    
C61   C74   A    
C62   C75   A    
C8    O21   S    
C18   C32   A    
C7    C53   A    
C2    O34   A    
C80   F3    S    
H7    O33   S    
C58   C85   A    
C4    C72   S    
Cu3   O15   S    
C81   F4    S    
C47   O40   S    
H10   O37   S    
H23   O26   S    
Cu4   O34   S    
C12   O6    A    
Cu2   O6    S    
C10   C43   A    
Cu5   O13   S    
C21   C28   A    
C51   C64   A    
C76   C80   A    
C13   O26   S    
C19   C85   A    
C24   C90   A    
C17   C50   A    
C42   O36   S    
C14   C47   A    
C13   C59   A    
C20   C27   A    
C60   C90   A    
C27   C36   A    
C51   C84   A    
C14   C60   A    
C62   C87   A    
C45   C64   S    
C1    O3    A    
C59   C84   A    
C56   O47   A    
H2    O28   S    
C38   O31   S    
Cu2   O3    S    
Cu5   O47   S    
Cu3   O2    S    
C45   O46   A    
C39   O32   S    
C10   O24   S    
H11   O38   S    
C20   C37   A    
C13   C46   A    
C48   O41   S    
C28   C37   A    
H15   O41   S    
C25   C46   A    
H16   O42   S    
C78   O45   A    
Cu4   O8    S    
C82   F5    S    
C31   C39   A    
C50   O43   S    
C67   O11   A    
Cu5   O44   S    
C24   C30   A    
C75   C89   S    
C4    O12   A    
H20   O22   S    
H24   O27   S    
C54   C68   A    
C34   O2    A    
C74   C78   S    
C2    O15   A    
C6    C39   A    
C5    C51   A    
C44   O38   S    
C6    C52   A    
C17   O30   S    
C21   C36   A    
C73   C83   A    
C17   C63   A    
C52   C65   A    
C43   O37   S    
