data_mof_unit_11367.cif
_audit_creation_date              2012-12-10T17:03:26-0500
_audit_creation_method            fapswitch 2.2
_symmetry_space_group_name_H-M    P1
_symmetry_Int_Tables_number       1
_space_group_crystal_system       triclinic
_cell_length_a                    15.076335
_cell_length_b                    10.854886
_cell_length_c                    9.770286
_cell_angle_alpha                 109.177876
_cell_angle_beta                  98.877964
_cell_angle_gamma                 90.706324
_cell_volume                      1488.69070811

loop_
_atom_site_label
_atom_site_type_symbol
_atom_type_description
_atom_site_fract_x
_atom_site_fract_y
_atom_site_fract_z
_atom_type_partial_charge
C1    C     C_R   0.499085 0.254056 0.443816 0.850121
C2    C     C_R   0.511497 0.746157 0.556164 0.852289
C3    C     C_R   0.071346 0.506375 0.755033 -0.212326
C4    C     C_R   0.928393 0.491641 0.244299 -0.213367
C5    C     C_2   0.509528 0.115274 0.420727 -0.418065
C6    C     C_2   0.527058 0.885598 0.579858 -0.417882
C7    C     C_2   0.566832 0.072518 0.514185 0.177491
C8    C     C_2   0.564158 0.930557 0.485938 0.190653
C9    C     C_2   0.510695 0.505107 0.079251 -0.083059
C10   C     C_2   0.493180 0.487802 0.918587 -0.081970
C11   C     C_R   0.328584 0.500105 0.500630 0.824975
C12   C     C_R   0.671378 0.499657 0.499309 0.794081
C13   C     C_R   0.801767 0.494938 0.371309 -0.248653
C14   C     C_R   0.198048 0.504126 0.628385 -0.247838
C15   C     C_R   0.768107 0.498674 0.498517 -0.072362
C16   C     C_R   0.231745 0.500324 0.501179 -0.078673
C17   C     C_R   0.827127 0.501859 0.625839 -0.247019
C18   C     C_R   0.172641 0.496169 0.373535 -0.242779
C19   C     C_R   0.919596 0.502004 0.627203 0.108977
C20   C     C_R   0.080148 0.495793 0.372076 0.107955
C21   C     C_R   0.953354 0.498703 0.499325 0.062115
C22   C     C_R   0.046396 0.499257 0.499995 0.062191
C23   C     C_R   0.894172 0.494972 0.370835 0.111518
C24   C     C_R   0.105593 0.503334 0.628594 0.110775
C25   C     C_R   0.978797 0.505611 0.754312 -0.212556
C26   C     C_R   0.020926 0.492002 0.244899 -0.212162
Cu1   Cu    Cu3+1 0.515770 0.521810 0.644910 0.927787
Cu2   Cu    Cu3+1 0.484230 0.478190 0.355090 0.931788
H1    H     H_    0.756236 0.492796 0.272992 0.151109
H2    H     H_    0.243597 0.506925 0.726927 0.152706
H3    H     H_    0.801241 0.504014 0.724096 0.154699
H4    H     H_    0.198490 0.493657 0.275147 0.155830
H5    H     H_    0.953536 0.508031 0.853112 0.137937
H6    H     H_    0.046172 0.489384 0.146038 0.138301
H7    H     H_    0.116096 0.509343 0.854337 0.138390
H8    H     H_    0.883639 0.488785 0.145040 0.137080
H9    H     H_    0.508346 0.954516 0.678436 0.143935
H10   H     H_    0.469497 0.045124 0.323527 0.146237
H11   H     H_    0.440166 0.417155 0.846781 0.159242
H12   H     H_    0.567233 0.569539 0.149044 0.153099
H13   H     H_    0.589682 0.620712 0.933042 0.192736
H14   H     H_    0.406885 0.385250 0.068643 0.191083
N1    N     N_2   0.460520 0.445420 0.137370 -0.284382
N2    N     N_2   0.539480 0.554580 0.862630 -0.287855
O1    O     O_R   0.508410 0.332340 0.577400 -0.585881
O2    O     O_R   0.491590 0.667660 0.422600 -0.578673
O3    O     O_R   0.481780 0.295500 0.332650 -0.560651
O4    O     O_R   0.518220 0.704500 0.667350 -0.561018
O5    O     O_R   0.383570 0.518390 0.622380 -0.579627
O6    O     O_R   0.616430 0.481610 0.377620 -0.589126
O7    O     O_R   0.356940 0.481550 0.377630 -0.578543
O8    O     O_R   0.643060 0.518450 0.622370 -0.587317
C27   C     C_3   0.598039 0.840513 0.350934 -0.363920
C28   C     C_3   0.659850 0.908821 0.283594 -0.861512
H15   H     H_    0.622619 0.977105 0.236466 0.259396
H16   H     H_    0.717986 0.962919 0.367136 0.260641
H17   H     H_    0.685924 0.834356 0.193227 0.231756
H18   H     H_    0.637100 0.764641 0.381810 0.202441
H19   H     H_    0.539181 0.792425 0.265301 0.210075
C29   C     C_3   0.631059 0.164720 0.645731 -0.343251
C30   C     C_3   0.705305 0.097690 0.714556 -0.857694
H20   H     H_    0.676519 0.032905 0.766223 0.256072
H21   H     H_    0.744398 0.040045 0.630746 0.258406
H22   H     H_    0.752065 0.173122 0.801582 0.240323
H23   H     H_    0.664993 0.237476 0.609794 0.207634
H24   H     H_    0.592093 0.217258 0.732547 0.216317

loop_
_geom_bond_atom_site_label_1
_geom_bond_atom_site_label_2
_ccdc_geom_bond_type
Cu1   O4    S    
C8    C27   S    
C30   H22   S    
C4    C26   A    
C27   H18   S    
C4    H8    S    
Cu2   O3    S    
C15   C17   A    
C11   O5    A    
C11   C16   S    
Cu2   N1    S    
C12   O6    A    
C12   C15   S    
C3    H7    S    
C1    O1    A    
H13   N2    S    
Cu1   O1    S    
C21   C23   A    
C27   H19   S    
C6    H9    S    
C29   H24   S    
C7    C8    S    
C16   C18   A    
C21   C22   A    
C2    O2    A    
C10   H11   S    
Cu2   O2    S    
C3    C24   A    
C2    C6    S    
C20   C26   A    
C14   H2    S    
C1    C5    S    
C22   C24   A    
C13   H1    S    
C12   O8    A    
C20   C22   A    
C29   H23   S    
C28   H16   S    
C13   C15   A    
C30   H20   S    
C17   H3    S    
Cu2   O7    S    
C14   C16   A    
C9    N1    D    
C11   O7    A    
H14   N1    S    
C19   C25   A    
C10   N2    D    
C17   C19   A    
C7    C29   S    
C3    C25   A    
C18   H4    S    
Cu1   O8    S    
C13   C23   A    
C18   C20   A    
C5    C7    D    
C9    C10   S    
C14   C24   A    
Cu1   Cu2   S    
C30   H21   S    
C4    C23   A    
C28   H15   S    
C1    O3    A    
C6    C8    D    
C2    O4    A    
C5    H10   S    
Cu2   O6    S    
Cu1   N2    S    
C26   H6    S    
C9    H12   S    
Cu1   O5    S    
C27   C28   S    
C25   H5    S    
C29   C30   S    
C19   C21   A    
C28   H17   S    
