data_mof_unit_9812.cif
_audit_creation_date              2012-12-10T18:57:49-0500
_audit_creation_method            fapswitch 2.2
_symmetry_space_group_name_H-M    P1
_symmetry_Int_Tables_number       1
_space_group_crystal_system       triclinic
_cell_length_a                    10.809517
_cell_length_b                    9.840366
_cell_length_c                    8.913907
_cell_angle_alpha                 89.968431
_cell_angle_beta                  89.865508
_cell_angle_gamma                 90.161125
_cell_volume                      948.162245049

loop_
_atom_site_label
_atom_site_type_symbol
_atom_type_description
_atom_site_fract_x
_atom_site_fract_y
_atom_site_fract_z
_atom_type_partial_charge
C1    C     C_R   0.259703 0.499903 0.500332 0.983238
C2    C     C_R   0.063120 0.623034 0.524207 0.364802
C3    C     C_R   0.872039 0.500969 0.497543 -0.436038
C4    C     C_R   0.126911 0.500087 0.500006 -0.435333
C5    C     C_R   0.563556 0.072179 0.392951 -0.029897
C6    C     C_R   0.436310 0.927812 0.606975 -0.071847
C7    C     C_R   0.436773 0.071678 0.607337 -0.080554
C8    C     C_R   0.563872 0.928313 0.393185 -0.051169
C9    C     C_3   0.112803 0.180381 0.588967 -0.209683
C10   C     C_3   0.867372 0.740366 0.737941 -0.223502
C11   C     C_3   0.871194 0.268338 0.250267 -0.252865
C12   C     C_R   0.739917 0.500262 0.498967 0.970026
C13   C     C_3   0.122897 0.818354 0.409351 -0.197766
C14   C     C_R   0.500237 0.500022 0.218592 0.910360
C15   C     C_R   0.500109 0.499980 0.781406 0.909565
C16   C     C_1   0.500353 0.500031 0.065362 -0.207029
C17   C     C_1   0.500303 0.499972 0.934637 -0.207181
C18   C     C_R   0.062233 0.377838 0.474084 0.365680
C19   C     C_R   0.936052 0.620142 0.537640 0.368001
C20   C     C_R   0.935578 0.382135 0.456760 0.371803
H1    H     H_    0.614013 0.126868 0.307147 0.132079
H2    H     H_    0.960818 0.745795 0.789788 0.160097
H3    H     H_    0.965969 0.270711 0.201095 0.167204
H4    H     H_    0.815991 0.355791 0.208396 0.131831
H5    H     H_    0.825816 0.173793 0.210664 0.165113
H6    H     H_    0.149964 0.754414 0.311438 0.128281
H7    H     H_    0.030445 0.864267 0.390136 0.190380
H8    H     H_    0.191658 0.901806 0.416119 0.176859
H9    H     H_    0.385025 0.873161 0.692236 0.149737
H10   H     H_    0.386335 0.125961 0.693284 0.125795
H11   H     H_    0.615073 0.874057 0.307853 0.129982
H12   H     H_    0.149521 0.238733 0.686341 0.124382
H13   H     H_    0.169172 0.087208 0.578592 0.171966
H14   H     H_    0.015767 0.148082 0.610933 0.190270
H15   H     H_    0.815437 0.650884 0.781979 0.128051
H16   H     H_    0.816047 0.832854 0.771973 0.178064
N1    N     N_R   0.500000 0.857200 0.500000 -0.081105
N2    N     N_R   0.500000 0.142800 0.500000 -0.075408
O1    O     O_R   0.316770 0.614620 0.499990 -0.581051
O2    O     O_3   0.875156 0.737684 0.580024 -0.556345
O3    O     O_3   0.874478 0.266370 0.408416 -0.556244
O4    O     O_3   0.124504 0.745157 0.545735 -0.577305
O5    O     O_R   0.683230 0.385380 0.500010 -0.574749
O6    O     O_R   0.683230 0.614620 0.500010 -0.575811
O7    O     O_R   0.316770 0.385380 0.499990 -0.577624
O8    O     O_R   0.500010 0.614640 0.285340 -0.634733
O9    O     O_R   0.499990 0.385360 0.714660 -0.631151
O10   O     O_R   0.499990 0.614640 0.714660 -0.624325
O11   O     O_R   0.500010 0.385360 0.285340 -0.623480
O12   O     O_3   0.122428 0.255156 0.454137 -0.562542
Zn1   Zn    Zn3+2 0.500000 0.653120 0.500000 0.966939
Zn2   Zn    Zn3+2 0.500000 0.346880 0.500000 0.974233

loop_
_geom_bond_atom_site_label_1
_geom_bond_atom_site_label_2
_ccdc_geom_bond_type
C5    C8    A    
O1    Zn1   S    
C13   H8    S    
C3    C19   A    
C6    C7    A    
C2    C4    A    
O7    Zn2   S    
C15   O9    A    
O11   Zn2   S    
C4    C18   A    
C1    C4    S    
C20   O3    S    
C6    N1    A    
C3    C20   A    
C14   O8    A    
C7    H10   S    
C5    N2    A    
C10   H2    S    
C9    H13   S    
C1    O7    A    
C10   H15   S    
C15   O10   A    
C2    O4    S    
O6    Zn1   S    
C11   H3    S    
C13   O4    S    
C7    N2    A    
O5    Zn2   S    
C11   O3    S    
C12   O5    A    
C18   C20   A    
C9    H14   S    
N1    Zn1   S    
C14   C16   S    
C13   H6    S    
C14   O11   A    
N2    Zn2   S    
C8    N1    A    
C11   H5    S    
C11   H4    S    
C6    H9    S    
C5    H1    S    
C18   O12   S    
C10   O2    S    
C19   O2    S    
O9    Zn2   S    
C15   C17   S    
C1    O1    A    
C12   O6    A    
C10   H16   S    
C3    C12   S    
C9    H12   S    
C2    C19   A    
C8    H11   S    
O8    Zn1   S    
O10   Zn1   S    
C13   H7    S    
C9    O12   S    
C16   C17   T    
