data_mof_unit_47762.cif
_audit_creation_date              2012-12-11T15:41:19-0500
_audit_creation_method            fapswitch 2.2
_symmetry_space_group_name_H-M    P1
_symmetry_Int_Tables_number       1
_space_group_crystal_system       triclinic
_cell_length_a                    14.851094
_cell_length_b                    14.775252
_cell_length_c                    15.048789
_cell_angle_alpha                 109.229338
_cell_angle_beta                  109.931732
_cell_angle_gamma                 109.207322
_cell_volume                      2543.30546582

loop_
_atom_site_label
_atom_site_type_symbol
_atom_type_description
_atom_site_fract_x
_atom_site_fract_y
_atom_site_fract_z
_atom_type_partial_charge
C1    C     C_R   0.194630 0.995206 0.904381 -0.119403
C2    C     C_R   0.748563 0.932970 0.026423 -0.122590
C3    C     C_R   0.868353 0.301758 0.302600 0.052721
C4    C     C_R   0.224734 0.673154 0.675645 0.051781
C5    C     C_R   0.498649 0.045339 0.322462 0.122610
C6    C     C_R   0.500200 0.043979 0.690713 0.099464
C7    C     C_R   0.498446 0.325967 0.053884 0.056830
C8    C     C_R   0.501731 0.700522 0.072819 0.062086
C9    C     C_R   0.098011 0.236614 0.965630 -0.119381
C10   C     C_R   0.796373 0.920561 0.415902 -0.123255
C11   C     C_R   0.192402 0.312283 0.975365 -0.170862
C12   C     C_R   0.700036 0.819590 0.336877 -0.126124
C13   C     C_R   0.298051 0.347847 0.058037 0.103648
C14   C     C_R   0.703925 0.734342 0.263618 0.110030
C15   C     C_R   0.306992 0.304559 0.129189 -0.118791
C16   C     C_R   0.806163 0.751385 0.272211 -0.176262
C17   C     C_R   0.212434 0.228846 0.118917 -0.088153
C18   C     C_R   0.902331 0.852478 0.351643 -0.103619
C19   C     C_R   0.108093 0.196001 0.038130 -0.091703
C20   C     C_R   0.897416 0.937013 0.423250 -0.100858
C21   C     C_R   0.401454 0.528799 0.073230 -0.213645
C22   C     C_R   0.598719 0.529916 0.169001 -0.212911
C23   C     C_R   0.803495 0.208356 0.300169 -0.107580
C24   C     C_R   0.249992 0.776661 0.686233 -0.101461
C25   C     C_R   0.502063 0.621518 0.112959 0.049847
C26   C     C_R   0.498340 0.430139 0.104450 0.051118
C27   C     C_R   0.600952 0.628055 0.179254 0.031373
C28   C     C_R   0.399333 0.434281 0.075260 0.032497
C29   C     C_R   0.038295 0.477032 0.380321 -0.166859
C30   C     C_R   0.125758 0.468907 0.571883 -0.156777
C31   C     C_R   0.129698 0.570190 0.474117 -0.128549
C32   C     C_R   0.034648 0.375581 0.478033 -0.159871
C33   C     C_R   0.165561 0.569559 0.572951 0.144340
C34   C     C_R   0.983785 0.382836 0.385101 0.132226
C35   C     C_R   0.540567 0.148158 0.600963 -0.265435
C36   C     C_R   0.457022 0.949416 0.415377 -0.271110
C37   C     C_R   0.539606 0.150416 0.509507 0.222645
C38   C     C_R   0.458696 0.946983 0.505878 0.220034
C39   C     C_R   0.496373 0.050092 0.417008 0.006469
C40   C     C_R   0.499374 0.046714 0.597792 0.013773
C41   C     C_R   0.964457 0.839202 0.942399 -0.162065
C42   C     C_R   0.865760 0.933965 0.838971 -0.166718
C43   C     C_R   0.872944 0.841167 0.944938 -0.154000
C44   C     C_R   0.957668 0.932193 0.836523 -0.161629
C45   C     C_R   0.406719 0.972130 0.220372 -0.141831
C46   C     C_R   0.592308 0.084817 0.787026 -0.124401
C47   C     C_R   0.831968 0.900636 0.904705 0.139819
C48   C     C_R   0.014363 0.895848 0.898716 0.135229
C49   C     C_R   0.591251 0.314801 0.068036 -0.111393
C50   C     C_R   0.409696 0.701420 0.008221 -0.130693
C51   C     C_R   0.591853 0.063102 0.313902 -0.105574
C52   C     C_R   0.408037 0.992831 0.695259 -0.099502
C53   C     C_R   0.407022 0.222716 0.973367 -0.133930
C54   C     C_R   0.592159 0.791401 0.095903 -0.145281
C55   C     C_R   0.804973 0.300379 0.209496 -0.139110
C56   C     C_R   0.251410 0.684561 0.778229 -0.120752
C57   C     C_R   0.195896 0.904118 0.995871 -0.136820
C58   C     C_R   0.749759 0.026040 0.935619 -0.117062
C59   C     C_R   0.130710 0.932266 0.933166 0.045501
C60   C     C_R   0.774503 0.947295 0.949802 0.040710
H1    H     H_    0.166161 0.018885 0.844184 0.088133
H2    H     H_    0.758312 0.879206 0.058230 0.095476
H3    H     H_    0.016939 0.209991 0.902306 0.107233
H4    H     H_    0.792638 0.986072 0.471394 0.112798
H5    H     H_    0.182873 0.342890 0.918478 0.107487
H6    H     H_    0.622309 0.808073 0.332199 0.127534
H7    H     H_    0.387184 0.330925 0.193939 0.133414
H8    H     H_    0.811218 0.687299 0.216454 0.109669
H9    H     H_    0.220049 0.196588 0.174442 0.123331
H10   H     H_    0.980680 0.865434 0.357428 0.110530
H11   H     H_    0.324813 0.529353 0.040111 0.118564
H12   H     H_    0.675394 0.531520 0.209584 0.123864
H13   H     H_    0.005211 0.483439 0.308038 0.112580
H14   H     H_    0.156427 0.463762 0.645267 0.108475
H15   H     H_    0.163705 0.644735 0.470326 0.135570
H16   H     H_    0.998903 0.302048 0.482876 0.106920
H17   H     H_    0.572747 0.224411 0.673812 0.160749
H18   H     H_    0.427793 0.872802 0.344274 0.162441
H19   H     H_    0.001476 0.803373 0.984882 0.109244
H20   H     H_    0.830317 0.972965 0.799808 0.116784
H21   H     H_    0.829879 0.174425 0.350935 0.081209
H22   H     H_    0.237302 0.798080 0.622984 0.103910
H23   H     H_    0.843440 0.806938 0.989232 0.110215
H24   H     H_    0.990002 0.970137 0.795872 0.114744
H25   H     H_    0.321402 0.934314 0.199987 0.108908
H26   H     H_    0.676634 0.140485 0.813569 0.092871
H27   H     H_    0.676670 0.378030 0.122964 0.094892
H28   H     H_    0.325407 0.651276 0.985738 0.085936
H29   H     H_    0.676651 0.109099 0.379365 0.109999
H30   H     H_    0.323696 0.964451 0.637821 0.096039
H31   H     H_    0.321188 0.199844 0.937925 0.114809
H32   H     H_    0.677798 0.824187 0.151417 0.115433
H33   H     H_    0.833510 0.352227 0.177504 0.086318
H34   H     H_    0.242198 0.621289 0.800740 0.094366
H35   H     H_    0.169333 0.843071 0.019370 0.087572
H36   H     H_    0.762464 0.059708 0.884717 0.091883
H37   H     H_    0.035101 0.139070 0.031858 0.119279
H38   H     H_    0.971925 0.015271 0.484452 0.102261
N1    N     N_R   0.293810 0.002730 0.945950 -0.040375
N2    N     N_R   0.706190 0.997270 0.054050 -0.042024
N3    N     N_R   0.706160 0.152130 0.208910 -0.037518
N4    N     N_R   0.293840 0.847870 0.791090 -0.044305
N5    N     N_R   0.443140 0.945920 0.152090 -0.046148
N6    N     N_R   0.556860 0.054080 0.847910 -0.038778
N7    N     N_R   0.556830 0.208940 0.002760 -0.044834
N8    N     N_R   0.443170 0.791060 0.997240 -0.037899
N9    N     N_R   0.556790 0.002750 0.208910 -0.048322
N10   N     N_R   0.443210 0.997250 0.791090 -0.039918
N11   N     N_R   0.443180 0.152110 0.945950 -0.045657
N12   N     N_R   0.556820 0.847890 0.054050 -0.039041
N13   N     N_R   0.706170 0.208950 0.152090 -0.038407
N14   N     N_R   0.293830 0.791050 0.847910 -0.041537
N15   N     N_R   0.293800 0.945910 0.002760 -0.036607
N16   N     N_R   0.706200 0.054090 0.997240 -0.041624
Ni1   Ni    Ni4+2 0.369690 0.999990 0.869700 0.215834
Ni2   Ni    Ni4+2 0.630310 0.000010 0.130300 0.218367
Ni3   Ni    Ni4+2 0.369670 0.869670 0.000000 0.214719
Ni4   Ni    Ni4+2 0.630330 0.130330 0.000000 0.215325
I1    I     I_    0.602364 0.304318 0.514249 -0.436214
I2    I     I_    0.406964 0.791418 0.499904 -0.475266

loop_
_geom_bond_atom_site_label_1
_geom_bond_atom_site_label_2
_ccdc_geom_bond_type
C18   H10   S    
C38   C40   A    
C42   H20   S    
C8    C50   A    
C43   H23   S    
C49   H27   S    
N4    N14   A    
N2    Ni2   S    
C55   H33   S    
C1    N1    A    
C19   H37   S    
C56   H34   S    
C7    C26   S    
C21   H11   S    
N13   Ni4   S    
N10   Ni1   S    
C35   C37   A    
C1    C59   A    
N1    Ni1   S    
N14   Ni3   S    
C4    C24   A    
C2    C60   A    
C57   C59   A    
C29   H13   S    
C58   C60   A    
C54   N12   A    
C24   H22   S    
C58   H36   S    
N4    Ni1   S    
C45   N5    A    
C47   C60   S    
C52   H30   S    
C9    C19   A    
C10   C20   A    
C32   H16   S    
C53   H31   S    
C31   C33   A    
C13   C28   S    
C16   H8    S    
C14   C27   S    
C6    C46   A    
C18   C20   A    
C50   H28   S    
C38   I2    S    
C2    N2    A    
C4    C56   A    
C8    C25   S    
C41   C43   A    
N5    Ni3   S    
C42   C44   A    
C22   H12   S    
N7    N11   A    
N6    Ni4   S    
N2    N16   A    
C7    C49   A    
C8    C54   A    
C46   N6    A    
C57   N15   A    
C3    C34   S    
C3    C23   A    
C5    C45   A    
C29   C34   A    
C35   H17   S    
C32   C34   A    
C45   H25   S    
C54   H32   S    
C24   N4    A    
C31   H15   S    
C37   I1    S    
C29   C31   A    
C15   H7    S    
C9    C11   A    
N16   Ni4   S    
C10   C12   A    
N15   Ni3   S    
C16   C18   A    
C21   C28   A    
C12   C14   A    
C22   C27   A    
C13   C15   A    
N8    Ni3   S    
C22   C26   A    
C14   C16   A    
N7    Ni4   S    
N3    N13   A    
C7    C53   A    
N12   Ni2   S    
N6    N10   A    
C48   C59   S    
C58   N16   A    
C41   H19   S    
N8    N12   A    
C53   N11   A    
C15   C17   A    
C21   C25   A    
C4    C33   S    
C23   H21   S    
C30   C33   A    
C55   N13   A    
C9    H3    S    
C26   C28   A    
C36   C39   A    
C10   H4    S    
C44   H24   S    
C1    H1    S    
N1    N15   A    
C49   N7    A    
C25   C27   A    
C3    C55   A    
C5    C39   S    
C35   C40   A    
C37   C39   A    
C44   C48   A    
C36   H18   S    
C51   H29   S    
C30   C32   A    
C11   C13   A    
C23   N3    A    
C12   H6    S    
C30   H14   S    
C36   C38   A    
C17   C19   A    
C41   C48   A    
C6    C40   S    
C42   C47   A    
N9    Ni2   S    
N11   Ni1   S    
C2    H2    S    
C20   H38   S    
C52   N10   A    
C51   N9    A    
C57   H35   S    
C50   N8    A    
N3    Ni2   S    
C5    C51   A    
N5    N9    A    
C17   H9    S    
C6    C52   A    
C43   C47   A    
C56   N14   A    
C11   H5    S    
C46   H26   S    
