data_mof_unit_15334.cif
_audit_creation_date              2012-12-10T18:47:47-0500
_audit_creation_method            fapswitch 2.2
_symmetry_space_group_name_H-M    P1
_symmetry_Int_Tables_number       1
_space_group_crystal_system       triclinic
_cell_length_a                    9.846263
_cell_length_b                    10.720176
_cell_length_c                    15.521619
_cell_angle_alpha                 90.083803
_cell_angle_beta                  67.847627
_cell_angle_gamma                 90.013751
_cell_volume                      1517.42527206

loop_
_atom_site_label
_atom_site_type_symbol
_atom_type_description
_atom_site_fract_x
_atom_site_fract_y
_atom_site_fract_z
_atom_type_partial_charge
C1    C     C_R   0.500018 0.740124 0.500060 0.869221
C2    C     C_R   0.368617 0.936105 0.516708 -0.194392
C3    C     C_R   0.500036 0.127434 0.499835 -0.013877
C4    C     C_R   0.500024 0.872580 0.500046 -0.015292
C5    C     C_R   0.963459 0.424897 0.440374 -0.087488
C6    C     C_R   0.036578 0.575174 0.559563 -0.084606
C7    C     C_R   0.107279 0.424881 0.440421 -0.074427
C8    C     C_R   0.892771 0.575207 0.559502 -0.070487
C9    C     C_R   0.408471 0.498165 0.675971 0.873399
C10   C     C_R   0.591409 0.498619 0.323999 0.873664
C11   C     C_R   0.350774 0.488659 0.777089 -0.058595
C12   C     C_R   0.500005 0.259879 0.499900 0.869103
C13   C     C_R   0.646060 0.478880 0.223755 -0.056873
C14   C     C_R   0.158177 0.516457 0.928093 -0.217899
C15   C     C_R   0.815843 0.382988 0.083570 -0.223388
C16   C     C_R   0.204712 0.517008 0.831508 -0.201805
C17   C     C_R   0.781921 0.422790 0.174992 -0.210539
C18   C     C_R   0.447069 0.452793 0.819217 -0.265652
C19   C     C_R   0.547246 0.497647 0.180365 -0.260499
C20   C     C_R   0.402921 0.450303 0.915804 0.095642
C21   C     C_R   0.572621 0.447809 0.092727 0.095881
C22   C     C_R   0.257135 0.486577 0.970537 0.177940
C23   C     C_R   0.315317 0.481165 0.107784 -0.232323
C24   C     C_R   0.711929 0.394980 0.042087 0.176913
C25   C     C_R   0.503664 0.422898 0.958660 0.067458
C26   C     C_R   0.463562 0.451634 0.053965 0.070312
C27   C     C_R   0.643345 0.369300 0.909516 -0.232790
C28   C     C_R   0.213475 0.496402 0.066570 -0.247523
C29   C     C_R   0.744703 0.353972 0.951338 -0.242168
C30   C     C_R   0.631437 0.936118 0.483274 -0.194874
C31   C     C_R   0.368633 0.063899 0.516577 -0.194255
C32   C     C_R   0.631455 0.063914 0.483137 -0.194222
H1    H     H_    0.101624 0.521091 0.109668 0.151008
H2    H     H_    0.266139 0.112523 0.530107 0.156859
H3    H     H_    0.733969 0.112553 0.469502 0.153900
H4    H     H_    0.266101 0.887473 0.530338 0.153905
H5    H     H_    0.937270 0.364889 0.392691 0.119874
H6    H     H_    0.062808 0.635259 0.607183 0.120372
H7    H     H_    0.274077 0.490149 0.182530 0.147472
H8    H     H_    0.675574 0.334217 0.839458 0.149012
H9    H     H_    0.190003 0.364770 0.392764 0.130760
H10   H     H_    0.810099 0.635434 0.607068 0.130700
H11   H     H_    0.850046 0.311813 0.911915 0.152083
H12   H     H_    0.448775 0.549971 0.217419 0.154838
H13   H     H_    0.559225 0.433845 0.775061 0.158799
H14   H     H_    0.859066 0.406066 0.208303 0.150436
H15   H     H_    0.128475 0.543889 0.799576 0.155351
H16   H     H_    0.046632 0.544010 0.969391 0.151300
H17   H     H_    0.921241 0.339642 0.046320 0.147179
H18   H     H_    0.733929 0.887492 0.469750 0.157279
N1    N     N_R   0.142780 0.500030 0.500020 -0.076405
N2    N     N_R   0.857220 0.499970 0.499980 -0.076644
O1    O     O_R   0.385370 0.683250 0.500010 -0.623970
O2    O     O_R   0.614630 0.316750 0.499990 -0.625124
O3    O     O_R   0.614700 0.683220 0.500000 -0.623458
O4    O     O_R   0.385300 0.316780 0.500000 -0.623690
O5    O     O_R   0.319830 0.500020 0.632250 -0.617081
O6    O     O_R   0.680170 0.499980 0.367750 -0.617039
O7    O     O_R   0.549160 0.499990 0.632240 -0.618760
O8    O     O_R   0.450840 0.500010 0.367760 -0.616413
Zn1   Zn    Zn3+2 0.346870 0.500020 0.500000 0.941637
Zn2   Zn    Zn3+2 0.653130 0.499980 0.500000 0.940264

loop_
_geom_bond_atom_site_label_1
_geom_bond_atom_site_label_2
_ccdc_geom_bond_type
O6    Zn2   S    
C2    C4    A    
C21   C26   A    
C6    H6    S    
C11   C18   A    
O5    Zn1   S    
C5    H5    S    
C6    N1    A    
C27   C29   A    
C11   C16   A    
C8    N2    A    
C10   O8    A    
N1    Zn1   S    
C13   C17   A    
C27   H8    S    
C1    C4    S    
C17   H14   S    
C14   C22   A    
C7    H9    S    
C1    O3    A    
C31   H2    S    
C7    N1    A    
C5    N2    A    
C22   C28   A    
C23   C28   A    
C29   H11   S    
C3    C31   A    
C9    C11   S    
C12   O4    A    
C12   O2    A    
C23   H7    S    
C16   H15   S    
O3    Zn2   S    
C15   C24   A    
C10   O6    A    
C20   C22   A    
C28   H1    S    
C18   C20   A    
C15   H17   S    
C30   H18   S    
C3    C32   A    
C14   C16   A    
C21   C24   A    
C25   C27   A    
C20   C25   A    
C13   C19   A    
C30   C32   A    
C18   H13   S    
C19   H12   S    
C9    O5    A    
C5    C7    A    
C23   C26   A    
C2    H4    S    
C15   C17   A    
C14   H16   S    
C1    O1    A    
C24   C29   A    
C2    C31   A    
O7    Zn2   S    
C6    C8    A    
C3    C12   S    
O2    Zn2   S    
C19   C21   A    
C25   C26   A    
O4    Zn1   S    
O1    Zn1   S    
N2    Zn2   S    
C4    C30   A    
C32   H3    S    
C8    H10   S    
O8    Zn1   S    
C9    O7    A    
C10   C13   S    
