data_mof_unit_38596.cif
_audit_creation_date              2012-12-10T17:48:43-0500
_audit_creation_method            fapswitch 2.2
_symmetry_space_group_name_H-M    P1
_symmetry_Int_Tables_number       1
_space_group_crystal_system       triclinic
_cell_length_a                    15.730566
_cell_length_b                    10.612763
_cell_length_c                    9.931494
_cell_angle_alpha                 89.861935
_cell_angle_beta                  89.825873
_cell_angle_gamma                 91.689351
_cell_volume                      1657.27749233

loop_
_atom_site_label
_atom_site_type_symbol
_atom_type_description
_atom_site_fract_x
_atom_site_fract_y
_atom_site_fract_z
_atom_type_partial_charge
C1    C     C_R   0.502060 0.260781 0.500168 0.846637
C2    C     C_3   0.951302 0.474744 0.650425 0.317571
C3    C     C_3   0.916916 0.497675 0.504611 -0.001624
C4    C     C_3   0.951141 0.627394 0.451257 -0.482466
C5    C     C_3   0.049825 0.629740 0.441582 -0.043414
C6    C     C_1   0.825457 0.497917 0.501880 0.084826
C7    C     C_1   0.174413 0.502628 0.501845 -0.065187
C8    C     C_1   0.249677 0.501009 0.500907 -0.189067
C9    C     C_R   0.647219 0.137313 0.615516 -0.128491
C10   C     C_R   0.715608 0.074318 0.670417 -0.042611
C11   C     C_R   0.715929 0.943198 0.669340 -0.115772
C12   C     C_R   0.338481 0.499787 0.500259 0.883670
C13   C     C_R   0.647739 0.874629 0.613668 -0.197106
C14   C     C_R   0.577501 0.937129 0.558674 0.085763
C15   C     C_R   0.577287 0.069157 0.559395 0.081706
C16   C     C_R   0.507597 0.128687 0.500139 -0.070015
C17   C     C_R   0.441497 0.061924 0.437511 -0.216410
C18   C     C_R   0.441615 0.933220 0.437126 -0.199776
C19   C     C_R   0.507899 0.871905 0.499185 -0.082549
C20   C     C_R   0.388692 0.334387 0.140700 -0.141941
C21   C     C_R   0.333958 0.252705 0.071025 -0.189214
C22   C     C_R   0.333948 0.252758 0.931648 -0.182683
C23   C     C_R   0.502269 0.739364 0.499799 0.858910
C24   C     C_R   0.388708 0.334443 0.861065 -0.142156
C25   C     C_R   0.445198 0.418407 0.928196 0.161690
C26   C     C_R   0.445204 0.418425 0.072680 0.168886
C27   C     C_R   0.552514 0.577960 0.070959 -0.086869
C28   C     C_R   0.552510 0.577912 0.927970 -0.073814
C29   C     C_R   0.661486 0.500401 0.499793 0.865763
C30   C     C_3   0.049681 0.486398 0.649173 -0.449876
C31   C     C_3   0.048912 0.392290 0.416723 -0.489800
C32   C     C_3   0.950829 0.394524 0.406755 0.278757
C33   C     C_1   0.750208 0.499281 0.499924 -0.068237
C34   C     C_3   0.082864 0.504379 0.502988 0.163565
H1    H     H_    0.933145 0.377006 0.680342 0.161571
H2    H     H_    0.073069 0.565990 0.712843 0.200889
H3    H     H_    0.924807 0.645960 0.349344 0.169308
H4    H     H_    0.388967 0.109736 0.391265 0.134018
H5    H     H_    0.650430 0.239150 0.615766 0.161028
H6    H     H_    0.768871 0.127477 0.712694 0.187806
H7    H     H_    0.769448 0.894462 0.710761 0.197851
H8    H     H_    0.651284 0.773039 0.612448 0.153830
H9    H     H_    0.389109 0.881036 0.390808 0.148773
H10   H     H_    0.595445 0.641755 0.124129 0.157648
H11   H     H_    0.075899 0.399402 0.693831 0.173374
H12   H     H_    0.384721 0.328853 0.247490 0.195333
H13   H     H_    0.291225 0.189040 0.125722 0.150091
H14   H     H_    0.291189 0.189152 0.877678 0.152331
H15   H     H_    0.384835 0.329034 0.754286 0.200814
H16   H     H_    0.595444 0.641670 0.873965 0.164290
H17   H     H_    0.076747 0.397120 0.313505 0.178056
H18   H     H_    0.069785 0.302537 0.462469 0.225531
H19   H     H_    0.934642 0.422943 0.302075 0.142600
H20   H     H_    0.067687 0.630509 0.332831 0.163085
H21   H     H_    0.928064 0.704070 0.516152 0.261120
N1    N     N_R   0.499210 0.498800 0.142780 -0.124924
N2    N     N_R   0.499180 0.498720 0.857170 -0.126632
O1    O     O_R   0.500000 0.316780 0.614690 -0.645227
O2    O     O_R   0.499990 0.316750 0.385360 -0.620629
O3    O     O_R   0.377150 0.500020 0.614720 -0.628744
O4    O     O_R   0.377140 0.499990 0.385380 -0.633788
O5    O     O_R   0.500010 0.683250 0.614640 -0.618535
O6    O     O_R   0.500000 0.683220 0.385310 -0.612351
O7    O     O_R   0.622860 0.500010 0.614620 -0.602978
O8    O     O_R   0.622850 0.499980 0.385280 -0.600095
Zn1   Zn    Zn3+2 0.500010 0.500020 0.653130 0.948819
Zn2   Zn    Zn3+2 0.499990 0.499980 0.346870 0.956406
S1    S     S_3+6 0.907151 0.570725 0.782480 -0.003400
O9    O     O_2   0.812212 0.551600 0.789035 -0.274115
O10   O     O_2   0.943459 0.529471 0.914835 -0.312156
O11   O     O_3   0.930352 0.725082 0.759781 -0.581390
H22   H     H_    0.980070 0.743958 0.818058 0.361428
S2    S     S_3+6 0.905044 0.236873 0.426179 -0.021194
O12   O     O_2   0.929266 0.179809 0.558759 -0.351092
O13   O     O_2   0.809826 0.237992 0.415152 -0.313084
O14   O     O_3   0.942902 0.147493 0.301313 -0.547897
H23   H     H_    0.914074 0.063963 0.313292 0.381303
C35   C     C_3   0.090068 0.751503 0.504371 -0.403949
C36   C     C_3   0.069682 0.869844 0.422400 -0.336622
C37   C     C_3   0.112169 0.987666 0.483096 -0.801804
H24   H     H_    0.088039 0.003165 0.586800 0.277966
H25   H     H_    0.182292 0.978208 0.485965 0.234002
H26   H     H_    0.097584 0.071009 0.420499 0.277480
H27   H     H_    0.092730 0.859207 0.317231 0.219521
H28   H     H_    0.999936 0.882975 0.419753 0.245221
H29   H     H_    0.067573 0.763089 0.609389 0.235192
H30   H     H_    0.160340 0.744718 0.507464 0.205253

loop_
_geom_bond_atom_site_label_1
_geom_bond_atom_site_label_2
_ccdc_geom_bond_type
C35   H30   S    
C2    H1    S    
C22   H14   S    
S2    O12   D    
C30   H11   S    
C31   H18   S    
C3    C6    S    
C7    C8    T    
C28   N2    A    
C2    S1    S    
C1    O2    A    
C36   H27   S    
C15   C16   A    
C29   C33   S    
C9    H5    S    
C10   H6    S    
C18   C19   A    
O2    Zn2   S    
C28   H16   S    
C27   H10   S    
O1    Zn1   S    
C23   O5    A    
C16   C17   A    
O8    Zn2   S    
C13   C14   A    
C9    C10   A    
N2    Zn1   S    
C35   H29   S    
C23   O6    A    
C29   O7    A    
O3    Zn1   S    
C21   C22   A    
S2    O13   D    
C25   N2    A    
C37   H26   S    
C13   H8    S    
O6    Zn2   S    
C30   C34   S    
C5    H20   S    
C24   C25   A    
C37   H25   S    
C32   S2    S    
O5    Zn1   S    
C35   C36   S    
S1    O9    D    
C25   C26   A    
O7    Zn1   S    
C19   C23   S    
O4    Zn2   S    
C31   C32   S    
C8    C12   S    
C5    C34   S    
C20   C21   A    
C17   C18   A    
C31   C34   S    
C1    C16   S    
O14   H23   S    
C29   O8    A    
C4    H21   S    
S2    O14   S    
C22   C24   A    
C3    C4    S    
C32   H19   S    
C36   H28   S    
C24   H15   S    
C27   N1    A    
C14   C19   A    
C31   H17   S    
C37   H24   S    
C26   N1    A    
N1    Zn2   S    
C6    C33   T    
C30   H2    S    
C2    C30   S    
C2    C3    S    
C9    C15   A    
O11   H22   S    
C1    O1    A    
C12   O4    A    
C11   C13   A    
C20   C26   A    
S1    O11   S    
C7    C34   S    
C11   H7    S    
C17   H4    S    
C3    C32   S    
C10   C11   A    
C36   C37   S    
C12   O3    A    
C4    C5    S    
C4    H3    S    
S1    O10   D    
C27   C28   A    
C14   C15   A    
C5    C35   S    
C18   H9    S    
C20   H12   S    
C21   H13   S    
