data_mof_unit_19620.cif
_audit_creation_date              2013-03-05T16:47:43-0500
_audit_creation_method            fapswitch 2.2
_symmetry_space_group_name_H-M    P1
_symmetry_Int_Tables_number       1
_space_group_crystal_system       triclinic
_cell_length_a                    10.942055
_cell_length_b                    13.004225
_cell_length_c                    11.761517
_cell_angle_alpha                 99.529337
_cell_angle_beta                  94.061883
_cell_angle_gamma                 93.621333
_cell_volume                      1641.56369136

loop_
_atom_site_label
_atom_site_type_symbol
_atom_site_description
_atom_site_fract_x
_atom_site_fract_y
_atom_site_fract_z
_atom_type_partial_charge
O1    O     O_R   0.506570 0.354460 0.582000 -0.553844
O2    O     O_R   0.493430 0.645540 0.418000 -0.553886
O3    O     O_R   0.490940 0.341410 0.386200 -0.597385
O4    O     O_R   0.509060 0.658590 0.613800 -0.597427
C1    C     C_R   0.499881 0.299260 0.478563 0.825184
C2    C     C_R   0.500106 0.700740 0.521435 0.825122
O5    O     O_R   0.327460 0.506540 0.597900 -0.550012
O6    O     O_R   0.672540 0.493460 0.402100 -0.550124
O7    O     O_R   0.311830 0.493480 0.402100 -0.596420
O8    O     O_R   0.688170 0.506520 0.597900 -0.596347
C3    C     C_R   0.262407 0.502935 0.499406 0.812187
C4    C     C_R   0.737591 0.497045 0.500595 0.812073
Cu1   Cu    Cu3+1 0.509250 0.507730 0.615930 1.019499
Cu2   Cu    Cu3+1 0.490750 0.492270 0.384070 1.019531
H1    H     H_    0.196047 0.534452 0.973049 0.189469
H2    H     H_    0.804179 0.466152 0.027211 0.189989
C5    C     C_R   0.195354 0.612896 0.150166 0.361980
C6    C     C_R   0.804698 0.387471 0.850159 0.361636
C7    C     C_R   0.158946 0.603257 0.260556 -0.147334
C8    C     C_R   0.841029 0.396942 0.739693 -0.147287
H3    H     H_    0.178365 0.667794 0.331952 0.158631
H4    H     H_    0.821551 0.332329 0.668388 0.158742
C9    C     C_R   0.096811 0.510433 0.279300 0.064360
C10   C     C_R   0.903191 0.489691 0.720763 0.064304
C11   C     C_R   0.067465 0.428245 0.185968 -0.182858
C12   C     C_R   0.932605 0.571985 0.813969 -0.183181
H5    H     H_    0.017398 0.357154 0.199326 0.168851
H6    H     H_    0.982678 0.643023 0.800463 0.168781
C13   C     C_R   0.104900 0.436499 0.076423 -0.062310
C14   C     C_R   0.895246 0.563903 0.923581 -0.062443
C15   C     C_R   0.168578 0.528443 0.058581 -0.253529
C16   C     C_R   0.831579 0.472022 0.941622 -0.253313
C17   C     C_R   0.925037 0.494278 0.398288 -0.175016
C18   C     C_R   0.074959 0.505591 0.601715 -0.175069
H7    H     H_    0.867808 0.489724 0.318490 0.205298
H8    H     H_    0.132192 0.510089 0.681508 0.205021
C19   C     C_R   0.871621 0.494322 0.502773 -0.095969
C20   C     C_R   0.128373 0.505606 0.497235 -0.095913
C21   C     C_R   0.948245 0.497524 0.606202 0.028668
C22   C     C_R   0.051749 0.502418 0.393813 0.028633
C23   C     C_R   0.500400 0.814380 0.534377 -0.077307
C24   C     C_R   0.499563 0.185618 0.465613 -0.077378
C25   C     C_R   0.459131 0.013937 0.347653 -0.121598
C26   C     C_R   0.540815 0.986064 0.652335 -0.121661
C27   C     C_R   0.468354 0.122182 0.357410 -0.162449
C28   C     C_R   0.531588 0.877820 0.642582 -0.162587
C29   C     C_R   0.528140 0.139770 0.562624 -0.158080
C30   C     C_R   0.471824 0.860225 0.437360 -0.157893
C31   C     C_R   0.517740 0.031703 0.554116 0.136393
C32   C     C_R   0.482212 0.968294 0.445870 0.136391
H9    H     H_    0.441500 0.811924 0.355200 0.225203
H10   H     H_    0.558485 0.188071 0.644776 0.225345
H11   H     H_    0.549873 0.844147 0.719545 0.184553
H12   H     H_    0.450055 0.155860 0.280450 0.184564
H13   H     H_    0.433835 0.966146 0.263697 0.203611
H14   H     H_    0.566110 0.033857 0.736290 0.203634
N1    N     N_R   0.523180 0.519350 0.790130 -0.266451
N2    N     N_R   0.476820 0.480650 0.209870 -0.266521
C33   C     C_R   0.399116 0.387175 0.021388 -0.246562
C34   C     C_R   0.600816 0.612864 0.978628 -0.246702
C35   C     C_R   0.405016 0.400128 0.142546 0.087825
C36   C     C_R   0.594907 0.599921 0.857466 0.087738
C37   C     C_R   0.543010 0.550935 0.157250 0.507909
C38   C     C_R   0.457071 0.449007 0.842752 0.507467
C39   C     C_R   0.536059 0.541630 0.034371 -0.055111
C40   C     C_R   0.463932 0.458372 0.965636 -0.055247
H15   H     H_    0.341183 0.322353 0.971706 0.209297
H16   H     H_    0.658686 0.677721 0.028329 0.209326
N3    N     N_R   0.379126 0.365977 0.774097 0.128929
O9    O     O_R   0.410057 0.270616 0.769655 -0.369628
O10   O     O_R   0.263994 0.380498 0.752633 -0.391394
N4    N     N_R   0.621394 0.633665 0.225895 0.129034
O11   O     O_R   0.590514 0.729113 0.231105 -0.369573
O12   O     O_R   0.736668 0.618957 0.246255 -0.392320
C41   C     C_1   0.670220 0.671541 0.806287 0.329972
N5    N     N_1   0.732102 0.729175 0.766234 -0.286650
C42   C     C_1   0.329689 0.328528 0.193739 0.329985
N6    N     N_1   0.267801 0.270908 0.233806 -0.286571
N7    N     N_R   0.256255 0.708820 0.130398 0.127859
O13   O     O_R   0.308809 0.712547 0.035144 -0.360557
O14   O     O_R   0.253301 0.794698 0.204383 -0.377717
N8    N     N_R   0.743766 0.291626 0.870132 0.128147
O15   O     O_R   0.691624 0.287991 0.965636 -0.360391
O16   O     O_R   0.746249 0.205722 0.796042 -0.377667
C43   C     C_1   0.080937 0.349278 0.982917 0.289977
N9    N     N_1   0.062134 0.279041 0.907881 -0.177270
C44   C     C_1   0.919275 0.651236 0.016951 0.290755
N10   N     N_1   0.938132 0.721564 0.091876 -0.176917

loop_
_geom_bond_atom_site_label_1
_geom_bond_atom_site_label_2
_geom_bond_distance
_ccdc_geom_bond_type
C26   C31   1.398258 A    
C14   C16   1.399184 A    
C1    C24   1.460102 S    
C37   C39   1.426361 A    
C44   N10   1.157201 T    
N1    C36   1.369054 A    
C29   C31   1.389078 A    
C42   N6    1.157634 T    
O5    C3    1.308377 A    
C6    C16   1.405474 A    
O1    C1    1.300885 A    
C7    H3    1.083285 S    
C10   C12   1.403102 A    
C33   C40   1.405038 A    
Cu1   N1    2.023418 S    
C9    C22   1.483927 S    
C5    N7    1.437757 S    
C10   C21   1.483949 S    
C34   C36   1.403362 A    
O4    Cu1   1.966251 S    
C31   C32   1.411995 A    
C33   H15   1.082035 S    
C30   H9    1.079680 S    
C8    C10   1.404879 A    
C35   C42   1.438000 S    
C2    C23   1.460117 S    
C23   C28   1.404268 A    
C13   C43   1.439900 S    
N2    C35   1.369003 A    
C30   C32   1.389096 A    
Cu1   Cu2   2.693173 S    
O2    C2    1.300868 A    
C6    N8    1.437827 S    
C26   C28   1.389853 A    
C11   C13   1.397970 A    
Cu2   N2    2.023417 S    
C33   C35   1.403314 A    
C17   C22   1.389236 A    
N3    O10   1.298921 A    
C18   C21   1.389264 A    
N4    O12   1.299132 A    
N7    O14   1.300849 A    
O7    Cu2   1.984845 S    
C5    C7    1.407479 A    
C43   N9    1.157188 T    
N8    O15   1.301713 A    
C17   C19   1.397637 A    
C24   C27   1.404270 A    
C38   C40   1.426380 A    
C3    C20   1.467721 S    
C7    C9    1.404850 A    
C41   N5    1.157635 T    
O7    C3    1.291069 A    
C26   H14   1.083641 S    
O6    C4    1.308413 A    
C38   N3    1.429228 S    
C25   C27   1.389868 A    
C34   H16   1.082074 S    
O3    Cu2   1.966250 S    
O8    C4    1.291042 A    
O4    C2    1.295790 A    
C8    H4    1.083291 S    
C34   C39   1.404999 A    
C12   C14   1.397960 A    
N8    O16   1.301118 A    
C5    C15   1.405426 A    
C36   C41   1.437991 S    
C11   H5    1.084322 S    
N1    C38   1.382173 A    
C25   H13   1.083638 S    
N2    C37   1.382080 A    
O6    Cu2   1.984242 S    
C18   C20   1.397655 A    
N4    O11   1.299730 A    
O3    C1    1.295765 A    
O8    Cu1   1.984845 S    
C27   H12   1.080687 S    
C25   C32   1.398273 A    
H1    C15   1.083679 S    
C29   H10   1.079641 S    
H2    C16   1.083694 S    
C12   H6    1.084337 S    
C19   C21   1.420862 A    
C20   C22   1.420825 A    
C28   H11   1.080672 S    
C17   H7    1.081735 S    
C23   C30   1.397666 A    
C6    C8    1.407555 A    
C24   C29   1.397633 A    
C9    C11   1.403090 A    
N3    O9    1.299687 A    
O2    Cu2   1.964787 S    
N7    O13   1.301497 A    
O5    Cu1   1.984242 S    
O1    Cu1   1.964786 S    
C37   N4    1.429207 S    
C18   H8    1.081801 S    
C13   C15   1.399182 A    
C39   C40   1.400186 A    
C4    C19   1.467737 S    
C14   C44   1.439914 S    
