data_mof_unit_51155.cif
_audit_creation_date              2013-03-05T15:41:32-0500
_audit_creation_method            fapswitch 2.2
_symmetry_space_group_name_H-M    P1
_symmetry_Int_Tables_number       1
_space_group_crystal_system       triclinic
_cell_length_a                    15.818861
_cell_length_b                    8.832235
_cell_length_c                    7.58111
_cell_angle_alpha                 102.072063
_cell_angle_beta                  95.981355
_cell_angle_gamma                 92.889432
_cell_volume                      1027.29605907

loop_
_atom_site_label
_atom_site_type_symbol
_atom_site_description
_atom_site_fract_x
_atom_site_fract_y
_atom_site_fract_z
_atom_type_partial_charge
O1    O     O_R   0.506070 0.286130 0.619780 -0.528082
O2    O     O_R   0.493930 0.713870 0.380220 -0.528143
O3    O     O_R   0.490300 0.256770 0.308360 -0.599581
O4    O     O_R   0.509700 0.743230 0.691640 -0.599269
C1    C     C_R   0.497446 0.200627 0.454392 0.845754
C2    C     C_R   0.502559 0.799373 0.545607 0.845578
O5    O     O_R   0.386960 0.514660 0.655680 -0.551350
O6    O     O_R   0.613040 0.485340 0.344320 -0.551726
O7    O     O_R   0.371190 0.485310 0.344260 -0.619299
O8    O     O_R   0.628810 0.514690 0.655740 -0.619161
C3    C     C_R   0.340331 0.500968 0.499593 0.772234
C4    C     C_R   0.659670 0.499045 0.500408 0.772092
Cu1   Cu    Cu3+1 0.509330 0.517380 0.684380 1.038729
Cu2   Cu    Cu3+1 0.490670 0.482620 0.315620 1.038452
C5    C     C_2   0.496203 0.033500 0.428974 -0.353369
C6    C     C_2   0.503809 0.966501 0.571025 -0.353582
C7    C     C_3   0.976816 0.393531 0.597007 -0.397995
C8    C     C_3   0.023187 0.606509 0.402989 -0.397996
C9    C     C_3   0.023013 0.362242 0.423678 0.399702
C10   C     C_3   0.976989 0.637799 0.576318 0.399708
H1    H     H_    0.953723 0.311305 0.674488 0.214785
H2    H     H_    0.046279 0.688736 0.325508 0.214783
C11   C     C_1   0.250785 0.504957 0.498337 -0.130518
C12   C     C_1   0.749216 0.495073 0.501661 -0.130133
C13   C     C_3   0.037396 0.540540 0.669120 0.317326
C14   C     C_3   0.962607 0.459500 0.330875 0.317337
C15   C     C_3   0.083621 0.507642 0.498635 -0.089170
C16   C     C_3   0.916381 0.492399 0.501361 -0.089222
N1    N     N_2   0.476600 0.456420 0.038510 0.127971
N2    N     N_2   0.523400 0.543580 0.961490 0.128004
H3    H     H_    0.488993 0.964675 0.290757 0.207853
H4    H     H_    0.511021 0.035326 0.709242 0.207692
C17   C     C_1   0.175260 0.507700 0.497333 0.143556
C18   C     C_1   0.824742 0.492338 0.502663 0.143580
O9    O     O_3   0.056218 0.224522 0.341230 -0.552204
C19   C     C_3   0.991250 0.104636 0.299463 0.030276
H5    H     H_    0.938466 0.129481 0.203683 0.176538
H6    H     H_    0.964684 0.085588 0.422947 0.143271
C20   C     C_3   0.029540 0.958355 0.213606 -0.697408
H7    H     H_    0.081589 0.931727 0.309414 0.230756
H8    H     H_    0.978503 0.862734 0.175626 0.245472
H9    H     H_    0.059008 0.975708 0.092892 0.263792
O10   O     O_3   0.943787 0.775521 0.658768 -0.552177
C21   C     C_3   0.008759 0.895402 0.700535 0.030257
H10   H     H_    0.035327 0.914447 0.577052 0.143277
H11   H     H_    0.061540 0.870553 0.796317 0.176516
C22   C     C_3   0.970472 0.041688 0.786389 -0.697360
H12   H     H_    0.941007 0.024343 0.907110 0.263813
H13   H     H_    0.021512 0.137308 0.824359 0.245477
H14   H     H_    0.918422 0.068313 0.690582 0.230754
N3    N     N_R   0.920644 0.411854 0.145976 0.143696
O11   O     O_R   0.965614 0.362770 0.015015 -0.347863
O12   O     O_R   0.838406 0.411987 0.111181 -0.392250
N4    N     N_R   0.079359 0.588183 0.854018 0.143702
O13   O     O_R   0.034393 0.637262 0.984982 -0.347874
O14   O     O_R   0.161595 0.588039 0.888813 -0.392144
O15   O     O_3   0.441673 0.325312 0.924475 -0.483148
C23   C     C_3   0.358980 0.296481 0.968069 0.205346
H15   H     H_    0.323900 0.404051 0.988630 0.174999
H16   H     H_    0.361452 0.246743 0.090964 0.164081
C24   C     C_3   0.309342 0.178116 0.811900 -0.815779
H17   H     H_    0.342067 0.068460 0.787792 0.244283
H18   H     H_    0.244074 0.153018 0.845449 0.218641
H19   H     H_    0.304391 0.224260 0.685929 0.249424
O16   O     O_3   0.558170 0.674856 0.075406 -0.483080
C25   C     C_3   0.640984 0.703537 0.032389 0.205335
H20   H     H_    0.638762 0.752698 0.909099 0.164161
H21   H     H_    0.676101 0.596007 0.012789 0.174836
C26   C     C_3   0.690333 0.822458 0.188398 -0.816579
H22   H     H_    0.694318 0.777550 0.315124 0.249656
H23   H     H_    0.755945 0.846366 0.156107 0.218875
H24   H     H_    0.657987 0.932513 0.210363 0.244092

loop_
_geom_bond_atom_site_label_1
_geom_bond_atom_site_label_2
_geom_bond_distance
_ccdc_geom_bond_type
C26   H24   1.111105 S    
C25   H21   1.115365 S    
O7    Cu2   1.925575 S    
C5    H3    1.087274 S    
N1    N2    1.304716 D    
C6    H4    1.087274 S    
C8    H2    1.096499 S    
C9    C15   1.532445 S    
C4    C12   1.417815 S    
C14   C16   1.533271 S    
C22   H12   1.103932 S    
C8    C14   1.539993 S    
C21   C22   1.506346 S    
O6    C4    1.306968 A    
O10   C21   1.399973 S    
C7    C13   1.539991 S    
C23   C24   1.522158 S    
C19   H6    1.105454 S    
C25   H20   1.108069 S    
N3    O12   1.300276 A    
C16   C18   1.450658 S    
C20   H8    1.108643 S    
C9    O9    1.400351 S    
C14   N3    1.453878 S    
C15   C17   1.450650 S    
C24   H19   1.111164 S    
O5    C3    1.306974 A    
O7    C3    1.304854 A    
N4    O13   1.295331 A    
O15   C23   1.406029 S    
O2    C2    1.311062 A    
O3    Cu2   1.983674 S    
O8    C4    1.304864 A    
C13   N4    1.453878 S    
O1    C1    1.311063 A    
O4    C2    1.301349 A    
C19   H5    1.109660 S    
C7    C9    1.551028 S    
C21   H11   1.109660 S    
C22   H14   1.107758 S    
C8    C10   1.551030 S    
C26   H22   1.110668 S    
C24   H17   1.111587 S    
O2    Cu2   1.994956 S    
N4    O14   1.300249 A    
C1    C5    1.446966 S    
C25   C26   1.522085 S    
C13   C15   1.533267 S    
C10   C13   1.530173 S    
Cu2   N1    2.051942 S    
C2    C6    1.446965 S    
N3    O11   1.295358 A    
N2    O16   1.345568 S    
Cu1   N2    2.051943 S    
O5    Cu1   1.923646 S    
C10   O10   1.400352 S    
O1    Cu1   1.994956 S    
C21   H10   1.105453 S    
C22   H13   1.108651 S    
O16   C25   1.406003 S    
C3    C11   1.417814 S    
O4    Cu1   1.983675 S    
C24   H18   1.111328 S    
C9    C14   1.530174 S    
C20   H9    1.103928 S    
C20   H7    1.107757 S    
O6    Cu2   1.923646 S    
C10   C16   1.532447 S    
C11   C17   1.195457 T    
C23   H15   1.115418 S    
Cu1   Cu2   2.730697 S    
C7    C16   1.551380 S    
C23   H16   1.108098 S    
O8    Cu1   1.925575 S    
C19   C20   1.506347 S    
C12   C18   1.195460 T    
C8    C15   1.551376 S    
C5    C6    1.330820 D    
N1    O15   1.345647 S    
C26   H23   1.110979 S    
O3    C1    1.301349 A    
O9    C19   1.399967 S    
C7    H1    1.096499 S    
