data_mof_unit_53982.cif
_audit_creation_date              2012-12-11T14:44:24-0500
_audit_creation_method            fapswitch 2.2
_symmetry_space_group_name_H-M    P1
_symmetry_Int_Tables_number       1
_space_group_crystal_system       triclinic
_cell_length_a                    24.875514
_cell_length_b                    16.755762
_cell_length_c                    15.627586
_cell_angle_alpha                 90.003006
_cell_angle_beta                  49.755029
_cell_angle_gamma                 90.002668
_cell_volume                      4971.84119658

loop_
_atom_site_label
_atom_site_type_symbol
_atom_type_description
_atom_site_fract_x
_atom_site_fract_y
_atom_site_fract_z
_atom_type_partial_charge
C1    C     C_R   0.353990 0.148732 0.751961 -0.119623
C2    C     C_3   0.752427 0.790496 0.606220 -0.318513
C3    C     C_3   0.366212 0.681348 0.421358 -0.269933
C4    C     C_3   0.928886 0.886680 0.425507 -0.232976
C5    C     C_3   0.079936 0.111216 0.545524 -0.260537
C6    C     C_3   0.070080 0.886234 0.577902 -0.232526
C7    C     C_3   0.920523 0.111515 0.453379 -0.258258
C8    C     C_3   0.748735 0.215594 0.607388 -0.313804
C9    C     C_3   0.247060 0.791274 0.394013 -0.318886
C10   C     C_3   0.803328 0.799965 0.392717 -0.314135
C11   C     C_3   0.192929 0.191362 0.608122 -0.312141
C12   C     C_3   0.197129 0.798991 0.607077 -0.314423
C13   C     C_3   0.806971 0.191615 0.391872 -0.312266
C14   C     C_2   0.636209 0.268356 0.159527 -0.209887
C15   C     C_2   0.363717 0.731759 0.840781 -0.213757
C16   C     C_2   0.363799 0.268365 0.840466 -0.209999
C17   C     C_R   0.646091 0.851338 0.247785 -0.118302
C18   C     C_2   0.636271 0.731744 0.159243 -0.214273
C19   C     C_2   0.197137 0.648224 0.013300 -0.217076
C20   C     C_2   0.802903 0.351708 0.986673 -0.217584
C21   C     C_2   0.802857 0.648224 0.986708 -0.217092
C22   C     C_2   0.197102 0.351707 0.013320 -0.217564
C23   C     C_2   0.686575 0.310104 0.147624 -0.120707
C24   C     C_2   0.313456 0.689922 0.852491 -0.119371
C25   C     C_2   0.313433 0.310109 0.852369 -0.120662
C26   C     C_2   0.686536 0.689914 0.147523 -0.119280
C27   C     C_2   0.266858 0.640293 0.951668 -0.109148
C28   C     C_R   0.646015 0.148729 0.248033 -0.119710
C29   C     C_2   0.733179 0.359664 0.048359 -0.108815
C30   C     C_2   0.733137 0.640290 0.048337 -0.109167
C31   C     C_2   0.266826 0.359667 0.951639 -0.108793
C32   C     C_R   0.615411 0.106790 0.591726 -0.091760
C33   C     C_R   0.384836 0.892320 0.408260 -0.101228
C34   C     C_R   0.384593 0.106789 0.408269 -0.091459
C35   C     C_R   0.615193 0.892413 0.591730 -0.100175
C36   C     C_R   0.086206 0.649729 0.592590 -0.125619
C37   C     C_R   0.913296 0.350571 0.407438 -0.125045
C38   C     C_R   0.913723 0.649682 0.407416 -0.125385
C39   C     C_R   0.353898 0.851345 0.752239 -0.118324
C40   C     C_R   0.086716 0.350580 0.592557 -0.124843
C41   C     C_R   0.690082 0.106069 0.405502 -0.173007
C42   C     C_R   0.310306 0.892430 0.594556 -0.168011
C43   C     C_R   0.309913 0.106047 0.594494 -0.173189
C44   C     C_R   0.689733 0.892579 0.405440 -0.168599
C45   C     C_R   0.162609 0.647868 0.405721 -0.117085
C46   C     C_R   0.836899 0.352495 0.594442 -0.119898
C47   C     C_R   0.837315 0.647812 0.594307 -0.117478
C48   C     C_R   0.163112 0.352503 0.405552 -0.120256
C49   C     C_R   0.557187 0.145234 0.245680 -0.148148
C50   C     C_R   0.833252 0.610965 0.802751 -0.134107
C51   C     C_R   0.442762 0.854836 0.754484 -0.150955
C52   C     C_R   0.442816 0.145239 0.754316 -0.148258
C53   C     C_R   0.557236 0.854829 0.245521 -0.151340
C54   C     C_R   0.078295 0.607412 0.195801 -0.145891
C55   C     C_R   0.921732 0.392540 0.804158 -0.145971
C56   C     C_R   0.921701 0.607410 0.804206 -0.146036
C57   C     C_R   0.078270 0.392538 0.195837 -0.146027
C58   C     C_R   0.387184 0.191634 0.781896 0.141006
C59   C     C_R   0.612900 0.808463 0.217827 0.141699
C60   C     C_R   0.612823 0.191628 0.218097 0.141010
C61   C     C_R   0.166739 0.389012 0.197251 -0.132914
C62   C     C_R   0.387091 0.808474 0.782193 0.141584
C63   C     C_R   0.851442 0.627228 0.867610 0.154518
C64   C     C_R   0.148531 0.372715 0.132421 0.154500
C65   C     C_R   0.148556 0.627227 0.132395 0.154560
C66   C     C_R   0.851471 0.372717 0.867575 0.154505
C67   C     C_R   0.682919 0.123378 0.497804 0.109309
C68   C     C_R   0.317686 0.874294 0.502208 0.105261
C69   C     C_R   0.317081 0.123355 0.502189 0.109428
C70   C     C_R   0.682378 0.874529 0.497777 0.105681
C71   C     C_R   0.136867 0.693476 0.498433 0.078741
C72   C     C_R   0.166748 0.610962 0.197247 -0.134045
C73   C     C_R   0.862149 0.307229 0.501738 0.082550
C74   C     C_R   0.862991 0.693369 0.501597 0.079263
C75   C     C_R   0.137876 0.307244 0.498253 0.082826
C76   C     C_3   0.282104 0.241997 0.447164 0.759560
C77   C     C_3   0.715970 0.760093 0.562501 0.757552
C78   C     C_3   0.717836 0.241887 0.553172 0.759477
C79   C     C_3   0.284192 0.760412 0.436395 0.757287
C80   C     C_3   0.840364 0.829943 0.436135 0.765053
C81   C     C_3   0.161564 0.165706 0.553706 0.770804
C82   C     C_3   0.159431 0.829438 0.565006 0.764604
C83   C     C_R   0.833261 0.389014 0.802749 -0.132915
C84   C     C_3   0.838536 0.165824 0.445920 0.770521
C85   C     C_3   0.771756 0.869649 0.539384 -0.360545
C86   C     C_3   0.233522 0.132463 0.449413 -0.368760
C87   C     C_3   0.227625 0.869885 0.461957 -0.359867
C88   C     C_3   0.766691 0.132347 0.550195 -0.368009
C89   C     C_3   0.211339 0.274022 0.551210 -0.378157
C90   C     C_3   0.783452 0.721632 0.459558 -0.372261
C91   C     C_3   0.788489 0.274141 0.449144 -0.377843
C92   C     C_3   0.217117 0.721209 0.539137 -0.371671
C93   C     C_3   0.734703 0.837390 0.497235 -0.025974
C94   C     C_3   0.251407 0.215840 0.392585 -0.313426
C95   C     C_3   0.264831 0.160532 0.502704 -0.027506
C96   C     C_3   0.265346 0.837176 0.502743 -0.025783
C97   C     C_3   0.735178 0.160550 0.497280 -0.027471
C98   C     C_3   0.179479 0.247192 0.497913 -0.037437
C99   C     C_3   0.821050 0.752716 0.501746 -0.038602
C100  C     C_3   0.820550 0.247177 0.502071 -0.037657
C101  C     C_3   0.178848 0.752750 0.498310 -0.038575
C102  C     C_3   0.355484 0.320515 0.454738 -0.266567
C103  C     C_3   0.634809 0.681055 0.575129 -0.269293
C104  C     C_3   0.644170 0.320430 0.546304 -0.266528
H1    H     H_    0.307945 0.165084 0.762837 0.091941
H2    H     H_    0.405400 0.893261 0.322570 0.111678
H3    H     H_    0.405323 0.106042 0.322484 0.103586
H4    H     H_    0.594615 0.893330 0.677429 0.110802
H5    H     H_    0.058593 0.665524 0.679038 0.119291
H6    H     H_    0.940974 0.334745 0.320976 0.115509
H7    H     H_    0.941337 0.665476 0.320968 0.118882
H8    H     H_    0.059037 0.334757 0.679019 0.115393
H9    H     H_    0.738163 0.104636 0.319002 0.106705
H10   H     H_    0.262157 0.893707 0.681004 0.107258
H11   H     H_    0.261832 0.104614 0.680993 0.106721
H12   H     H_    0.692221 0.835009 0.236656 0.091870
H13   H     H_    0.737872 0.893871 0.318984 0.107193
H14   H     H_    0.205631 0.662154 0.319018 0.102704
H15   H     H_    0.794054 0.338283 0.681230 0.100574
H16   H     H_    0.794304 0.662080 0.681020 0.102461
H17   H     H_    0.205953 0.338293 0.318762 0.100548
H18   H     H_    0.520501 0.160946 0.233341 0.117483
H19   H     H_    0.479422 0.839147 0.766884 0.118602
H20   H     H_    0.479505 0.160955 0.766653 0.117539
H21   H     H_    0.520581 0.839136 0.233109 0.118595
H22   H     H_    0.050208 0.602267 0.164717 0.093063
H23   H     H_    0.692062 0.165082 0.237153 0.091952
H24   H     H_    0.949833 0.397662 0.835220 0.092207
H25   H     H_    0.949784 0.602262 0.835296 0.093166
H26   H     H_    0.050170 0.397660 0.164773 0.092238
H27   H     H_    0.766130 0.930943 0.570940 0.147467
H28   H     H_    0.243583 0.073892 0.408435 0.144981
H29   H     H_    0.232747 0.931452 0.431526 0.147788
H30   H     H_    0.756816 0.073668 0.590827 0.145035
H31   H     H_    0.201951 0.332246 0.592877 0.149341
H32   H     H_    0.788678 0.660714 0.426865 0.150283
H33   H     H_    0.797723 0.332463 0.407780 0.149369
H34   H     H_    0.307758 0.835018 0.763396 0.091900
H35   H     H_    0.212369 0.660015 0.570749 0.150392
H36   H     H_    0.275569 0.226672 0.304123 0.149732
H37   H     H_    0.731693 0.785556 0.693736 0.150874
H38   H     H_    0.724681 0.226226 0.695839 0.149778
H39   H     H_    0.267363 0.787025 0.306687 0.150989
H40   H     H_    0.824326 0.804951 0.305057 0.150791
H41   H     H_    0.168897 0.180010 0.696421 0.151971
H42   H     H_    0.176530 0.803233 0.694573 0.150625
H43   H     H_    0.830911 0.180477 0.303572 0.151908
H44   H     H_    0.296577 0.705579 0.805635 0.126825
H45   H     H_    0.780745 0.608686 0.830343 0.085589
H46   H     H_    0.703514 0.294410 0.194384 0.125882
H47   H     H_    0.703418 0.705577 0.194375 0.126742
H48   H     H_    0.296496 0.294410 0.805606 0.125850
H49   H     H_    0.711197 0.389297 0.015312 0.127507
H50   H     H_    0.288825 0.610659 0.984738 0.127743
H51   H     H_    0.288805 0.389303 0.984692 0.127508
H52   H     H_    0.711172 0.610654 0.015261 0.127701
H53   H     H_    0.379876 0.716058 0.888757 0.137980
H54   H     H_    0.620002 0.284097 0.111628 0.137206
H55   H     H_    0.620108 0.716035 0.111271 0.137862
H56   H     H_    0.219255 0.391307 0.169621 0.084868
H57   H     H_    0.380005 0.284111 0.888366 0.137214
H58   H     H_    0.824216 0.321704 0.020745 0.132260
H59   H     H_    0.175841 0.678235 0.979206 0.132956
H60   H     H_    0.175791 0.321700 0.979242 0.132273
H61   H     H_    0.824152 0.678235 0.020807 0.132950
H62   H     H_    0.341351 0.282551 0.525118 0.136096
H63   H     H_    0.323111 0.375751 0.487486 0.140908
H64   H     H_    0.411308 0.338572 0.405258 0.178267
H65   H     H_    0.664787 0.624138 0.546318 0.143638
H66   H     H_    0.647266 0.714624 0.502765 0.136911
H67   H     H_    0.219256 0.608683 0.169653 0.085616
H68   H     H_    0.577967 0.665881 0.631544 0.178234
H69   H     H_    0.658257 0.282615 0.475833 0.136085
H70   H     H_    0.676453 0.375735 0.513699 0.141029
H71   H     H_    0.588301 0.338383 0.596034 0.178278
H72   H     H_    0.336515 0.624249 0.449632 0.143970
H73   H     H_    0.353966 0.714354 0.493933 0.137084
H74   H     H_    0.423143 0.666544 0.364170 0.178180
H75   H     H_    0.936758 0.833066 0.458122 0.129156
H76   H     H_    0.890761 0.928205 0.495212 0.125721
H77   H     H_    0.980187 0.918097 0.368647 0.172743
H78   H     H_    0.780744 0.391307 0.830382 0.084870
H79   H     H_    0.121603 0.075096 0.471053 0.122854
H80   H     H_    0.070972 0.167607 0.518988 0.139760
H81   H     H_    0.030339 0.076349 0.593685 0.167765
H82   H     H_    0.061968 0.832860 0.545236 0.129001
H83   H     H_    0.107892 0.928032 0.508375 0.126201
H84   H     H_    0.018768 0.917527 0.635604 0.173283
H85   H     H_    0.878912 0.075545 0.528094 0.122492
H86   H     H_    0.929730 0.167937 0.479521 0.139241
H87   H     H_    0.970067 0.076542 0.405048 0.167895
H88   H     H_    0.594687 0.106036 0.677508 0.103794
N1    N     N_R   0.389620 0.081040 0.705440 -0.044965
N2    N     N_R   0.417680 0.920160 0.443370 -0.048558
N3    N     N_R   0.417680 0.079840 0.443370 -0.048352
N4    N     N_R   0.582320 0.920160 0.556630 -0.048572
N5    N     N_R   0.082320 0.579840 0.556630 -0.047979
N6    N     N_R   0.917680 0.420160 0.443370 -0.047593
N7    N     N_R   0.917680 0.579840 0.443370 -0.047968
N8    N     N_R   0.082320 0.420160 0.556630 -0.047611
N9    N     N_R   0.627920 0.078930 0.443400 -0.039816
N10   N     N_R   0.372080 0.921070 0.556600 -0.039919
N11   N     N_R   0.372080 0.078930 0.556600 -0.039815
N12   N     N_R   0.610380 0.918960 0.294560 -0.045100
N13   N     N_R   0.627920 0.921070 0.443400 -0.039920
N14   N     N_R   0.127920 0.578930 0.443400 -0.043930
N15   N     N_R   0.872080 0.421070 0.556600 -0.043407
N16   N     N_R   0.872080 0.578930 0.556600 -0.043853
N17   N     N_R   0.127920 0.421070 0.443400 -0.043394
N18   N     N_R   0.555090 0.077730 0.294590 -0.045123
N19   N     N_R   0.444910 0.922270 0.705410 -0.044768
N20   N     N_R   0.444910 0.077730 0.705410 -0.045115
N21   N     N_R   0.555090 0.922270 0.294590 -0.044694
N22   N     N_R   0.055090 0.577730 0.294590 -0.040898
N23   N     N_R   0.610380 0.081040 0.294560 -0.044969
N24   N     N_R   0.944910 0.422270 0.705410 -0.040638
N25   N     N_R   0.944910 0.577730 0.705410 -0.040918
N26   N     N_R   0.055090 0.422270 0.294590 -0.040656
N27   N     N_R   0.389620 0.918960 0.705440 -0.045117
N28   N     N_R   0.889620 0.581040 0.705440 -0.043722
N29   N     N_R   0.110380 0.418960 0.294560 -0.043619
N30   N     N_R   0.110380 0.581040 0.294560 -0.043726
N31   N     N_R   0.889620 0.418960 0.705440 -0.043623
N32   N     N_R   0.582320 0.079840 0.556630 -0.048373
Ni1   Ni    Ni4+2 0.382970 0.000000 0.629840 0.213737
Ni2   Ni    Ni4+2 0.617030 0.000000 0.370160 0.213679
Ni3   Ni    Ni4+2 0.882970 0.500000 0.629840 0.210248
Ni4   Ni    Ni4+2 0.117030 0.500000 0.370160 0.210214
Ni5   Ni    Ni4+2 0.514540 0.000000 0.629840 0.206518
Ni6   Ni    Ni4+2 0.485460 0.000000 0.370160 0.206532
Ni7   Ni    Ni4+2 0.014540 0.500000 0.629840 0.201689
Ni8   Ni    Ni4+2 0.985460 0.500000 0.370160 0.201702
O1    O     O_3   0.348715 0.279449 0.383449 -0.626539
O2    O     O_3   0.647777 0.726382 0.636087 -0.627782
O3    O     O_3   0.651157 0.279212 0.617244 -0.626584
O4    O     O_3   0.352528 0.727179 0.361689 -0.627983
O5    O     O_3   0.907757 0.865320 0.363919 -0.610614
O6    O     O_3   0.095989 0.126435 0.615509 -0.608256
O7    O     O_3   0.091892 0.864370 0.638373 -0.611105
O8    O     O_3   0.904174 0.126656 0.383766 -0.608109

loop_
_geom_bond_atom_site_label_1
_geom_bond_atom_site_label_2
_ccdc_geom_bond_type
C45   H14   S    
C25   C31   S    
C73   C100  S    
C42   C68   A    
C45   N14   A    
C89   H31   S    
C45   C71   A    
C94   H36   S    
N2    Ni6   S    
C18   C26   D    
C24   C27   S    
C5    H81   S    
N22   Ni8   S    
C9    H39   S    
C18   C59   S    
C41   C67   A    
C54   C65   A    
C85   H27   S    
C11   C81   S    
N25   N28   A    
C48   N17   A    
C54   H22   S    
C13   C84   S    
C102  H63   S    
C49   C60   A    
C47   N16   A    
C14   H54   S    
C25   H48   S    
C34   H3    S    
C23   C29   S    
C20   C66   S    
C26   H47   S    
C3    H74   S    
C79   O4    S    
C15   H53   S    
N5    Ni7   S    
N16   Ni3   S    
N6    Ni8   S    
N3    N11   A    
C81   C98   S    
C94   C98   S    
N18   N23   A    
N2    N10   A    
C46   H15   S    
C6    H84   S    
C21   C30   D    
C16   C25   D    
N24   Ni7   S    
C21   H61   S    
C81   O6    S    
C32   H88   S    
C2    C85   S    
C9    C79   S    
C12   H42   S    
N4    N13   A    
C87   H29   S    
N7    N16   A    
C18   H55   S    
C86   C94   S    
C43   H11   S    
C66   C83   A    
C91   H33   S    
C85   C93   S    
C42   H10   S    
C104  O3    S    
C35   C70   A    
C78   O3    S    
C49   N18   A    
N6    N15   A    
C103  H66   S    
C102  H64   S    
C4    O5    S    
C7    H86   S    
C44   C70   A    
C76   O1    S    
C35   H4    S    
N8    Ni7   S    
C91   C100  S    
N10   Ni1   S    
C19   C27   D    
C5    H80   S    
C56   H25   S    
C28   H23   S    
C76   C89   S    
C53   H21   S    
C83   N31   A    
C28   N23   A    
C30   H52   S    
C71   C101  S    
C39   H34   S    
C72   N30   A    
C43   C69   A    
C9    C101  S    
C13   C91   S    
C8    C78   S    
C50   C63   A    
C48   C75   A    
C7    H87   S    
N5    N14   A    
C84   O8    S    
C51   C62   A    
N28   Ni3   S    
C4    H76   S    
C56   N25   A    
C32   N32   A    
C104  H71   S    
C20   C29   D    
C28   C60   A    
C53   C59   A    
N9    Ni2   S    
C77   C90   S    
C21   C63   S    
C5    O6    S    
C17   H12   S    
C84   C100  S    
C72   H67   S    
C57   H26   S    
C70   C93   S    
C51   H19   S    
C36   N5    A    
C40   H8    S    
C24   H44   S    
C61   H56   S    
C55   N24   A    
C10   C80   S    
C11   H41   S    
N1    N20   A    
C10   H40   S    
C40   N8    A    
C10   C93   S    
C19   H59   S    
C22   C64   S    
N12   N21   A    
C75   C98   S    
C102  O1    S    
N3    Ni6   S    
N4    Ni5   S    
C8    C88   S    
C14   C23   D    
C17   N12   A    
C1    N1    A    
N7    Ni8   S    
C80   C85   S    
C3    O4    S    
C22   H60   S    
C11   C89   S    
C31   H51   S    
N29   Ni4   S    
N30   Ni4   S    
C16   H57   S    
C20   H58   S    
C82   O7    S    
C78   C97   S    
N18   Ni6   S    
C56   C63   A    
C12   C82   S    
N13   Ni2   S    
C68   C96   S    
C37   N6    A    
N27   Ni1   S    
C34   C69   A    
N26   Ni8   S    
C79   C92   S    
C74   C99   S    
C52   C58   A    
C92   C101  S    
C17   C59   A    
C32   C67   A    
C35   N4    A    
N15   Ni3   S    
C47   H16   S    
N17   Ni4   S    
C23   H46   S    
C33   N2    A    
C26   C30   S    
C103  O2    S    
C80   C99   S    
C43   N11   A    
C103  H68   S    
C4    H77   S    
C42   N10   A    
N22   N30   A    
C37   H6    S    
C13   H43   S    
C4    H75   S    
N12   Ni2   S    
C36   H5    S    
C90   C99   S    
C48   H17   S    
C55   C66   A    
N19   N27   A    
C77   C93   S    
C57   C64   A    
C29   H49   S    
C38   C74   A    
C11   C95   S    
N26   N29   A    
C54   N22   A    
C39   C62   A    
C37   C73   A    
C15   C24   D    
C53   N21   A    
N19   Ni5   S    
C22   C31   D    
C12   C92   S    
C7    H85   S    
C33   H2    S    
C84   C88   S    
C47   C74   A    
C41   H9    S    
C69   C95   S    
N11   Ni1   S    
C16   C58   S    
C2    C99   S    
C104  H70   S    
C36   C71   A    
C87   C96   S    
C82   C101  S    
C104  H69   S    
C7    O8    S    
C76   C94   S    
C78   C91   S    
C65   C72   A    
C14   C60   S    
C6    O7    S    
C6    H82   S    
C44   N13   A    
N8    N17   A    
C40   C75   A    
C89   C98   S    
C81   C86   S    
N23   Ni2   S    
C3    H73   S    
C88   C97   S    
N1    Ni1   S    
C79   C96   S    
C76   C95   S    
C34   N3    A    
N32   Ni5   S    
N25   Ni7   S    
C61   C64   A    
N14   Ni4   S    
N20   Ni5   S    
C52   H20   S    
C50   H45   S    
C86   H28   S    
C8    C100  S    
C44   H13   S    
C27   H50   S    
C49   H18   S    
C6    H83   S    
C50   N28   A    
C77   O2    S    
C15   C62   S    
C90   H32   S    
C19   C65   S    
N31   Ni3   S    
C13   C97   S    
C61   N29   A    
N24   N31   A    
C86   C95   S    
C67   C97   S    
C88   H30   S    
C51   N19   A    
C3    H72   S    
C10   C90   S    
C55   H24   S    
C83   H78   S    
C80   O5    S    
C102  H62   S    
C57   N26   A    
C39   N27   A    
C52   N20   A    
C2    H37   S    
C2    C77   S    
C38   N7    A    
C12   C96   S    
C103  H65   S    
C8    H38   S    
C46   N15   A    
N9    N32   A    
C38   H7    S    
C1    C58   A    
C92   H35   S    
C41   N9    A    
C5    H79   S    
C46   C73   A    
C9    C87   S    
N21   Ni6   S    
C82   C87   S    
C33   C68   A    
C1    H1    S    
