data_mof_unit_63427.cif
_audit_creation_date              2012-12-10T18:25:30-0500
_audit_creation_method            fapswitch 2.2
_symmetry_space_group_name_H-M    P1
_symmetry_Int_Tables_number       1
_space_group_crystal_system       triclinic
_cell_length_a                    25.782608
_cell_length_b                    25.812331
_cell_length_c                    18.229805
_cell_angle_alpha                 90.071246
_cell_angle_beta                  135.072263
_cell_angle_gamma                 89.876649
_cell_volume                      8567.84537777

loop_
_atom_site_label
_atom_site_type_symbol
_atom_type_description
_atom_site_fract_x
_atom_site_fract_y
_atom_site_fract_z
_atom_type_partial_charge
C1    C     C_R   0.108198 0.249384 0.498799 0.562108
C2    C     C_3   0.450677 0.750439 0.898439 0.076173
C3    C     C_R   0.750072 0.391303 0.500205 0.509257
C4    C     C_R   0.109110 0.250230 0.217625 0.508866
C5    C     C_R   0.109039 0.749872 0.217676 0.511266
C6    C     C_R   0.609113 0.750233 0.217625 0.508765
C7    C     C_R   0.609040 0.249870 0.217675 0.511153
C8    C     C_R   0.391729 0.249675 0.782490 0.621409
C9    C     C_R   0.391814 0.750370 0.782545 0.623339
C10   C     C_R   0.891729 0.749676 0.782491 0.621591
C11   C     C_R   0.891814 0.250369 0.782546 0.623518
C12   C     C_3   0.481768 0.192634 0.942093 0.336756
C13   C     C_3   0.950532 0.749681 0.898418 0.077593
C14   C     C_3   0.479851 0.807775 0.941990 0.336956
C15   C     C_3   0.981781 0.692640 0.942098 0.336921
C16   C     C_3   0.979885 0.307765 0.941995 0.337090
C17   C     C_3   0.547673 0.195449 0.061838 -0.174428
C18   C     C_3   0.545918 0.805173 0.061714 -0.176419
C19   C     C_3   0.047666 0.695452 0.061846 -0.174533
C20   C     C_3   0.045936 0.305162 0.061720 -0.176527
C21   C     C_3   0.416893 0.267361 0.940274 0.065938
C22   C     C_3   0.417746 0.731107 0.940368 0.064114
C23   C     C_3   0.916889 0.767350 0.940274 0.065941
C24   C     C_3   0.950677 0.250435 0.898440 0.075970
C25   C     C_3   0.917732 0.231135 0.940366 0.064109
C26   C     C_3   0.347331 0.411828 0.445351 -0.013048
C27   C     C_3   0.409716 0.544933 0.539505 0.051004
C28   C     C_3   0.847386 0.911839 0.445417 -0.013076
C29   C     C_3   0.909754 0.044935 0.539586 0.051049
C30   C     C_3   0.137234 0.415844 0.515476 -0.021233
C31   C     C_3   0.056752 0.556269 0.382028 0.049642
C32   C     C_3   0.637168 0.915848 0.515369 -0.021148
C33   C     C_3   0.556725 0.056268 0.381937 0.049702
C34   C     C_3   0.534101 0.376038 0.921295 0.016733
C35   C     C_3   0.552002 0.249770 0.102343 -0.112058
C36   C     C_3   0.538982 0.626432 0.921591 0.020320
C37   C     C_3   0.034061 0.876062 0.921299 0.016733
C38   C     C_3   0.038912 0.126375 0.921624 0.020294
C39   C     C_3   0.552184 0.750404 0.102329 -0.109971
C40   C     C_3   0.052000 0.749773 0.102345 -0.112062
C41   C     C_3   0.052180 0.250399 0.102331 -0.109939
C42   C     C_3   0.476630 0.265063 0.060359 -0.222074
C43   C     C_3   0.477413 0.733457 0.060422 -0.223960
C44   C     C_3   0.976631 0.765071 0.060360 -0.222080
C45   C     C_R   0.108384 0.750520 0.499163 0.570364
C46   C     C_3   0.977402 0.233473 0.060421 -0.223940
C47   C     C_3   0.571619 0.289623 0.061697 -0.193959
C48   C     C_3   0.573292 0.711851 0.061770 -0.194999
C49   C     C_3   0.071622 0.789619 0.061699 -0.194013
C50   C     C_3   0.073275 0.211831 0.061773 -0.195066
C51   C     C_3   0.517700 0.279396 0.595663 -0.231470
C52   C     C_3   0.513816 0.714738 0.587546 -0.234860
C53   C     C_3   0.017713 0.779374 0.595685 -0.231439
C54   C     C_3   0.013826 0.214753 0.587561 -0.234778
C55   C     C_3   0.574092 0.284782 0.589854 0.055125
C56   C     C_R   0.608198 0.749383 0.498797 0.562443
C57   C     C_3   0.569398 0.709551 0.580081 0.056425
C58   C     C_3   0.074085 0.784785 0.589842 0.055179
C59   C     C_3   0.069392 0.209549 0.580069 0.056590
C60   C     C_3   0.419473 0.278131 0.399566 0.089802
C61   C     C_3   0.416613 0.726440 0.393185 0.091451
C62   C     C_3   0.919484 0.778142 0.399585 0.089792
C63   C     C_3   0.916619 0.226429 0.393194 0.091442
C64   C     C_3   0.471449 0.193262 0.502231 0.119984
C65   C     C_3   0.476549 0.805540 0.513042 0.127007
C66   C     C_3   0.971425 0.693256 0.502183 0.120033
C67   C     C_R   0.608383 0.250523 0.499159 0.570708
C68   C     C_3   0.976526 0.305546 0.512994 0.126960
C69   C     C_3   0.448331 0.249909 0.498936 -0.034481
C70   C     C_3   0.447772 0.749355 0.497844 -0.036003
C71   C     C_3   0.948331 0.749904 0.498937 -0.034291
C72   C     C_3   0.947770 0.249358 0.497841 -0.035843
C73   C     C_R   0.390923 0.250172 0.499570 0.573038
C74   C     C_R   0.390502 0.749332 0.498733 0.583699
C75   C     C_R   0.890924 0.750170 0.499572 0.573051
C76   C     C_R   0.890502 0.249333 0.498734 0.583682
C77   C     C_3   0.550384 0.250621 0.498770 -0.006629
C78   C     C_3   0.515042 0.288983 0.941655 0.424028
C79   C     C_3   0.549980 0.749049 0.497971 0.002020
C80   C     C_3   0.050384 0.750615 0.498772 -0.006710
C81   C     C_3   0.049979 0.249052 0.497970 0.001935
C82   C     C_3   0.476603 0.272620 0.393358 0.097979
C83   C     C_3   0.474000 0.733479 0.387852 0.097585
C84   C     C_3   0.976599 0.772606 0.393352 0.097934
C85   C     C_3   0.973998 0.233485 0.387848 0.097539
C86   C     C_3   0.537128 0.193967 0.513074 0.091666
C87   C     C_3   0.543234 0.804231 0.526152 0.078625
C88   C     C_3   0.037137 0.693962 0.513097 0.091862
C89   C     C_3   0.516598 0.712507 0.941710 0.421206
C90   C     C_3   0.043234 0.304234 0.526158 0.078793
C91   C     C_3   0.180881 0.030090 0.470049 -0.229712
C92   C     C_3   0.180889 0.970177 0.470110 -0.231432
C93   C     C_3   0.750187 0.529821 0.580478 -0.218528
C94   C     C_3   0.750193 0.470320 0.580526 -0.218021
C95   C     C_3   0.319387 0.029923 0.608808 -0.216784
C96   C     C_3   0.319384 0.969991 0.608855 -0.216404
C97   C     C_3   0.819395 0.529833 0.530219 -0.222209
C98   C     C_3   0.819402 0.469906 0.530277 -0.222789
C99   C     C_3   0.250212 0.029676 0.419970 -0.230017
C100  C     C_3   0.015032 0.788995 0.941656 0.423957
C101  C     C_3   0.250211 0.970186 0.420011 -0.229284
C102  C     C_3   0.680893 0.529997 0.391574 -0.236093
C103  C     C_3   0.680889 0.470090 0.391623 -0.236201
C104  C     C_3   0.250143 0.050913 0.499706 0.025593
C105  C     C_3   0.250145 0.949097 0.499787 0.026838
C106  C     C_3   0.750143 0.550904 0.500577 0.025341
C107  C     C_3   0.750146 0.449088 0.500659 0.026421
C108  C     C_3   0.247183 0.449130 0.499718 -0.034408
C109  C     C_3   0.248452 0.551011 0.500700 -0.017273
C110  C     C_3   0.747182 0.949130 0.499710 -0.034399
C111  C     C_3   0.016575 0.212476 0.941712 0.421149
C112  C     C_3   0.748450 0.051011 0.500693 -0.017266
C113  C     C_3   0.275291 0.469642 0.449985 0.429251
C114  C     C_3   0.289470 0.530231 0.470466 0.433115
C115  C     C_3   0.775315 0.969641 0.450010 0.429270
C116  C     C_3   0.789492 0.030231 0.470493 0.433129
C117  C     C_3   0.165991 0.470785 0.439647 0.390716
C118  C     C_3   0.165188 0.531373 0.423902 0.414923
C119  C     C_3   0.665982 0.970785 0.439603 0.390706
C120  C     C_3   0.665183 0.031372 0.423865 0.414927
C121  C     C_R   0.249410 0.391247 0.500913 0.543141
C122  C     C_3   0.450532 0.249679 0.898416 0.077786
C123  C     C_R   0.249833 0.608868 0.501945 0.626618
C124  C     C_R   0.749410 0.891247 0.500910 0.543167
C125  C     C_R   0.749832 0.108868 0.501942 0.626623
C126  C     C_3   0.300189 0.469939 0.615054 0.108314
C127  C     C_3   0.289387 0.529506 0.612130 0.105328
C128  C     C_3   0.800167 0.969939 0.615044 0.108304
C129  C     C_3   0.789363 0.029506 0.612114 0.105325
C130  C     C_R   0.250068 0.108697 0.499951 0.512070
C131  C     C_R   0.250071 0.891306 0.500013 0.508464
C132  C     C_R   0.750067 0.608694 0.500141 0.512939
Cl1   Cl    Cl    0.414448 0.149279 0.913390 -0.479137
Cl2   Cl    Cl    0.572531 0.643429 0.551480 -0.610665
Cl3   Cl    Cl    0.085022 0.852295 0.577917 -0.588367
Cl4   Cl    Cl    0.072481 0.143427 0.551414 -0.610390
Cl5   Cl    Cl    0.508451 0.160024 0.885838 -0.371094
Cl6   Cl    Cl    0.505195 0.842081 0.885523 -0.372244
Cl7   Cl    Cl    0.008511 0.660057 0.885888 -0.368399
Cl8   Cl    Cl    0.005284 0.342028 0.885566 -0.369331
Cl9   Cl    Cl    0.487784 0.154084 0.598889 -0.443955
Cl10  Cl    Cl    0.494688 0.840072 0.615399 -0.433730
Cl11  Cl    Cl    0.987674 0.654027 0.598723 -0.446684
Cl12  Cl    Cl    0.411071 0.849466 0.913462 -0.467033
Cl13  Cl    Cl    0.994597 0.340128 0.615259 -0.436058
Cl14  Cl    Cl    0.620676 0.165712 0.632023 -0.441275
Cl15  Cl    Cl    0.629029 0.823887 0.653150 -0.500923
Cl16  Cl    Cl    0.120673 0.665735 0.632102 -0.441327
Cl17  Cl    Cl    0.129013 0.323871 0.653188 -0.500882
Cl18  Cl    Cl    0.327499 0.259907 0.281107 -0.480085
Cl19  Cl    Cl    0.325953 0.749112 0.278164 -0.455248
Cl20  Cl    Cl    0.827489 0.759964 0.281117 -0.480001
Cl21  Cl    Cl    0.825943 0.249071 0.278159 -0.455077
Cl22  Cl    Cl    0.443281 0.235049 0.283233 -0.501955
Cl23  Cl    Cl    0.914458 0.649267 0.913350 -0.479747
Cl24  Cl    Cl    0.444171 0.778440 0.288053 -0.478271
Cl25  Cl    Cl    0.943259 0.735002 0.283250 -0.502098
Cl26  Cl    Cl    0.944158 0.278463 0.288066 -0.478347
Cl27  Cl    Cl    0.395454 0.451422 0.700570 -0.435011
Cl28  Cl    Cl    0.371580 0.562940 0.722978 -0.410276
Cl29  Cl    Cl    0.895437 0.951423 0.700594 -0.435044
Cl30  Cl    Cl    0.871546 0.062941 0.722976 -0.410334
Cl31  Cl    Cl    0.205818 0.455655 0.310346 -0.429057
Cl32  Cl    Cl    0.259021 0.566210 0.358407 -0.479578
Cl33  Cl    Cl    0.705865 0.955654 0.310370 -0.429297
Cl34  Cl    Cl    0.911119 0.349493 0.913430 -0.467847
Cl35  Cl    Cl    0.759066 0.066210 0.358447 -0.479775
Cl36  Cl    Cl    0.088685 0.441638 0.312485 -0.413847
Cl37  Cl    Cl    0.113407 0.549970 0.289799 -0.380903
Cl38  Cl    Cl    0.588693 0.941638 0.312429 -0.413791
Cl39  Cl    Cl    0.613427 0.049973 0.289772 -0.380944
Cl40  Cl    Cl    0.560833 0.269183 0.903207 -0.482274
Cl41  Cl    Cl    0.561268 0.734312 0.902677 -0.481052
Cl42  Cl    Cl    0.060809 0.769227 0.903172 -0.482381
Cl43  Cl    Cl    0.061253 0.234230 0.902662 -0.481123
Cl44  Cl    Cl    0.372040 0.329454 0.894023 -0.457917
Cl45  Cl    Cl    0.375264 0.668336 0.894421 -0.428147
Cl46  Cl    Cl    0.871990 0.829427 0.893983 -0.457804
Cl47  Cl    Cl    0.875195 0.168381 0.894394 -0.428071
Cl48  Cl    Cl    0.585093 0.352288 0.578005 -0.589325
H1    H     H_    0.573550 0.328772 0.089341 0.153056
H2    H     H_    0.494432 0.675690 0.585168 0.177278
H3    H     H_    0.033295 0.518215 0.343108 0.195179
H4    H     H_    0.032552 0.587587 0.323740 0.179562
H5    H     H_    0.040423 0.563976 0.423292 0.156697
H6    H     H_    0.687562 0.891986 0.570657 0.136403
H7    H     H_    0.593460 0.895458 0.440883 0.196289
H8    H     H_    0.615858 0.920490 0.550619 0.201219
H9    H     H_    0.533268 0.018223 0.342975 0.195186
H10   H     H_    0.532539 0.087602 0.323684 0.179556
H11   H     H_    0.540378 0.063949 0.423185 0.156757
H12   H     H_    0.518883 0.415216 0.925995 0.182520
H13   H     H_    0.002516 0.818378 0.601705 0.188171
H14   H     H_    0.528804 0.375977 0.855313 0.211130
H15   H     H_    0.592440 0.369348 0.995053 0.111293
H16   H     H_    0.526472 0.586819 0.928879 0.183388
H17   H     H_    0.597268 0.634520 0.994034 0.109216
H18   H     H_    0.532199 0.626556 0.854260 0.196349
H19   H     H_    0.018825 0.915246 0.925976 0.182452
H20   H     H_    0.028767 0.876000 0.855306 0.211220
H21   H     H_    0.092396 0.869378 0.995066 0.111018
H22   H     H_    0.026402 0.086779 0.928983 0.183251
H23   H     H_    0.097205 0.134467 0.994036 0.108940
H24   H     H_    0.994456 0.175708 0.585229 0.177320
H25   H     H_    0.032104 0.126452 0.854273 0.196499
H26   H     H_    0.543107 0.258222 0.667837 0.223135
H27   H     H_    0.541471 0.732031 0.663890 0.222049
H28   H     H_    0.043129 0.758173 0.667838 0.223258
H29   H     H_    0.041489 0.232068 0.663893 0.222186
H30   H     H_    0.628411 0.271635 0.665116 0.231500
H31   H     H_    0.625031 0.717768 0.658087 0.235553
H32   H     H_    0.128421 0.771662 0.665108 0.231625
H33   H     H_    0.576799 0.672332 0.089540 0.154586
H34   H     H_    0.125034 0.217750 0.658073 0.235755
H35   H     H_    0.414722 0.320107 0.408181 0.127613
H36   H     H_    0.408968 0.684058 0.393898 0.158503
H37   H     H_    0.914774 0.820120 0.408245 0.127561
H38   H     H_    0.909000 0.184045 0.393938 0.158437
H39   H     H_    0.486621 0.311809 0.380235 0.182160
H40   H     H_    0.479837 0.695821 0.364567 0.184633
H41   H     H_    0.986613 0.811786 0.380190 0.181831
H42   H     H_    0.979834 0.195834 0.364542 0.184350
H43   H     H_    0.424243 0.174469 0.426786 0.183265
H44   H     H_    0.073580 0.828766 0.089368 0.153019
H45   H     H_    0.431779 0.827870 0.441160 0.184262
H46   H     H_    0.924223 0.674492 0.426695 0.183445
H47   H     H_    0.931757 0.327853 0.441074 0.184375
H48   H     H_    0.522049 0.168771 0.450818 0.174729
H49   H     H_    0.532696 0.833310 0.471936 0.158882
H50   H     H_    0.022099 0.668752 0.450883 0.174733
H51   H     H_    0.032725 0.333318 0.471972 0.158891
H52   H     H_    0.179358 0.044431 0.526112 0.186163
H53   H     H_    0.179390 0.955983 0.526218 0.183857
H54   H     H_    0.799536 0.543992 0.659849 0.193611
H55   H     H_    0.076780 0.172317 0.089558 0.154507
H56   H     H_    0.799548 0.456090 0.659906 0.194378
H57   H     H_    0.130473 0.044562 0.391733 0.139565
H58   H     H_    0.130483 0.955754 0.391826 0.137363
H59   H     H_    0.700868 0.544106 0.561107 0.180684
H60   H     H_    0.700879 0.456219 0.561172 0.178701
H61   H     H_    0.320857 0.044266 0.667865 0.193635
H62   H     H_    0.320840 0.955785 0.667918 0.194177
H63   H     H_    0.869812 0.544266 0.608495 0.182412
H64   H     H_    0.869822 0.455423 0.608580 0.181645
H65   H     H_    0.299576 0.043778 0.439455 0.168326
H66   H     H_    0.481371 0.303079 0.093558 0.190890
H67   H     H_    0.299570 0.955896 0.439496 0.167191
H68   H     H_    0.679392 0.544190 0.332464 0.146904
H69   H     H_    0.679371 0.455760 0.332515 0.147255
H70   H     H_    0.200904 0.043896 0.340560 0.144349
H71   H     H_    0.200900 0.956030 0.340609 0.144661
H72   H     H_    0.630488 0.544547 0.368922 0.143368
H73   H     H_    0.630482 0.455745 0.368995 0.141126
H74   H     H_    0.600049 0.187666 0.084732 0.201098
H75   H     H_    0.597963 0.814182 0.084495 0.194695
H76   H     H_    0.100051 0.687656 0.084773 0.201019
H77   H     H_    0.483557 0.695113 0.093755 0.187385
H78   H     H_    0.097993 0.314161 0.084527 0.194603
H79   H     H_    0.369819 0.044279 0.631513 0.179134
H80   H     H_    0.369813 0.955432 0.631582 0.178385
H81   H     H_    0.820876 0.544033 0.474098 0.165324
H82   H     H_    0.820895 0.455564 0.474188 0.163966
H83   H     H_    0.285006 0.451983 0.653061 0.169628
H84   H     H_    0.253404 0.535989 0.624491 0.201997
H85   H     H_    0.784967 0.951983 0.653029 0.169644
H86   H     H_    0.753365 0.035989 0.624448 0.202025
H87   H     H_    0.543293 0.164975 0.100348 0.218602
H88   H     H_    0.981373 0.803094 0.093535 0.190972
H89   H     H_    0.540525 0.834944 0.100193 0.222105
H90   H     H_    0.043260 0.664986 0.100336 0.218621
H91   H     H_    0.040538 0.334939 0.100185 0.222119
H92   H     H_    0.371737 0.240922 0.911254 0.209172
H93   H     H_    0.371614 0.756564 0.911230 0.206585
H94   H     H_    0.871752 0.740896 0.911277 0.209022
H95   H     H_    0.871622 0.256615 0.911241 0.206471
H96   H     H_    0.460412 0.236107 0.086303 0.190115
H97   H     H_    0.460184 0.761524 0.086308 0.192679
H98   H     H_    0.960418 0.736129 0.086327 0.190012
H99   H     H_    0.983528 0.195129 0.093740 0.187479
H100  H     H_    0.960188 0.261546 0.086319 0.192600
H101  H     H_    0.627719 0.281693 0.096241 0.197495
H102  H     H_    0.629039 0.721089 0.096236 0.194777
H103  H     H_    0.127711 0.781674 0.096224 0.197426
H104  H     H_    0.129022 0.221060 0.096228 0.194706
H105  H     H_    0.338668 0.433466 0.384738 0.173257
H106  H     H_    0.307702 0.379386 0.411342 0.148452
H107  H     H_    0.402981 0.394405 0.498297 0.143596
H108  H     H_    0.409336 0.585992 0.520938 0.148232
H109  H     H_    0.392280 0.519276 0.476338 0.167626
H110  H     H_    0.502484 0.318408 0.601623 0.188148
H111  H     H_    0.467229 0.534676 0.610976 0.171128
H112  H     H_    0.838738 0.933486 0.384823 0.173151
H113  H     H_    0.807760 0.879392 0.411386 0.148475
H114  H     H_    0.903040 0.894421 0.498378 0.143644
H115  H     H_    0.909379 0.085994 0.521025 0.148230
H116  H     H_    0.892333 0.019279 0.476427 0.167532
H117  H     H_    0.967264 0.034678 0.611071 0.171311
H118  H     H_    0.187638 0.391988 0.570748 0.136336
H119  H     H_    0.093518 0.395447 0.440999 0.196293
H120  H     H_    0.115952 0.420480 0.550763 0.201166
O1    O     O_3   0.249990 0.249990 0.500000 -0.497027
O2    O     O_R   0.249990 0.866860 0.561260 -0.511750
O3    O     O_R   0.749990 0.633140 0.561260 -0.512029
O4    O     O_R   0.749990 0.366860 0.561260 -0.514531
O5    O     O_R   0.102520 0.280640 0.438750 -0.520597
O6    O     O_R   0.102520 0.719360 0.438750 -0.505343
O7    O     O_R   0.602520 0.780640 0.438750 -0.520552
O8    O     O_R   0.602520 0.219360 0.438750 -0.505274
O9    O     O_R   0.336190 0.219350 0.438710 -0.476646
O10   O     O_R   0.336190 0.780650 0.438710 -0.476682
O11   O     O_R   0.836190 0.719350 0.438710 -0.476626
O12   O     O_3   0.249990 0.750010 0.500000 -0.502754
O13   O     O_R   0.836190 0.280650 0.438710 -0.476688
O14   O     O_R   0.163790 0.219360 0.561280 -0.487780
O15   O     O_R   0.163790 0.780640 0.561280 -0.489151
O16   O     O_R   0.663790 0.719360 0.561280 -0.487926
O17   O     O_R   0.663790 0.280640 0.561280 -0.489269
O18   O     O_R   0.397470 0.280620 0.561260 -0.548008
O19   O     O_R   0.397470 0.719380 0.561260 -0.539895
O20   O     O_R   0.897470 0.780620 0.561260 -0.548021
O21   O     O_R   0.897470 0.219380 0.561260 -0.539886
O22   O     O_R   0.188730 0.366850 0.438750 -0.517401
O23   O     O_3   0.749990 0.749990 0.500000 -0.496937
O24   O     O_R   0.188730 0.633150 0.438750 -0.474334
O25   O     O_R   0.688730 0.866850 0.438750 -0.517450
O26   O     O_R   0.688730 0.133150 0.438750 -0.474351
O27   O     O_R   0.249980 0.133140 0.438710 -0.544316
O28   O     O_R   0.249980 0.866860 0.438710 -0.547115
O29   O     O_R   0.749980 0.633140 0.438710 -0.542874
O30   O     O_R   0.749980 0.366860 0.438710 -0.545530
O31   O     O_R   0.102500 0.280640 0.266310 -0.501712
O32   O     O_R   0.102500 0.719360 0.266310 -0.513182
O33   O     O_R   0.602500 0.780640 0.266310 -0.501713
O34   O     O_3   0.749990 0.250010 0.500000 -0.502664
O35   O     O_R   0.602500 0.219360 0.266310 -0.513189
O36   O     O_R   0.336220 0.219350 0.733700 -0.497828
O37   O     O_R   0.336220 0.780650 0.733700 -0.497775
O38   O     O_R   0.836220 0.719350 0.733700 -0.497888
O39   O     O_R   0.836220 0.280650 0.733700 -0.497830
O40   O     O_R   0.163750 0.219360 0.266290 -0.539921
O41   O     O_R   0.163750 0.780640 0.266290 -0.537554
O42   O     O_R   0.663750 0.719360 0.266290 -0.539798
O43   O     O_R   0.663750 0.280640 0.266290 -0.537447
O44   O     O_R   0.397490 0.280620 0.733700 -0.451473
O45   O     O_R   0.311270 0.366840 0.561280 -0.474401
O46   O     O_R   0.397490 0.719380 0.733700 -0.448837
O47   O     O_R   0.897490 0.780620 0.733700 -0.451463
O48   O     O_R   0.897490 0.219380 0.733700 -0.448813
O49   O     O_3   0.344821 0.445503 0.503958 -0.506131
O50   O     O_3   0.366214 0.539444 0.559811 -0.475581
O51   O     O_3   0.844852 0.945502 0.504013 -0.506078
O52   O     O_3   0.866232 0.039444 0.559859 -0.475571
O53   O     O_3   0.153173 0.465847 0.504412 -0.592309
O54   O     O_3   0.134316 0.557624 0.455528 -0.533327
O55   O     O_3   0.653139 0.965847 0.504341 -0.592294
O56   O     O_R   0.311270 0.633160 0.561280 -0.469459
O57   O     O_3   0.634291 0.057622 0.455464 -0.533288
O58   O     O_3   0.484640 0.339674 0.902395 -0.489868
O59   O     O_3   0.488229 0.661440 0.902902 -0.476399
O60   O     O_3   0.984619 0.839685 0.902427 -0.489810
O61   O     O_3   0.988177 0.161413 0.902918 -0.476328
O62   O     O_R   0.811270 0.866840 0.561280 -0.474390
O63   O     O_R   0.811270 0.133160 0.561280 -0.469463
O64   O     O_R   0.249990 0.133140 0.561260 -0.509459
Zn1   Zn    Zn3+2 0.337540 0.293760 0.587540 1.048391
Zn2   Zn    Zn3+2 0.249980 0.793780 0.412450 1.002071
Zn3   Zn    Zn3+2 0.749980 0.706220 0.412450 0.995634
Zn4   Zn    Zn3+2 0.749980 0.293780 0.412450 1.002762
Zn5   Zn    Zn3+2 0.250000 0.206220 0.587540 1.055927
Zn6   Zn    Zn3+2 0.250000 0.793780 0.587540 1.062736
Zn7   Zn    Zn3+2 0.750000 0.706220 0.587540 1.055078
Zn8   Zn    Zn3+2 0.750000 0.293780 0.587540 1.061819
Zn9   Zn    Zn3+2 0.337540 0.706240 0.587540 1.079695
Zn10  Zn    Zn3+2 0.837540 0.793760 0.587540 1.048483
Zn11  Zn    Zn3+2 0.837540 0.206240 0.587540 1.079800
Zn12  Zn    Zn3+2 0.162450 0.293770 0.412470 1.008745
Zn13  Zn    Zn3+2 0.162450 0.706230 0.412470 1.042873
Zn14  Zn    Zn3+2 0.662450 0.793770 0.412470 1.008857
Zn15  Zn    Zn3+2 0.662450 0.206230 0.412470 1.042985
Zn16  Zn    Zn3+2 0.249980 0.206220 0.412450 0.994947

loop_
_geom_bond_atom_site_label_1
_geom_bond_atom_site_label_2
_ccdc_geom_bond_type
C61   C70   S    
C88   H50   S    
C92   C105  S    
C126  C127  S    
C55   Cl48  S    
C131  O2    A    
C35   C47   S    
C79   C87   S    
C131  O28   A    
C51   H26   S    
C105  C131  S    
C106  C132  S    
C56   C79   S    
C62   Cl20  S    
C130  O64   A    
C60   H35   S    
C52   H2    S    
C84   H41   S    
C99   H70   S    
O13   Zn4   S    
C4    C41   S    
O45   Zn1   S    
C33   H9    S    
C35   C42   S    
C123  O56   A    
C29   H117  S    
C27   H108  S    
C109  C127  S    
C54   H29   S    
C76   O13   A    
C70   C74   S    
C29   O52   S    
C68   C90   S    
C128  H85   S    
C61   H36   S    
C112  C129  S    
C115  Cl33  S    
C85   H42   S    
C98   H64   S    
C6    O42   A    
C97   H81   S    
C42   H96   S    
C34   H14   S    
C38   O61   S    
O22   Zn12  S    
C63   C85   S    
O39   Zn8   S    
C29   H116  S    
O12   Zn2   S    
C109  C118  S    
O29   Zn3   S    
C15   Cl7   S    
C17   H74   S    
O28   Zn2   S    
O2    Zn6   S    
O27   Zn16  S    
C36   H17   S    
C28   H112  S    
C112  C120  S    
C27   O50   S    
C66   Cl11  S    
C87   H49   S    
O35   Zn15  S    
C64   H43   S    
C108  C113  S    
O46   Zn9   S    
C16   C20   S    
C91   H57   S    
O17   Zn8   S    
C78   Cl40  S    
C46   H99   S    
C88   Cl16  S    
C65   H45   S    
C112  C125  S    
C95   H61   S    
C28   O51   S    
C81   C90   S    
O23   Zn3   S    
C99   C101  S    
C49   H44   S    
C85   Cl26  S    
C53   C71   S    
C48   H33   S    
C4    O31   A    
C49   C100  S    
C11   O48   A    
C30   H118  S    
C10   O47   A    
C53   C58   S    
C93   H54   S    
C33   H11   S    
O12   Zn13  S    
C34   H12   S    
O34   Zn11  S    
C26   H107  S    
C80   C88   S    
C2    C22   S    
C30   H120  S    
C132  O29   A    
C77   C82   S    
O15   Zn6   S    
C126  H83   S    
C45   C80   S    
C51   C55   S    
C2    C14   S    
C21   C42   S    
O1    Zn5   S    
C38   H22   S    
C50   H104  S    
O7    Zn14  S    
O12   Zn6   S    
C103  C107  S    
C51   C69   S    
C108  C126  S    
C121  O45   A    
C129  H86   S    
C56   O16   A    
C21   H92   S    
C110  C128  S    
C57   H31   S    
C95   C96   S    
C67   C77   S    
C28   H114  S    
C47   H1    S    
C128  C129  S    
C97   C98   S    
C126  Cl27  S    
C92   H58   S    
O32   Zn13  S    
O30   Zn4   S    
O8    Zn15  S    
O5    Zn12  S    
C78   O58   S    
C64   Cl9   S    
C117  Cl36  S    
C40   C49   S    
C59   Cl4   S    
O20   Zn10  S    
C127  H84   S    
C13   C23   S    
O23   Zn7   S    
O26   Zn15  S    
C44   H98   S    
C82   H39   S    
C132  O3    A    
C10   C13   S    
C15   Cl23  S    
C22   H93   S    
C75   O11   A    
C1    O14   A    
O62   Zn10  S    
C117  O53   S    
C16   Cl8   S    
C22   Cl45  S    
C54   C59   S    
O1    Zn16  S    
C94   C107  S    
C103  H69   S    
C62   H37   S    
C26   H105  S    
C91   C92   S    
C8    O36   A    
C109  C123  S    
O43   Zn4   S    
C118  Cl37  S    
C1    O5    A    
C9    O37   A    
O64   Zn5   S    
O37   Zn6   S    
C36   H16   S    
C116  O52   S    
C93   C106  S    
C113  Cl31  S    
C98   H82   S    
C114  Cl32  S    
C22   C43   S    
C43   H97   S    
C31   H5    S    
O47   Zn10  S    
C60   Cl18  S    
C64   C69   S    
C63   C72   S    
C61   Cl19  S    
C20   H91   S    
C34   O58   S    
C109  C114  S    
O44   Zn1   S    
C100  Cl42  S    
O23   Zn14  S    
C3    O4    A    
C112  C116  S    
C3    O30   A    
C62   C84   S    
C42   H66   S    
C32   H7    S    
O11   Zn3   S    
C108  C117  S    
C56   O7    A    
C110  C119  S    
O34   Zn4   S    
C120  Cl39  S    
C58   Cl3   S    
O40   Zn16  S    
C100  O60   S    
C48   C89   S    
C26   O49   S    
C117  C118  S    
C114  O50   S    
C8    C122  S    
C60   C69   S    
C93   H59   S    
C50   C111  S    
C62   C71   S    
C102  C103  S    
C19   C40   S    
C40   C44   S    
C6    O33   A    
C47   C78   S    
C27   H111  S    
C2    C9    S    
C127  Cl28  S    
C10   O38   A    
C81   C85   S    
C34   H15   S    
C96   C105  S    
C67   O17   A    
C38   H25   S    
C31   H4    S    
C52   H27   S    
C53   H13   S    
O12   Zn9   S    
C89   Cl41  S    
C108  C121  S    
C80   C84   S    
C124  O62   A    
C29   H115  S    
C75   O20   A    
C15   C19   S    
C87   Cl15  S    
O48   Zn11  S    
C36   H18   S    
O38   Zn7   S    
O1    Zn1   S    
C76   O21   A    
C1    C81   S    
C92   H53   S    
C53   H28   S    
O10   Zn2   S    
C37   H20   S    
C21   C122  S    
C57   C79   S    
C45   O15   A    
O33   Zn14  S    
C47   H101  S    
C110  C124  S    
C124  O25   A    
C14   Cl6   S    
C9    O46   A    
O14   Zn5   S    
C46   H100  S    
C69   C73   S    
C99   H65   S    
C73   O9    A    
C32   O55   S    
C58   C80   S    
O4    Zn8   S    
C99   C104  S    
C104  C130  S    
C101  H71   S    
O6    Zn13  S    
C45   O6    A    
C86   Cl14  S    
C64   C86   S    
C14   Cl12  S    
C123  O24   A    
C59   H34   S    
O41   Zn2   S    
C61   C83   S    
C49   H103  S    
C23   C44   S    
C33   H10   S    
C2    C89   S    
O3    Zn7   S    
C18   C39   S    
C66   C71   S    
C96   H80   S    
C66   H46   S    
C27   H109  S    
C30   O53   S    
C63   Cl21  S    
C97   C106  S    
O1    Zn12  S    
C94   H60   S    
C38   H23   S    
C103  H73   S    
C102  H72   S    
C57   Cl2   S    
C101  H67   S    
C65   C87   S    
C41   C50   S    
C113  C114  S    
C7    O43   A    
C59   C81   S    
O24   Zn13  S    
C119  C120  S    
C25   Cl47  S    
C125  O63   A    
C58   H32   S    
C18   H75   S    
C32   H6    S    
C25   H95   S    
C55   H30   S    
C79   C83   S    
C115  C116  S    
O18   Zn1   S    
C54   H24   S    
C128  Cl29  S    
O23   Zn10  S    
C52   C57   S    
C98   C107  S    
C19   H76   S    
C12   C122  S    
O36   Zn5   S    
C5    C40   S    
C37   H21   S    
C6    C39   S    
O56   Zn9   S    
C17   C35   S    
C110  C115  S    
C68   Cl13  S    
C65   C70   S    
C20   H78   S    
C39   C48   S    
C8    O44   A    
C93   C94   S    
C83   H40   S    
C86   H48   S    
C14   C18   S    
C73   O18   A    
C4    O40   A    
C91   C104  S    
C72   C76   S    
C94   H56   S    
C20   C41   S    
C68   H47   S    
C44   H88   S    
C95   H79   S    
C111  Cl43  S    
C63   H38   S    
C26   H106  S    
C55   C77   S    
C23   H94   S    
C30   H119  S    
C11   C24   S    
C7    O35   A    
C23   Cl46  S    
C60   C82   S    
C16   Cl34  S    
C125  O26   A    
C37   O60   S    
C41   C46   S    
C116  Cl35  S    
C68   C72   S    
C5    O32   A    
C16   C24   S    
C118  O54   S    
C24   C111  S    
C28   H113  S    
C90   Cl17  S    
O63   Zn11  S    
C19   H90   S    
C67   O8    A    
C101  C105  S    
O19   Zn9   S    
C32   H8    S    
C102  H68   S    
C24   C25   S    
C51   H110  S    
C48   H102  S    
C39   C43   S    
C83   Cl24  S    
C3    C107  S    
C120  O57   S    
C74   O10   A    
C97   H63   S    
C21   Cl44  S    
O21   Zn11  S    
C66   C88   S    
O34   Zn15  S    
C96   H62   S    
C36   O59   S    
C33   O57   S    
C111  O61   S    
C77   C86   S    
C12   Cl1   S    
C13   C15   S    
C90   H51   S    
C74   O19   A    
C43   H77   S    
C95   C104  S    
C31   O54   S    
C31   H3    S    
C7    C35   S    
O34   Zn8   S    
O31   Zn12  S    
O16   Zn7   S    
O9    Zn16  S    
C84   Cl25  S    
C91   H52   S    
C5    O41   A    
C13   C100  S    
O42   Zn3   S    
C119  O55   S    
C17   H87   S    
C89   O59   S    
C12   C17   S    
C71   C75   S    
C65   Cl10  S    
C113  O49   S    
O25   Zn14  S    
C115  O51   S    
C129  Cl30  S    
C102  C106  S    
C37   H19   S    
C50   H55   S    
C78   C122  S    
C52   C70   S    
C119  Cl38  S    
C130  O27   A    
C82   Cl22  S    
C121  O22   A    
C54   C72   S    
C12   Cl5   S    
C11   O39   A    
C25   C46   S    
C18   H89   S    
