data_mof_unit_8135.cif
_audit_creation_date              2012-12-10T17:34:58-0500
_audit_creation_method            fapswitch 2.2
_symmetry_space_group_name_H-M    P1
_symmetry_Int_Tables_number       1
_space_group_crystal_system       triclinic
_cell_length_a                    12.365717
_cell_length_b                    13.132773
_cell_length_c                    13.852032
_cell_angle_alpha                 105.193909
_cell_angle_beta                  74.230137
_cell_angle_gamma                 116.729729
_cell_volume                      1907.74364661

loop_
_atom_site_label
_atom_site_type_symbol
_atom_type_description
_atom_site_fract_x
_atom_site_fract_y
_atom_site_fract_z
_atom_type_partial_charge
C1    C     C_R   0.144299 0.714476 0.513286 0.809493
C2    C     C_1   0.976063 0.507329 0.791443 -0.147798
C3    C     C_R   0.733218 0.973393 0.358836 0.004699
C4    C     C_R   0.774446 0.163736 0.461706 -0.097543
C5    C     C_R   0.185853 0.920403 0.597531 0.016304
C6    C     C_R   0.264028 0.037345 0.607577 -0.215708
C7    C     C_R   0.386452 0.073491 0.560631 -0.191890
C8    C     C_R   0.433949 0.993222 0.499074 0.097702
C9    C     C_R   0.349826 0.878591 0.471594 0.055320
C10   C     C_R   0.562222 0.023566 0.463416 0.081717
C11   C     C_R   0.604507 0.943732 0.391356 0.066323
C12   C     C_R   0.984602 0.504348 0.686237 0.839037
C13   C     C_R   0.516675 0.838539 0.351610 -0.242178
C14   C     C_R   0.392066 0.807092 0.390357 -0.173042
C15   C     C_R   0.649470 0.130532 0.500220 -0.233585
C16   C     C_R   0.816587 0.084861 0.393103 -0.174448
C17   C     C_R   0.226202 0.839320 0.525690 -0.137195
C18   C     C_R   0.630387 0.660406 0.672417 -0.309605
C19   C     C_R   0.247537 0.346989 0.367382 0.088895
C20   C     C_R   0.338743 0.305837 0.344897 -0.276183
C21   C     C_R   0.436349 0.360297 0.397904 -0.166594
C22   C     C_R   0.446536 0.459786 0.471890 -0.004177
C23   C     C_R   0.856159 0.285968 0.484458 0.803848
C24   C     C_R   0.346180 0.493477 0.497286 0.279568
C25   C     C_R   0.548760 0.523153 0.525259 -0.131435
C26   C     C_R   0.538454 0.605438 0.612623 0.112725
C27   C     C_R   0.437346 0.633757 0.638981 -0.246645
C28   C     C_R   0.345375 0.581704 0.580669 -0.171890
C29   C     C_R   0.663478 0.512246 0.494303 0.624893
C30   C     C_R   0.733334 0.635080 0.645091 -0.021937
C31   C     C_R   0.015600 0.495988 0.313806 0.815263
C32   C     C_1   0.024612 0.493909 0.208725 -0.168711
C33   C     C_2   0.040696 0.490093 0.014680 -0.157557
C34   C     C_2   0.960445 0.512506 0.985720 -0.150278
C35   C     C_1   0.968373 0.509937 0.880182 0.017414
C36   C     C_1   0.032530 0.492055 0.120112 0.005965
Cu1   Cu    Cu3+1 0.899780 0.525060 0.522890 0.996664
Cu2   Cu    Cu3+1 0.100220 0.474940 0.477110 0.931327
H1    H     H_    0.888469 0.532552 0.040922 0.154000
H2    H     H_    0.329518 0.726539 0.354055 0.168899
H3    H     H_    0.802098 0.674391 0.693150 0.197119
H4    H     H_    0.430215 0.698621 0.704510 0.156634
H5    H     H_    0.621920 0.721595 0.740698 0.159305
H6    H     H_    0.171006 0.303404 0.326946 0.137063
H7    H     H_    0.499853 0.320182 0.382209 0.205943
H8    H     H_    0.332600 0.230297 0.287611 0.161641
H9    H     H_    0.273516 0.611363 0.605665 0.207377
H10   H     H_    0.112613 0.469983 0.959465 0.157578
H11   H     H_    0.914496 0.111155 0.365064 0.185634
H12   H     H_    0.542177 0.779100 0.289849 0.132843
H13   H     H_    0.622632 0.191089 0.559250 0.149311
H14   H     H_    0.441553 0.165181 0.574022 0.140075
H15   H     H_    0.232528 0.100811 0.658234 0.139292
N1    N     N_R   0.748810 0.563010 0.557590 -0.217594
N2    N     N_R   0.250540 0.437620 0.443020 -0.210109
O1    O     O_R   0.025040 0.682470 0.528790 -0.549320
O2    O     O_R   0.194310 0.640150 0.490130 -0.611881
O3    O     O_R   0.903380 0.524130 0.659910 -0.560370
O4    O     O_R   0.072660 0.481800 0.621240 -0.599102
O5    O     O_R   0.805690 0.359850 0.509870 -0.556470
O6    O     O_R   0.974960 0.317530 0.471210 -0.593914
O7    O     O_R   0.927340 0.518200 0.378760 -0.529552
O8    O     O_R   0.096620 0.475870 0.340090 -0.592403
O9    O     O_3   0.694389 0.457050 0.398480 -0.577553
C37   C     C_3   0.724659 0.530088 0.327278 -0.307537
H16   H     H_    0.759430 0.490032 0.251573 0.190981
H17   H     H_    0.798628 0.616654 0.347020 0.172266
H18   H     H_    0.643174 0.540643 0.319934 0.148202
C38   C     C_2   0.783431 0.890171 0.290979 0.340471
H19   H     H_    0.727245 0.798145 0.280215 0.053634
O10   O     O_2   0.890490 0.923600 0.247347 -0.544878
C39   C     C_2   0.067283 0.888119 0.669470 0.360888
H20   H     H_    0.016128 0.941682 0.687954 0.057997
O11   O     O_2   0.030629 0.807071 0.714605 -0.555228

loop_
_geom_bond_atom_site_label_1
_geom_bond_atom_site_label_2
_ccdc_geom_bond_type
C2    C35   T    
C28   H9    S    
C19   C20   A    
C18   C26   A    
C2    C12   S    
Cu1   O7    S    
C7    C8    A    
C24   N2    A    
C30   N1    A    
C26   C27   A    
C32   C36   T    
C3    C38   S    
C1    O1    A    
C7    H14   S    
C5    C39   S    
C10   C15   A    
C5    C6    A    
C5    C17   A    
C29   N1    A    
C33   C36   S    
C34   C35   S    
C38   O10   D    
C12   O4    A    
Cu2   N2    S    
C8    C9    A    
C37   H17   S    
C22   C25   A    
C30   H3    S    
C18   C30   A    
C15   H13   S    
Cu1   O3    S    
Cu2   O6    S    
C12   O3    A    
C29   O9    S    
C13   C14   A    
Cu1   O1    S    
C31   O7    A    
C21   H7    S    
C25   C29   A    
C23   O5    A    
C34   H1    S    
C31   O8    A    
C16   H11   S    
C39   O11   D    
C4    C23   S    
C25   C26   A    
Cu2   O4    S    
C4    C16   A    
C9    C14   A    
Cu1   Cu2   S    
C1    O2    A    
Cu2   O2    S    
C31   C32   S    
C37   H18   S    
C33   C34   D    
Cu1   N1    S    
C9    C17   A    
C22   C24   A    
C6    H15   S    
C19   H6    S    
Cu2   O8    S    
C19   N2    A    
C24   C28   A    
C39   H20   S    
C6    C7    A    
C1    C17   S    
O9    C37   S    
C4    C15   A    
C18   H5    S    
C11   C13   A    
C27   H4    S    
C38   H19   S    
Cu1   O5    S    
C3    C11   A    
C10   C11   A    
C14   H2    S    
C13   H12   S    
C23   O6    A    
C20   C21   A    
C8    C10   A    
C37   H16   S    
C27   C28   A    
C33   H10   S    
C21   C22   A    
C20   H8    S    
C3    C16   A    
