data_mof_unit_15729.cif
_audit_creation_date              2012-12-11T15:24:32-0500
_audit_creation_method            fapswitch 2.2
_symmetry_space_group_name_H-M    P1
_symmetry_Int_Tables_number       1
_space_group_crystal_system       triclinic
_cell_length_a                    22.968998
_cell_length_b                    6.959799
_cell_length_c                    20.690831
_cell_angle_alpha                 90.000255
_cell_angle_beta                  93.242516
_cell_angle_gamma                 89.999728
_cell_volume                      3302.33286977

loop_
_atom_site_label
_atom_site_type_symbol
_atom_type_description
_atom_site_fract_x
_atom_site_fract_y
_atom_site_fract_z
_atom_type_partial_charge
O1    O     O_R   0.188030 0.379840 0.189340 -0.541881
O2    O     O_R   0.811970 0.620160 0.810660 -0.541106
O3    O     O_R   0.311970 0.879840 0.310660 -0.541880
O4    O     O_R   0.688030 0.120160 0.689340 -0.541105
O5    O     O_R   0.307090 0.708420 0.185790 -0.537579
O6    O     O_R   0.692910 0.291580 0.814210 -0.536649
O7    O     O_R   0.192910 0.208420 0.314210 -0.537580
O8    O     O_R   0.807090 0.791580 0.685790 -0.536651
C1    C     C_R   0.326758 0.540762 0.170699 0.731682
C2    C     C_R   0.673270 0.459244 0.829336 0.735518
C3    C     C_R   0.173242 0.040763 0.329301 0.731681
C4    C     C_R   0.826730 0.959243 0.670663 0.735518
O9    O     O_R   0.188180 0.709480 0.181650 -0.523749
O10   O     O_R   0.811820 0.290520 0.818350 -0.529268
O11   O     O_R   0.311820 0.209480 0.318350 -0.523751
O12   O     O_R   0.688180 0.790520 0.681650 -0.529269
O13   O     O_R   0.192210 0.880960 0.306500 -0.540109
O14   O     O_R   0.807790 0.119040 0.693500 -0.540083
O15   O     O_R   0.307790 0.380960 0.193500 -0.540109
O16   O     O_R   0.692210 0.619040 0.806500 -0.540083
C5    C     C_R   0.167749 0.540587 0.165515 0.706518
C6    C     C_R   0.832244 0.459257 0.834547 0.701880
C7    C     C_R   0.332251 0.040586 0.334485 0.706521
C8    C     C_R   0.667756 0.959258 0.665453 0.701875
O17   O     O_3   0.251460 0.546730 0.290970 -0.364259
O18   O     O_3   0.748540 0.453270 0.709030 -0.365847
O19   O     O_3   0.248540 0.046730 0.209030 -0.364258
O20   O     O_3   0.751460 0.953270 0.790970 -0.365847
V1    V     V_3+5 0.249730 0.821120 0.242400 1.519548
V2    V     V_3+5 0.750270 0.178880 0.757600 1.508744
V3    V     V_3+5 0.250270 0.321120 0.257600 1.519546
V4    V     V_3+5 0.749730 0.678880 0.742400 1.508742
C9    C     C_R   0.575570 0.828775 0.612960 -0.070900
C10   C     C_R   0.427786 0.160642 0.382241 -0.045526
C11   C     C_R   0.924432 0.328774 0.887038 -0.070893
C12   C     C_R   0.072213 0.660641 0.117759 -0.045510
C13   C     C_R   0.619270 0.968121 0.615043 -0.120238
C14   C     C_R   0.382114 0.029018 0.383056 -0.116770
C15   C     C_R   0.880731 0.468122 0.884955 -0.120243
C16   C     C_R   0.117886 0.529018 0.116944 -0.116765
C17   C     C_R   0.616910 0.114878 0.569036 -0.037513
C18   C     C_R   0.384603 0.882075 0.428902 -0.113893
C19   C     C_R   0.883094 0.614886 0.930960 -0.037511
C20   C     C_R   0.115398 0.382077 0.071097 -0.113882
C21   C     C_R   0.572313 0.122112 0.519083 0.037379
C22   C     C_R   0.433585 0.856785 0.472521 -0.038157
C23   C     C_R   0.927691 0.622123 0.980912 0.037375
C24   C     C_R   0.066417 0.356789 0.027476 -0.038143
C25   C     C_R   0.527173 0.981870 0.518330 0.008675
C26   C     C_R   0.479624 0.993788 0.472009 -0.003072
C27   C     C_R   0.972830 0.481878 0.981666 0.008676
C28   C     C_R   0.020378 0.493795 0.027987 -0.003063
C29   C     C_R   0.529075 0.832370 0.565141 0.059420
C30   C     C_R   0.476803 0.147261 0.426547 0.069991
C31   C     C_R   0.970928 0.332373 0.934856 0.059435
C32   C     C_R   0.023199 0.647267 0.073450 0.069995
C33   C     C_R   0.571529 0.268037 0.470927 0.374803
C34   C     C_R   0.436930 0.700591 0.517075 0.346940
C35   C     C_R   0.928474 0.768051 0.029067 0.374811
C36   C     C_R   0.063073 0.200593 0.982923 0.346926
C37   C     C_R   0.522338 0.285508 0.426809 -0.151434
C38   C     C_R   0.484103 0.692109 0.564303 -0.154664
C39   C     C_R   0.977665 0.785519 0.073187 -0.151442
C40   C     C_R   0.015901 0.192111 0.935694 -0.154671
H1    H     H_    0.577967 0.720560 0.650432 0.140020
H2    H     H_    0.423865 0.274158 0.346697 0.153730
H3    H     H_    0.922033 0.220553 0.849567 0.140042
H4    H     H_    0.076133 0.774153 0.153306 0.153722
H5    H     H_    0.650339 0.223627 0.573614 0.197115
H6    H     H_    0.346316 0.793598 0.430950 0.207771
H7    H     H_    0.849665 0.723639 0.926380 0.197117
H8    H     H_    0.153685 0.293596 0.069051 0.207773
C41   C     C_3   0.051075 0.030440 0.532933 -0.125937
C42   C     C_3   0.948730 0.969583 0.466828 -0.104896
C43   C     C_3   0.448922 0.530413 0.967066 -0.125936
C44   C     C_3   0.551271 0.469616 0.033171 -0.104898
C45   C     C_3   0.010821 0.854352 0.541357 -0.141707
C46   C     C_3   0.988987 0.145672 0.458401 -0.126047
C47   C     C_3   0.489183 0.354337 0.958647 -0.141707
C48   C     C_3   0.511007 0.645693 0.041592 -0.126049
H9    H     H_    0.019581 0.733909 0.575720 0.120834
H10   H     H_    0.980228 0.266110 0.424036 0.130088
H11   H     H_    0.480427 0.233880 0.924288 0.120831
H12   H     H_    0.519761 0.766146 0.075953 0.130081
H13   H     H_    0.093504 0.055622 0.559992 0.135100
H14   H     H_    0.906300 0.944404 0.439770 0.146646
H15   H     H_    0.406492 0.555569 0.940007 0.135100
H16   H     H_    0.593702 0.444463 0.060228 0.146644
H17   H     H_    0.004768 0.697964 0.439326 0.124619
H18   H     H_    0.995039 0.302064 0.560431 0.118772
H19   H     H_    0.495243 0.197986 0.060685 0.124620
H20   H     H_    0.504946 0.802047 0.939556 0.118770
C49   C     C_1   0.872211 0.968872 0.624806 -0.160682
C50   C     C_1   0.127694 0.031146 0.375078 -0.154152
C51   C     C_1   0.627788 0.468876 0.875193 -0.160686
C52   C     C_1   0.372305 0.531143 0.124922 -0.154150
C53   C     C_3   0.997360 0.165431 0.532995 -0.143519
C54   C     C_3   0.002448 0.834592 0.466764 -0.131673
C55   C     C_3   0.502632 0.665424 0.966997 -0.143517
C56   C     C_3   0.497558 0.334606 0.033241 -0.131667
C57   C     C_3   0.957727 0.989484 0.540814 0.147832
C58   C     C_3   0.042082 0.010539 0.458948 0.149781
C59   C     C_3   0.542272 0.489489 0.959184 0.147832
C60   C     C_3   0.457918 0.510540 0.041051 0.149781
C61   C     C_1   0.910607 0.977853 0.586826 -0.034378
C62   C     C_1   0.089243 0.022169 0.412989 -0.026771
C63   C     C_1   0.589391 0.477858 0.913172 -0.034381
C64   C     C_1   0.410756 0.522167 0.087011 -0.026771
S1    S     S_3+6 0.634069 0.419756 0.463392 -0.007444
O21   O     O_2   0.636748 0.561877 0.518122 -0.350276
O22   O     O_2   0.688337 0.298508 0.467820 -0.325455
O23   O     O_3   0.633254 0.540376 0.392878 -0.485339
H21   H     H_    0.665995 0.632761 0.398001 0.383813
S2    S     S_3+6 0.382462 0.514412 0.513614 -0.050640
O24   O     O_2   0.330224 0.586224 0.546923 -0.328475
O25   O     O_2   0.364354 0.466902 0.444557 -0.368642
O26   O     O_3   0.405840 0.309385 0.549526 -0.512391
H22   H     H_    0.373398 0.216958 0.541781 0.372556
S3    S     S_3+6 0.865935 0.919773 0.036602 -0.007446
O27   O     O_2   0.863256 0.061894 0.981872 -0.350251
O28   O     O_2   0.811667 0.798526 0.032173 -0.325485
O29   O     O_3   0.866750 0.040392 0.107116 -0.485343
H23   H     H_    0.833976 0.132662 0.102013 0.383827
S4    S     S_3+6 0.117540 0.014406 0.986391 -0.050650
O30   O     O_2   0.169785 0.086228 0.953099 -0.328488
O31   O     O_2   0.135633 0.966889 0.055451 -0.368645
O32   O     O_3   0.094170 0.809381 0.950468 -0.512395
H24   H     H_    0.126615 0.716963 0.958209 0.372553
C65   C     C_2   0.517381 0.455728 0.383776 0.532530
H25   H     H_    0.520486 0.598766 0.404585 0.072997
O33   O     O_2   0.512898 0.437506 0.325013 -0.519851
C66   C     C_2   0.484395 0.541520 0.615023 0.467248
H26   H     H_    0.447098 0.526195 0.644543 0.102741
O34   O     O_2   0.525000 0.428954 0.622277 -0.534341
C67   C     C_2   0.982622 0.955737 0.116220 0.532566
H27   H     H_    0.979525 0.098777 0.095412 0.072997
O35   O     O_2   0.987097 0.937513 0.174983 -0.519846
C68   C     C_2   0.015611 0.041525 0.884973 0.467220
H28   H     H_    0.052913 0.026187 0.855460 0.102758
O36   O     O_2   0.975004 0.928975 0.877710 -0.534351

loop_
_geom_bond_atom_site_label_1
_geom_bond_atom_site_label_2
_ccdc_geom_bond_type
C34   C38   A    
C55   C59   S    
O18   V4    S    
O19   V1    S    
O13   V1    S    
O3    C7    A    
C18   H6    S    
C48   H12   S    
O15   V3    S    
C10   H2    S    
S2    O24   D    
C9    H1    S    
C67   H27   S    
C42   C54   S    
C40   C68   S    
O1    C5    A    
C21   C33   A    
C26   C30   A    
C48   C60   S    
C17   H5    S    
C14   C18   A    
S1    O22   D    
C11   C15   A    
O4    C8    A    
C46   C58   S    
O1    V3    S    
O2    V4    S    
C18   C22   A    
O3    V1    S    
C12   C16   A    
C49   C61   T    
C45   C57   S    
C1    O15   A    
C56   C60   S    
C33   S1    S    
C2    O16   A    
C66   H26   S    
O2    C6    A    
C19   H7    S    
C58   C62   S    
O14   V2    S    
C11   H3    S    
H19   C56   S    
C44   H16   S    
H18   C53   S    
C37   C65   S    
C44   C59   S    
O11   C7    A    
C52   C64   T    
O12   C8    A    
C22   C34   A    
O17   V1    S    
C47   C59   S    
O10   V2    S    
O23   H21   S    
C24   C36   A    
O5    V1    S    
S3    O28   D    
C9    C29   A    
C57   C61   S    
O7    V3    S    
O19   V3    S    
C27   C28   A    
O8    V4    S    
C38   C66   S    
C47   C56   S    
O20   V4    S    
C44   C56   S    
S1    O23   S    
C23   C27   A    
C54   C58   S    
C11   C31   A    
C9    C13   A    
C39   C67   S    
O7    C3    A    
O5    C1    A    
C12   C32   A    
C29   C38   A    
C46   H10   S    
C21   C25   A    
O8    C4    A    
C31   C40   A    
C46   C53   S    
C43   C55   S    
C8    C13   S    
C32   C39   A    
O9    C5    A    
C45   C54   S    
C42   H14   S    
C33   C37   A    
C1    C52   S    
C41   H13   S    
C51   C63   T    
S4    O32   S    
C3    C50   S    
C43   H15   S    
C41   C58   S    
O6    V2    S    
C16   C20   A    
C41   C53   S    
C42   C57   S    
C48   C55   S    
C43   C60   S    
C25   C26   A    
C4    C49   S    
C36   S4    S    
O32   H24   S    
C60   C64   S    
S4    O31   D    
C65   H25   S    
O16   V4    S    
S3    O29   S    
O9    V1    S    
C67   O35   D    
C3    O13   A    
C35   S3    S    
C10   C14   A    
O17   V3    S    
C44   C48   S    
O6    C2    A    
S2    O25   D    
S3    O27   D    
C12   H4    S    
O11   V3    S    
C68   O36   D    
C30   C37   A    
O12   V4    S    
C7    C14   S    
C22   C26   A    
C35   C39   A    
H17   C54   S    
C36   C40   A    
O10   C6    A    
O20   V2    S    
C17   C21   A    
S1    O21   D    
C47   H11   S    
C10   C30   A    
C5    C16   S    
C43   C47   S    
C2    C51   S    
C25   C29   A    
C6    C15   S    
C20   H8    S    
C27   C31   A    
C13   C17   A    
O4    V2    S    
S2    O26   S    
C50   C62   T    
C68   H28   S    
C23   C35   A    
C28   C32   A    
C24   C28   A    
C15   C19   A    
C66   O34   D    
C45   H9    S    
C42   C46   S    
C4    O14   A    
C34   S2    S    
C41   C45   S    
C59   C63   S    
O29   H23   S    
O26   H22   S    
C19   C23   A    
C53   C57   S    
C20   C24   A    
H20   C55   S    
S4    O30   D    
C65   O33   D    
O18   V2    S    
