data_mof_unit_31114.cif
_audit_creation_date              2012-12-10T16:51:11-0500
_audit_creation_method            fapswitch 2.2
_symmetry_space_group_name_H-M    P1
_symmetry_Int_Tables_number       1
_space_group_crystal_system       triclinic
_cell_length_a                    27.738328
_cell_length_b                    8.649384
_cell_length_c                    7.467988
_cell_angle_alpha                 103.453573
_cell_angle_beta                  94.429345
_cell_angle_gamma                 93.610463
_cell_volume                      1731.28086666

loop_
_atom_site_label
_atom_site_type_symbol
_atom_type_description
_atom_site_fract_x
_atom_site_fract_y
_atom_site_fract_z
_atom_type_partial_charge
C1    C     C_R   0.498521 0.199474 0.452699 0.875919
C2    C     C_R   0.501581 0.800537 0.547284 0.880562
C3    C     C_R   0.102065 0.471169 0.542058 -0.187556
C4    C     C_R   0.898659 0.509421 0.526014 -0.180018
C5    C     C_R   0.120882 0.320273 0.482939 -0.076884
C6    C     C_R   0.879554 0.653465 0.613648 -0.075022
C7    C     C_R   0.088800 0.179883 0.434271 0.446854
C8    C     C_R   0.911514 0.784736 0.712679 0.417883
C9    C     C_R   0.133872 0.611700 0.591450 -0.172687
C10   C     C_R   0.866870 0.376754 0.428817 -0.144319
C11   C     C_R   0.353900 0.477493 0.502535 -0.127719
C12   C     C_R   0.645912 0.517618 0.499511 -0.114919
C13   C     C_R   0.968596 0.354040 0.452419 -0.009657
C14   C     C_R   0.032377 0.630383 0.611729 -0.024894
C15   C     C_R   0.981400 0.633078 0.626190 0.069477
C16   C     C_R   0.019421 0.342424 0.479858 0.066822
C17   C     C_R   0.949573 0.498729 0.534540 -0.025244
C18   C     C_R   0.051291 0.481614 0.545380 -0.020366
C19   C     C_R   0.936808 0.227992 0.338507 0.266196
C20   C     C_R   0.064381 0.771788 0.651622 0.272895
C21   C     C_R   0.885970 0.235170 0.336304 0.332936
C22   C     C_R   0.115006 0.761892 0.646914 0.381161
C23   C     C_R   0.407296 0.494328 0.500810 0.818788
C24   C     C_R   0.592612 0.505747 0.499116 0.825492
C25   C     C_R   0.039081 0.194272 0.447560 -0.255245
C26   C     C_R   0.961277 0.765610 0.731401 -0.254132
C27   C     C_2   0.497986 0.031026 0.426482 -0.366537
C28   C     C_2   0.502263 0.969005 0.573464 -0.360378
C29   C     C_R   0.171528 0.315049 0.476197 0.554423
C30   C     C_R   0.828752 0.659872 0.602759 0.537706
C31   C     C_R   0.183836 0.598557 0.575069 0.586377
C32   C     C_R   0.816479 0.390747 0.424437 0.587867
C33   C     C_R   0.283730 0.488854 0.679613 -0.122305
C34   C     C_R   0.724193 0.492380 0.655432 -0.132448
C35   C     C_R   0.333740 0.505637 0.673123 -0.287035
C36   C     C_R   0.673867 0.482659 0.648315 -0.289529
C37   C     C_R   0.322824 0.427322 0.336178 0.428771
C38   C     C_R   0.669350 0.570079 0.359670 0.424253
C39   C     C_R   0.272243 0.417973 0.345319 -0.227883
C40   C     C_R   0.720356 0.570871 0.364469 -0.229679
C41   C     C_R   0.252817 0.446793 0.515940 0.298397
C42   C     C_R   0.747444 0.534479 0.512619 0.314528
Cu1   Cu    Cu3+1 0.505380 0.517380 0.684380 0.951558
Cu2   Cu    Cu3+1 0.494620 0.482620 0.315620 0.991394
H1    H     H_    0.462122 0.374844 0.948199 0.226095
H2    H     H_    0.537688 0.625160 0.052284 0.245955
H3    H     H_    0.247891 0.393068 0.219985 0.124486
H4    H     H_    0.739248 0.598365 0.253043 0.121352
H5    H     H_    0.656743 0.445795 0.758927 0.201033
H6    H     H_    0.356626 0.542448 0.802369 0.204765
H7    H     H_    0.745165 0.462940 0.769599 0.149218
H8    H     H_    0.268798 0.514044 0.812160 0.147558
H9    H     H_    0.015665 0.088341 0.439540 0.210922
H10   H     H_    0.983858 0.854104 0.834454 0.194331
H11   H     H_    0.494085 0.957933 0.285558 0.177272
H12   H     H_    0.506190 0.042101 0.714384 0.179563
N1    N     N_R   0.201414 0.452669 0.523271 -0.470972
N2    N     N_R   0.798900 0.529213 0.512021 -0.469530
N3    N     N_2   0.486510 0.456430 0.038510 -0.208750
N4    N     N_2   0.513490 0.543570 0.961490 -0.210729
O1    O     O_R   0.503500 0.286120 0.619780 -0.582650
O2    O     O_R   0.496500 0.713880 0.380220 -0.583655
O3    O     O_R   0.494410 0.256780 0.308360 -0.591779
O4    O     O_R   0.505590 0.743220 0.691640 -0.590688
O5    O     O_R   0.434810 0.514700 0.655690 -0.602890
O6    O     O_R   0.565190 0.485300 0.344310 -0.536136
O7    O     O_R   0.425720 0.485350 0.344280 -0.520736
O8    O     O_R   0.574280 0.514650 0.655720 -0.594613
O9    O     O_2   0.191023 0.174477 0.423098 -0.477788
O10   O     O_2   0.808987 0.794581 0.682315 -0.497352
O11   O     O_2   0.784823 0.267199 0.334459 -0.497721
O12   O     O_2   0.215057 0.730243 0.607452 -0.491432
O13   O     O_3   0.342472 0.399378 0.167008 -0.570100
C43   C     C_3   0.322837 0.252656 0.049087 0.050439
H13   H     H_    0.291283 0.274452 0.960253 0.151931
H14   H     H_    0.311351 0.162272 0.125914 0.150053
C44   C     C_3   0.360960 0.182344 0.925166 -0.756821
H15   H     H_    0.392904 0.158438 0.010813 0.241599
H16   H     H_    0.345553 0.068602 0.829552 0.215364
H17   H     H_    0.372840 0.266354 0.842278 0.240445
O14   O     O_3   0.641582 0.614075 0.218745 -0.578685
C45   C     C_3   0.663231 0.751854 0.174973 0.047974
H18   H     H_    0.690651 0.717426 0.075094 0.158620
H19   H     H_    0.680581 0.840264 0.300535 0.157969
C46   C     C_3   0.624713 0.833850 0.084145 -0.765279
H20   H     H_    0.595970 0.867130 0.178286 0.234376
H21   H     H_    0.641458 0.943742 0.053532 0.217797
H22   H     H_    0.608381 0.753344 0.952411 0.256788
O15   O     O_3   0.107077 0.030386 0.390048 -0.495484
C47   C     C_3   0.078470 0.922341 0.242306 0.118489
H23   H     H_    0.068552 0.979949 0.127374 0.127024
H24   H     H_    0.044826 0.875297 0.289772 0.168887
C48   C     C_3   0.106657 0.778959 0.168928 -0.763018
H25   H     H_    0.105194 0.695274 0.260659 0.243928
H26   H     H_    0.090409 0.714294 0.028917 0.174304
H27   H     H_    0.145225 0.817455 0.162400 0.264050
O16   O     O_3   0.893398 0.926290 0.801662 -0.541727
C49   C     C_3   0.919938 0.061402 0.769466 0.079030
H28   H     H_    0.928850 0.042438 0.623772 0.121929
H29   H     H_    0.954364 0.090808 0.860963 0.184660
C50   C     C_3   0.890400 0.205657 0.812625 -0.716374
H30   H     H_    0.883359 0.234120 0.959964 0.284601
H31   H     H_    0.910971 0.310661 0.785530 0.184475
H32   H     H_    0.855196 0.182468 0.726200 0.243007
O17   O     O_3   0.855346 0.112680 0.221963 -0.533699
C51   C     C_3   0.848803 0.985727 0.309803 0.125928
H33   H     H_    0.828633 0.022502 0.433642 0.188411
H34   H     H_    0.883920 0.942580 0.350704 0.113754
C52   C     C_3   0.819416 0.846157 0.175879 -0.685026
H35   H     H_    0.838589 0.807194 0.050067 0.276762
H36   H     H_    0.815054 0.744635 0.242228 0.171168
H37   H     H_    0.783028 0.881236 0.136031 0.257302
O18   O     O_3   0.144927 0.900504 0.667744 -0.486532
C53   C     C_3   0.160878 0.961220 0.856421 0.122004
H38   H     H_    0.182329 0.874743 0.910789 0.158197
H39   H     H_    0.129889 0.990598 0.939843 0.119189
C54   C     C_3   0.193131 0.113984 0.877997 -0.711818
H40   H     H_    0.171990 0.206079 0.834527 0.229986
H41   H     H_    0.207430 0.158684 0.025068 0.188752
H42   H     H_    0.223932 0.090617 0.791623 0.273794
O19   O     O_3   0.956341 0.106860 0.217211 -0.785538
H43   H     H_    0.930671 0.028085 0.144526 0.373499
O20   O     O_3   0.045080 0.917995 0.673843 -0.785789
H44   H     H_    0.070725 0.006763 0.711223 0.358467

loop_
_geom_bond_atom_site_label_1
_geom_bond_atom_site_label_2
_ccdc_geom_bond_type
C48   H25   S    
C8    C26   A    
O13   C43   S    
C14   C18   A    
Cu2   O6    S    
C34   C42   A    
C32   N2    A    
Cu1   Cu2   S    
C42   N2    S    
C53   H38   S    
C28   H12   S    
O20   H44   S    
C39   C41   A    
C44   H15   S    
C33   H8    S    
C34   H7    S    
C50   H30   S    
C43   H14   S    
C19   C21   A    
C25   H9    S    
C54   H41   S    
C27   H11   S    
C9    C22   A    
C46   H22   S    
C51   H33   S    
Cu2   N3    S    
C7    O15   S    
C1    O3    A    
C3    C18   A    
C40   H4    S    
C23   O7    A    
C11   C37   A    
C20   O20   S    
C52   H36   S    
C22   O18   S    
H1    N3    S    
Cu1   O8    S    
C43   C44   S    
C12   C36   A    
C29   O9    S    
C24   O6    A    
C40   C42   A    
N3    N4    D    
Cu2   O3    S    
C26   H10   S    
C30   O10   S    
C2    O4    A    
Cu1   O4    S    
O16   C49   S    
C32   O11   S    
C5    C29   A    
C44   H16   S    
C10   C21   A    
C43   H13   S    
C13   C19   A    
C46   H21   S    
C14   C20   A    
C4    C6    A    
C54   H42   S    
C5    C7    A    
C9    C31   A    
C15   C26   A    
C6    C8    A    
Cu2   O2    S    
C46   H20   S    
O14   C45   S    
C8    O16   S    
C3    C9    A    
C47   H24   S    
Cu1   O5    S    
C35   H6    S    
O19   H43   S    
Cu1   N4    S    
C4    C17   A    
C31   O12   S    
C6    C30   A    
C29   N1    A    
C49   H28   S    
C48   H27   S    
C49   H29   S    
C38   O14   S    
C52   H37   S    
C4    C10   A    
C45   C46   S    
Cu1   O1    S    
C47   C48   S    
C39   H3    S    
O18   C53   S    
C50   H31   S    
C44   H17   S    
C16   C25   A    
C15   C17   A    
C37   O13   S    
C19   O19   S    
H2    N4    S    
C20   C22   A    
C3    C5    A    
C1    O1    A    
C53   H39   S    
C50   H32   S    
C49   C50   S    
O17   C51   S    
C12   C24   S    
C45   H19   S    
C7    C25   A    
C13   C17   A    
C33   C41   A    
C23   O5    A    
C11   C35   A    
C41   N1    S    
C37   C39   A    
C52   H35   S    
C38   C40   A    
C31   N1    A    
C47   H23   S    
C48   H26   S    
C51   H34   S    
C30   N2    A    
C11   C23   S    
C33   C35   A    
C34   C36   A    
C12   C38   A    
C53   C54   S    
C24   O8    A    
C10   C32   A    
C16   C18   A    
C45   H18   S    
C13   C16   A    
C27   C28   D    
C1    C27   S    
C14   C15   A    
Cu2   O7    S    
C2    C28   S    
O15   C47   S    
C54   H40   S    
C21   O17   S    
C36   H5    S    
C2    O2    A    
C51   C52   S    
