data_mof_unit_35495.cif
_audit_creation_date              2012-12-11T17:41:34-0500
_audit_creation_method            fapswitch 2.2
_symmetry_space_group_name_H-M    P1
_symmetry_Int_Tables_number       1
_space_group_crystal_system       triclinic
_cell_length_a                    15.50642
_cell_length_b                    14.765908
_cell_length_c                    15.110341
_cell_angle_alpha                 109.566503
_cell_angle_beta                  121.394943
_cell_angle_gamma                 58.938072
_cell_volume                      2519.4118729

loop_
_atom_site_label
_atom_site_type_symbol
_atom_type_description
_atom_site_fract_x
_atom_site_fract_y
_atom_site_fract_z
_atom_type_partial_charge
C1    C     C_R   0.802809 0.936797 0.772974 -0.143025
C2    C     C_R   0.242934 0.007950 0.209464 -0.128595
C3    C     C_R   0.132385 0.273994 0.472938 0.152269
C4    C     C_R   0.791063 0.697006 0.437754 0.147319
C5    C     C_R   0.503144 0.325972 0.554712 0.052449
C6    C     C_R   0.498260 0.699464 0.568528 0.067958
C7    C     C_R   0.501529 0.025100 0.824946 0.049962
C8    C     C_R   0.503543 0.068249 0.205012 0.059183
C9    C     C_R   0.681985 0.677309 0.896543 -0.116980
C10   C     C_R   0.288017 0.402489 0.196095 -0.108696
C11   C     C_R   0.614133 0.784252 0.912342 -0.123623
C12   C     C_R   0.370605 0.313364 0.170576 -0.139674
C13   C     C_R   0.661491 0.856764 0.970734 0.127124
C14   C     C_R   0.341343 0.253402 0.073902 0.119182
C15   C     C_R   0.777664 0.820837 0.013279 -0.192399
C16   C     C_R   0.228027 0.285345 0.002877 -0.174158
C17   C     C_R   0.844946 0.714231 0.994875 -0.118615
C18   C     C_R   0.145729 0.374548 0.028768 -0.110369
C19   C     C_R   0.797131 0.642419 0.936732 -0.104277
C20   C     C_R   0.175668 0.432939 0.125331 -0.104950
C21   C     C_R   0.595731 0.987856 0.094912 -0.233792
C22   C     C_R   0.428078 0.138301 0.951973 -0.249807
C23   C     C_R   0.198567 0.275193 0.438628 -0.144934
C24   C     C_R   0.760447 0.708207 0.513497 -0.138920
C25   C     C_R   0.511770 0.076765 0.118274 0.058757
C26   C     C_R   0.506618 0.043666 0.926138 0.068078
C27   C     C_R   0.428464 0.155574 0.048557 0.020625
C28   C     C_R   0.590632 0.967023 0.997822 0.008490
C29   C     C_2   0.014942 0.348335 0.450058 -0.295409
C30   C     C_2   0.853586 0.596411 0.392107 -0.286602
C31   C     C_2   0.941303 0.405736 0.366062 0.157214
C32   C     C_2   0.847066 0.504134 0.377764 0.150108
C33   C     C_2   0.985743 0.948092 0.842535 -0.221839
C34   C     C_2   0.149664 0.882534 0.102715 -0.220655
C35   C     C_R   0.197627 0.893725 0.642782 -0.122253
C36   C     C_R   0.914976 0.267769 0.801204 -0.126235
C37   C     C_R   0.296487 0.802866 0.651250 -0.144162
C38   C     C_R   0.814226 0.337648 0.732159 -0.178615
C39   C     C_R   0.294412 0.714827 0.576943 0.115646
C40   C     C_R   0.712508 0.362801 0.730394 0.110722
C41   C     C_R   0.191391 0.719038 0.494733 -0.176491
C42   C     C_R   0.713894 0.315016 0.797844 -0.161481
C43   C     C_R   0.092663 0.809978 0.486827 -0.106549
C44   C     C_R   0.814850 0.244422 0.866043 -0.093931
C45   C     C_R   0.594438 0.230846 0.556193 -0.137479
C46   C     C_R   0.406945 0.781995 0.510119 -0.149385
C47   C     C_R   0.095780 0.897224 0.560736 -0.090852
C48   C     C_R   0.915341 0.221933 0.868627 -0.108315
C49   C     C_R   0.403431 0.520266 0.582767 -0.241744
C50   C     C_R   0.601124 0.536124 0.655942 -0.263035
C51   C     C_R   0.504866 0.429369 0.606431 0.061745
C52   C     C_R   0.498648 0.620282 0.607761 0.061170
C53   C     C_R   0.605267 0.441966 0.661952 0.031306
C54   C     C_R   0.399635 0.618130 0.587605 0.025859
C55   C     C_2   0.041552 0.883015 0.917027 -0.108989
C56   C     C_2   0.135698 0.894543 0.011502 -0.109746
C57   C     C_R   0.406931 0.041455 0.731270 -0.141945
C58   C     C_R   0.593985 0.016359 0.289320 -0.150471
C59   C     C_R   0.409001 0.306811 0.484681 -0.121947
C60   C     C_R   0.591138 0.709635 0.588719 -0.131453
C61   C     C_R   0.593947 0.971453 0.805275 -0.113386
C62   C     C_R   0.409324 0.086907 0.209873 -0.129295
C63   C     C_R   0.195333 0.184345 0.527049 -0.148439
C64   C     C_R   0.759153 0.798532 0.419100 -0.138619
C65   C     C_R   0.805288 0.027276 0.683499 -0.131585
C66   C     C_R   0.241722 0.915482 0.299862 -0.149158
C67   C     C_R   0.868103 0.973006 0.771439 0.152747
C68   C     C_R   0.210922 0.931793 0.200092 0.148110
H1    H     H_    0.829460 0.879243 0.821292 0.089586
H2    H     H_    0.229689 0.041955 0.148005 0.088560
H3    H     H_    0.105123 0.846385 0.105111 0.127765
H4    H     H_    0.022653 0.993093 0.841461 0.130794
H5    H     H_    0.849372 0.559540 0.924075 0.108499
H6    H     H_    0.111783 0.501690 0.145337 0.095580
H7    H     H_    0.645466 0.621197 0.855021 0.125851
H8    H     H_    0.311144 0.447693 0.270953 0.111924
H9    H     H_    0.525359 0.809999 0.882498 0.101177
H10   H     H_    0.457214 0.290570 0.226508 0.114536
H11   H     H_    0.815742 0.875355 0.060579 0.110729
H12   H     H_    0.203162 0.239944 0.928447 0.101354
H13   H     H_    0.934300 0.686943 0.027083 0.104397
H14   H     H_    0.058640 0.398007 0.974213 0.111165
H15   H     H_    0.657560 0.925524 0.147195 0.131984
H16   H     H_    0.365758 0.197258 0.896238 0.131691
H17   H     H_    0.916267 0.596240 0.379008 0.131657
H18   H     H_    0.990986 0.364209 0.511597 0.127974
H19   H     H_    0.019266 0.967514 0.554456 0.094845
H20   H     H_    0.993608 0.169433 0.923361 0.098132
H21   H     H_    0.174877 0.327816 0.387199 0.089523
H22   H     H_    0.776858 0.646256 0.550383 0.097239
H23   H     H_    0.199992 0.961340 0.699981 0.101175
H24   H     H_    0.992886 0.249541 0.802774 0.100552
H25   H     H_    0.374674 0.801172 0.715354 0.107886
H26   H     H_    0.815827 0.371706 0.680047 0.105162
H27   H     H_    0.187551 0.652511 0.436281 0.102912
H28   H     H_    0.636980 0.333382 0.798495 0.118383
H29   H     H_    0.013686 0.812838 0.423305 0.100737
H30   H     H_    0.815369 0.208480 0.918184 0.120908
H31   H     H_    0.326789 0.514737 0.557273 0.124259
H32   H     H_    0.678408 0.542834 0.688540 0.123032
H33   H     H_    0.681387 0.214377 0.596382 0.119485
H34   H     H_    0.320159 0.806373 0.486722 0.117502
H35   H     H_    0.320828 0.077871 0.718477 0.095156
H36   H     H_    0.680154 0.999245 0.315781 0.090909
H37   H     H_    0.323152 0.363696 0.461289 0.091191
H38   H     H_    0.676310 0.668241 0.643037 0.090544
H39   H     H_    0.680493 0.946665 0.860293 0.105745
H40   H     H_    0.323420 0.133031 0.160058 0.106144
H41   H     H_    0.164242 0.152342 0.553180 0.094263
H42   H     H_    0.772109 0.818629 0.365770 0.096661
H43   H     H_    0.837004 0.052294 0.651378 0.096111
H44   H     H_    0.227907 0.862134 0.320225 0.101116
H45   H     H_    0.179411 0.930876 0.008168 0.126861
H46   H     H_    0.006426 0.836619 0.918545 0.126483
N1    N     N_R   0.705410 0.966550 0.689210 -0.043861
N2    N     N_R   0.294590 0.033450 0.310790 -0.045346
N3    N     N_R   0.294590 0.188320 0.465660 -0.042558
N4    N     N_R   0.705410 0.811680 0.534340 -0.042890
N5    N     N_R   0.556610 0.157790 0.497330 -0.041872
N6    N     N_R   0.443390 0.842210 0.502670 -0.039407
N7    N     N_R   0.443390 0.997080 0.657540 -0.036698
N8    N     N_R   0.556610 0.002920 0.342460 -0.036669
N9    N     N_R   0.443390 0.203250 0.451380 -0.038553
N10   N     N_R   0.556610 0.796750 0.548620 -0.040944
N11   N     N_R   0.556610 0.951620 0.703500 -0.040424
N12   N     N_R   0.443390 0.048380 0.296500 -0.039677
N13   N     N_R   0.294590 0.131500 0.522480 -0.039788
N14   N     N_R   0.705410 0.868500 0.477520 -0.042701
N15   N     N_R   0.705410 0.023370 0.632390 -0.044123
N16   N     N_R   0.294590 0.976630 0.367610 -0.041719
Ni1   Ni    Ni4+2 0.629830 0.882720 0.617850 0.212471
Ni2   Ni    Ni4+2 0.370170 0.117280 0.382150 0.211170
Ni3   Ni    Ni4+2 0.629830 0.013030 0.487540 0.206504
Ni4   Ni    Ni4+2 0.370170 0.986970 0.512460 0.214662
C69   C     C_3   0.756030 0.496581 0.384016 -0.420753
C70   C     C_3   0.712237 0.419345 0.296961 -0.255209
C71   C     C_3   0.621914 0.412492 0.305536 -0.916613
H47   H     H_    0.655887 0.383501 0.381170 0.259443
H48   H     H_    0.550107 0.491581 0.299049 0.266460
H49   H     H_    0.591879 0.356233 0.241628 0.247928
H50   H     H_    0.676401 0.446875 0.220055 0.194046
H51   H     H_    0.781399 0.338602 0.301371 0.201525
H52   H     H_    0.790006 0.469751 0.460754 0.174164
H53   H     H_    0.683378 0.575035 0.376344 0.206131
C72   C     C_3   0.962466 0.387202 0.272285 -0.422083
C73   C     C_3   0.855418 0.416839 0.170179 -0.269988
C74   C     C_3   0.880510 0.413135 0.083523 -0.909373
H54   H     H_    0.913942 0.471833 0.103749 0.256115
H55   H     H_    0.942751 0.332653 0.071403 0.263844
H56   H     H_    0.802594 0.433143 0.010128 0.259567
H57   H     H_    0.818361 0.360396 0.146807 0.190460
H58   H     H_    0.793119 0.498496 0.179549 0.210307
H59   H     H_    0.004894 0.436302 0.287517 0.179227
H60   H     H_    0.016391 0.302009 0.260156 0.195946

loop_
_geom_bond_atom_site_label_1
_geom_bond_atom_site_label_2
_ccdc_geom_bond_type
C33   C55   D    
C66   C68   A    
C55   C56   S    
C34   C56   D    
N9    Ni2   S    
C3    C23   A    
C74   H54   S    
N13   Ni4   S    
C35   C47   A    
C49   C51   A    
C72   C73   S    
C4    C30   S    
C69   C70   S    
C39   C41   A    
N1    Ni1   S    
C46   H34   S    
N5    Ni3   S    
C7    C26   S    
N4    N14   A    
C42   H28   S    
C74   H55   S    
C2    C68   A    
C4    C24   A    
C39   C54   S    
C62   H40   S    
C49   C54   A    
C6    C52   S    
C60   N10   A    
C3    C29   S    
N3    Ni2   S    
C65   H43   S    
C70   H51   S    
N4    Ni1   S    
C11   H9    S    
C33   H4    S    
C8    C58   A    
C73   H58   S    
C2    N2    A    
C9    C19   A    
C15   H11   S    
C21   H15   S    
C10   C20   A    
C65   C67   A    
C12   H10   S    
C50   C52   A    
C56   H45   S    
C48   H20   S    
C13   C28   S    
C14   C27   S    
C17   H13   S    
N6    Ni4   S    
C72   H59   S    
C36   H24   S    
C40   C42   A    
C38   C40   A    
C8    C25   S    
C41   C43   A    
N16   Ni4   S    
C42   C44   A    
C10   C12   A    
C52   C54   A    
C59   N9    A    
C57   H35   S    
C71   H49   S    
C58   N8    A    
C50   C53   A    
C5    C59   A    
C37   H25   S    
C6    C60   A    
C19   H5    S    
C74   H56   S    
C34   C68   S    
C62   N12   A    
C64   N14   A    
C5    C45   A    
C1    H1    S    
C1    C67   A    
N10   Ni1   S    
C51   C53   A    
C47   H19   S    
N8    N12   A    
N8    Ni3   S    
N7    N11   A    
C70   H50   S    
C49   H31   S    
C9    C11   A    
N11   Ni1   S    
C64   H42   S    
C31   C32   S    
N2    Ni2   S    
N12   Ni2   S    
C38   H26   S    
C23   H21   S    
C46   N6    A    
C59   H37   S    
C30   H17   S    
N3    N13   A    
C29   H18   S    
C45   H33   S    
N15   Ni3   S    
C72   H60   S    
C16   C18   A    
C69   H53   S    
C21   C28   A    
C12   C14   A    
C18   H14   S    
C3    C63   A    
C22   C27   A    
C13   C15   A    
N7    Ni4   S    
C14   C16   A    
C58   H36   S    
C60   H38   S    
C33   C67   S    
C73   C74   S    
N1    N15   A    
C15   C17   A    
C21   C25   A    
C44   H30   S    
C6    C46   A    
C35   C37   A    
C71   H48   S    
C10   H8    S    
C43   H29   S    
C70   C71   S    
C24   H22   S    
C23   N3    A    
C32   C69   S    
C65   N15   A    
C20   H6    S    
C55   H46   S    
N5    N9    A    
C25   C27   A    
C9    H7    S    
C71   H47   S    
C4    C64   A    
C26   C28   A    
C66   H44   S    
C36   C38   A    
C29   C31   D    
N14   Ni3   S    
C30   C32   D    
C11   C13   A    
C45   N5    A    
C41   H27   S    
C69   H52   S    
C24   N4    A    
C17   C19   A    
C36   C48   A    
C18   C20   A    
C61   H39   S    
C63   N13   A    
C50   H32   S    
C57   N7    A    
C73   H57   S    
C31   C72   S    
C44   C48   A    
N2    N16   A    
C37   C39   A    
C40   C53   S    
C22   C26   A    
C8    C62   A    
C5    C51   S    
C61   N11   A    
C1    N1    A    
C16   H12   S    
C2    H2    S    
C43   C47   A    
C34   H3    S    
C7    C57   A    
C7    C61   A    
N6    N10   A    
C22   H16   S    
C63   H41   S    
C66   N16   A    
C35   H23   S    
