data_mof_unit_58819.cif
_audit_creation_date              2012-10-26T19:03:00-0400
_audit_creation_method            fapswitch 2.2
_symmetry_space_group_name_H-M    P1
_symmetry_Int_Tables_number       1
_space_group_crystal_system       triclinic
_cell_length_a                    15.034777
_cell_length_b                    11.038033
_cell_length_c                    9.827274
_cell_angle_alpha                 111.048643
_cell_angle_beta                  98.046056
_cell_angle_gamma                 91.114046
_cell_volume                      1502.78190845

loop_
_atom_site_label
_atom_site_type_symbol
_atom_type_description
_atom_site_fract_x
_atom_site_fract_y
_atom_site_fract_z
_atom_type_partial_charge
C1    C     C_R   0.493434 0.254165 0.440719 0.560877
C2    C     C_2   0.492300 0.489619 0.918787 -0.022273
C3    C     C_R   0.328914 0.501064 0.501675 0.546659
C4    C     C_R   0.671101 0.498965 0.498358 0.549306
C5    C     C_R   0.805588 0.541666 0.399329 -0.132181
C6    C     C_R   0.194579 0.459339 0.601423 -0.132232
C7    C     C_R   0.767467 0.496538 0.495696 -0.020558
C8    C     C_R   0.232648 0.504328 0.504903 -0.021779
C9    C     C_R   0.821623 0.451867 0.593091 -0.114009
C10   C     C_R   0.178665 0.550912 0.409164 -0.118931
C11   C     C_R   0.914757 0.452497 0.596049 0.032502
C12   C     C_R   0.506511 0.745833 0.559281 0.559924
C13   C     C_R   0.085750 0.552570 0.408332 0.032917
C14   C     C_R   0.953526 0.501280 0.501172 0.001892
C15   C     C_R   0.047018 0.504260 0.503626 0.001560
C16   C     C_R   0.898629 0.545992 0.402745 -0.026032
C17   C     C_R   0.101755 0.457649 0.600364 -0.028161
C18   C     C_R   0.969668 0.406528 0.692795 0.269808
C19   C     C_R   0.030975 0.601538 0.314399 0.256428
C20   C     C_3   0.952947 0.429710 0.927368 -0.103296
C21   C     C_3   0.070517 0.784522 0.275579 -0.132994
C22   C     C_R   0.062912 0.407994 0.692728 -0.105073
C23   C     C_R   0.937467 0.595286 0.310107 -0.123923
C24   C     C_2   0.489801 0.114879 0.407337 -0.127829
C25   C     C_2   0.510007 0.885115 0.592663 -0.127403
C26   C     C_2   0.501498 0.069550 0.516625 -0.160416
C27   C     C_2   0.498098 0.930438 0.483379 -0.161972
C28   C     C_2   0.507702 0.510379 0.081213 -0.022707
Cu1   Cu    Cu3+1 0.515770 0.521810 0.644910 0.939741
Cu2   Cu    Cu3+1 0.484230 0.478190 0.355090 0.940222
H1    H     H_    0.763045 0.576685 0.324789 0.115831
H2    H     H_    0.477543 0.048884 0.292584 0.104314
H3    H     H_    0.439744 0.417549 0.846003 0.142966
H4    H     H_    0.560258 0.582449 0.153998 0.142867
H5    H     H_    0.588994 0.622324 0.934228 0.201574
H6    H     H_    0.411011 0.377669 0.065770 0.202510
H7    H     H_    0.913089 0.391486 0.992042 0.146969
H8    H     H_    0.935428 0.531652 0.947211 0.135825
H9    H     H_    0.025302 0.427573 0.969043 0.161091
H10   H     H_    0.105136 0.821418 0.204064 0.146725
H11   H     H_    0.109328 0.826764 0.389383 0.123629
H12   H     H_    0.237014 0.422813 0.674628 0.116485
H13   H     H_    0.001395 0.818677 0.273460 0.120566
H14   H     H_    0.790658 0.416289 0.666144 0.172121
H15   H     H_    0.209628 0.586787 0.336341 0.170768
H16   H     H_    0.104798 0.368619 0.763515 0.115016
H17   H     H_    0.895340 0.629025 0.234051 0.105365
H18   H     H_    0.485771 0.864741 0.368428 0.156615
H19   H     H_    0.513739 0.135245 0.631579 0.157781
H20   H     H_    0.522352 0.951114 0.707412 0.105774
N1    N     N_2   0.460520 0.445420 0.137370 -0.351659
N2    N     N_2   0.539480 0.554580 0.862630 -0.352127
O1    O     O_R   0.508410 0.332340 0.577400 -0.498726
O2    O     O_3   0.068284 0.647495 0.219642 -0.604277
O3    O     O_R   0.491590 0.667660 0.422600 -0.499613
O4    O     O_R   0.481780 0.295500 0.332650 -0.487749
O5    O     O_R   0.518220 0.704500 0.667350 -0.487586
O6    O     O_R   0.383570 0.518390 0.622380 -0.498015
O7    O     O_R   0.616430 0.481610 0.377620 -0.497269
O8    O     O_R   0.356940 0.481550 0.377630 -0.495753
O9    O     O_R   0.643060 0.518450 0.622370 -0.496864
O10   O     O_3   0.930924 0.349522 0.777127 -0.585219

loop_
_geom_bond_atom_site_label_1
_geom_bond_atom_site_label_2
_ccdc_geom_bond_type
C27   H18   S    
C19   C23   A    
Cu2   N1    S    
C24   H2    S    
C11   C18   A    
C15   C17   A    
Cu1   Cu2   S    
C25   C27   D    
C20   H8    S    
Cu2   O3    S    
C17   C22   A    
C14   C15   A    
C12   C25   S    
C3    O8    A    
C10   H15   S    
C5    C7    A    
C28   H4    S    
C6    C17   A    
C21   H13   S    
Cu2   O7    S    
C20   H7    S    
C9    C11   A    
C26   C27   S    
H6    N1    S    
C2    N2    D    
C4    C7    S    
C21   H11   S    
C12   O5    A    
C6    C8    A    
C19   O2    S    
C22   H16   S    
C1    O4    A    
Cu1   O5    S    
Cu1   O1    S    
C16   C23   A    
Cu1   O9    S    
C13   C15   A    
C20   O10   S    
C21   O2    S    
C11   C14   A    
C14   C16   A    
C12   O3    A    
C23   H17   S    
C13   C19   A    
C4    O7    A    
C3    O6    A    
Cu2   O8    S    
Cu1   O6    S    
C2    H3    S    
C1    C24   S    
C8    C10   A    
C3    C8    S    
C6    H12   S    
C26   H19   S    
H5    N2    S    
C7    C9    A    
C20   H9    S    
C1    O1    A    
C25   H20   S    
C18   O10   S    
C5    C16   A    
C2    C28   S    
C5    H1    S    
C28   N1    D    
C18   C22   A    
Cu2   O4    S    
C4    O9    A    
C10   C13   A    
C24   C26   D    
C9    H14   S    
Cu1   N2    S    
C21   H10   S    
