data_mof_unit_66839.cif
_audit_creation_date              2012-12-11T14:35:07-0500
_audit_creation_method            fapswitch 2.2
_symmetry_space_group_name_H-M    P1
_symmetry_Int_Tables_number       1
_space_group_crystal_system       triclinic
_cell_length_a                    8.347365
_cell_length_b                    15.255935
_cell_length_c                    16.969672
_cell_angle_alpha                 110.094608
_cell_angle_beta                  98.564528
_cell_angle_gamma                 78.645917
_cell_volume                      1981.99768308

loop_
_atom_site_label
_atom_site_type_symbol
_atom_type_description
_atom_site_fract_x
_atom_site_fract_y
_atom_site_fract_z
_atom_type_partial_charge
Ba1   Ba    Ba6+2 0.364960 0.465930 0.541880 1.619785
Ba2   Ba    Ba6+2 0.824870 0.533990 0.458110 1.641710
C1    C     C_3   0.323574 0.149851 0.691998 -0.369254
C2    C     C_R   0.910560 0.537256 0.759187 -0.256042
C3    C     C_2   0.480771 0.394963 0.142103 -0.152106
C4    C     C_3   0.721284 0.294472 0.750569 0.377963
C5    C     C_2   0.448274 0.422608 0.222539 0.031037
C6    C     C_2   0.167511 0.501735 0.190593 -0.028924
C7    C     C_3   0.190490 0.451041 0.096809 -0.018974
C8    C     C_3   0.371431 0.437036 0.081746 -0.040485
C9    C     C_2   0.080193 0.490204 0.032382 -0.116428
C10   C     C_2   0.087889 0.449010 0.947222 0.168647
C11   C     C_R   0.812045 0.526560 0.903224 -0.068305
C12   C     C_3   0.226525 0.248136 0.702234 0.331074
C13   C     C_R   0.975026 0.488370 0.885018 -0.040390
C14   C     C_R   0.698704 0.565821 0.849804 -0.113701
C15   C     C_R   0.744982 0.569636 0.775321 0.040507
C16   C     C_3   0.774551 0.264833 0.828688 -0.031557
C17   C     C_R   0.022783 0.489735 0.808237 0.027532
C18   C     C_R   0.255797 0.761540 0.483845 -0.265906
C19   C     C_R   0.323356 0.807503 0.442684 0.009063
C20   C     C_R   0.239082 0.891096 0.432809 -0.176363
C21   C     C_R   0.109256 0.945553 0.480924 0.031095
C22   C     C_R   0.049603 0.901301 0.531457 0.122766
C23   C     C_3   0.931299 0.775815 0.728632 0.513299
C24   C     C_R   0.114902 0.805598 0.525129 0.019377
C25   C     C_R   0.875971 0.084447 0.498120 -0.189392
C26   C     C_R   0.815737 0.179732 0.512295 0.001258
C27   C     C_R   0.061292 0.198413 0.462414 0.024143
C28   C     C_3   0.517392 0.220663 0.270769 0.254933
C29   C     C_R   0.126080 0.101631 0.449824 0.096747
C30   C     C_R   0.037395 0.044256 0.475156 0.011823
C31   C     C_R   0.905181 0.235031 0.491136 -0.074676
C32   C     C_3   0.564715 0.115318 0.260531 0.006433
C33   C     C_3   0.461768 0.773320 0.668930 0.311349
C34   C     C_3   0.847987 0.875830 0.773422 -0.395207
C35   C     C_3   0.410600 0.880888 0.705716 -0.012477
C36   C     C_3   0.041881 0.263898 0.276320 0.257015
C37   C     C_3   0.047206 0.206695 0.182643 0.225228
C38   C     C_3   0.554920 0.042449 0.105952 -0.255333
C39   C     C_3   0.336537 0.004404 0.839590 -0.266643
C40   C     C_3   0.928998 0.267519 0.066973 -0.247222
C41   C     C_3   0.057817 0.044657 0.082003 -0.269659
C42   C     C_3   0.149349 0.746759 0.838970 -0.182108
C43   C     C_3   0.579498 0.586397 0.063982 -0.186361
C44   C     C_3   0.847989 0.857097 0.321974 -0.207474
C45   C     C_3   0.421366 0.682711 0.238458 0.491917
C46   C     C_3   0.981453 0.738054 0.009947 -0.284517
C47   C     C_3   0.186661 0.281054 0.927496 -0.240024
C48   C     C_3   0.422992 0.045176 0.430119 -0.184595
C49   C     C_3   0.970688 0.011498 0.666667 -0.269420
C50   C     C_3   0.899845 0.393234 0.583744 0.003198
C51   C     C_3   0.747446 0.133283 0.876607 -0.273761
C52   C     C_3   0.370111 0.694479 0.152124 -0.033386
C53   C     C_3   0.944305 0.718749 0.201439 0.542465
C54   C     C_3   0.858844 0.776103 0.142640 -0.014997
C55   C     C_2   0.290729 0.484621 0.248176 -0.254162
H1    H     H_    0.218960 0.257760 0.639953 0.071904
H2    H     H_    0.160369 0.217370 0.161842 0.042259
H3    H     H_    0.101073 0.251191 0.718668 -0.027808
H4    H     H_    0.314564 0.128277 0.746608 0.086730
H5    H     H_    0.792236 0.910520 0.726167 0.075475
H6    H     H_    0.750565 0.874256 0.810659 0.116527
H7    H     H_    0.938619 0.918512 0.816503 0.101643
H8    H     H_    0.454796 0.148672 0.687029 0.185018
H9    H     H_    0.904655 0.231047 0.823676 0.083190
H10   H     H_    0.504585 0.614728 0.231789 0.055155
H11   H     H_    0.290068 0.641927 0.114215 0.032357
H12   H     H_    0.645032 0.107584 0.316959 0.043665
H13   H     H_    0.594223 0.333333 0.754725 0.105175
H14   H     H_    0.273912 0.512512 0.314886 0.077232
H15   H     H_    0.989976 0.551829 0.055535 0.087891
H16   H     H_    0.793416 0.043676 0.507278 0.119627
H17   H     H_    0.269110 0.905932 0.380387 0.117097
H18   H     H_    0.805226 0.341313 0.747674 -0.075012
H19   H     H_    0.314121 0.691780 0.484484 0.060682
H20   H     H_    0.764236 0.327550 0.886616 0.029708
H21   H     H_    0.436150 0.230244 0.215283 -0.033673
H22   H     H_    0.761101 0.085183 0.186394 0.239966
H23   H     H_    0.452937 0.084673 0.257614 0.058085
H24   H     H_    0.632479 0.993101 0.056184 0.110398
H25   H     H_    0.508224 0.108035 0.089709 0.093060
H26   H     H_    0.450695 0.007858 0.107484 0.115058
H27   H     H_    0.251142 0.877635 0.787918 0.223722
H28   H     H_    0.224116 0.044614 0.817238 0.086101
H29   H     H_    0.445039 0.035175 0.838435 0.118419
H30   H     H_    0.325660 0.010771 0.905821 0.101881
H31   H     H_    0.038333 0.339379 0.283779 0.077000
H32   H     H_    0.800067 0.209645 0.129436 0.209434
H33   H     H_    0.812343 0.299930 0.040472 0.113264
H34   H     H_    0.351204 0.739053 0.648823 0.028417
H35   H     H_    0.982947 0.203630 0.017853 0.088810
H36   H     H_    0.014003 0.319970 0.087910 0.121229
H37   H     H_    0.145269 0.080453 0.207171 0.194847
H38   H     H_    0.074447 0.969834 0.079857 0.102376
H39   H     H_    0.160602 0.054172 0.052519 0.096063
H40   H     H_    0.939882 0.059168 0.045335 0.123495
H41   H     H_    0.837831 0.736086 0.685408 0.050297
H42   H     H_    0.906570 0.726563 0.825916 0.151827
H43   H     H_    0.190070 0.696227 0.874507 0.089737
H44   H     H_    0.135604 0.819841 0.884174 0.067423
H45   H     H_    0.532134 0.757219 0.613601 -0.021830
H46   H     H_    0.246717 0.735722 0.797491 0.170939
H47   H     H_    0.308574 0.680469 0.264772 -0.201654
H48   H     H_    0.492074 0.724746 0.068970 0.179986
H49   H     H_    0.701245 0.584705 0.046018 0.134102
H50   H     H_    0.498501 0.555447 0.006872 0.085775
H51   H     H_    0.599557 0.542870 0.105833 0.137624
H52   H     H_    0.298632 0.766487 0.161648 0.053085
H53   H     H_    0.060858 0.679715 0.175456 -0.071948
H54   H     H_    0.087522 0.808029 0.290939 0.149620
H55   H     H_    0.853361 0.922243 0.307661 0.066792
H56   H     H_    0.313450 0.905768 0.662749 0.012178
H57   H     H_    0.858938 0.873024 0.390567 0.146161
H58   H     H_    0.726695 0.835695 0.298057 0.177754
H59   H     H_    0.917766 0.839914 0.156287 0.054705
H60   H     H_    0.728913 0.802785 0.156441 0.102697
H61   H     H_    0.750001 0.718642 0.021290 0.201663
H62   H     H_    0.104083 0.736935 0.044925 0.108997
H63   H     H_    0.990979 0.682040 0.948103 0.123888
H64   H     H_    0.940931 0.807742 0.000171 0.108929
H65   H     H_    0.594023 0.349644 0.121936 0.090908
H66   H     H_    0.575838 0.595055 0.868023 0.106230
H67   H     H_    0.517002 0.916139 0.710039 0.067146
H68   H     H_    0.952624 0.548770 0.707002 0.056070
H69   H     H_    0.325710 0.379482 0.922696 0.215474
H70   H     H_    0.206367 0.221719 0.868455 0.112710
H71   H     H_    0.061758 0.285751 0.943865 0.095183
H72   H     H_    0.277416 0.265919 0.977880 0.095414
H73   H     H_    0.240392 0.076308 0.340557 0.190854
H74   H     H_    0.487321 0.976497 0.391215 0.087494
H75   H     H_    0.429870 0.043732 0.495533 0.133836
H76   H     H_    0.488993 0.099150 0.425631 0.121232
H77   H     H_    0.836488 0.909567 0.586119 0.210791
H78   H     H_    0.935588 0.251169 0.299719 0.083898
H79   H     H_    0.860360 0.048992 0.700445 0.165318
H80   H     H_    0.035922 0.065110 0.660794 0.128830
H81   H     H_    0.049140 0.969870 0.703964 0.118360
H82   H     H_    0.719435 0.345910 0.484834 0.231853
H83   H     H_    0.962975 0.353565 0.626326 -0.031481
H84   H     H_    0.801669 0.440342 0.616724 0.102739
H85   H     H_    0.967209 0.444454 0.576670 0.152688
H86   H     H_    0.554451 0.226131 0.841526 0.225034
H87   H     H_    0.697913 0.066314 0.846959 0.114526
H88   H     H_    0.715303 0.163371 0.942719 0.100531
H89   H     H_    0.275987 0.097828 0.633870 0.060334
H90   H     H_    0.882754 0.115829 0.874573 0.103992
H91   H     H_    0.453837 0.254939 0.328283 0.089523
N1    N     N_2   0.651994 0.063412 0.186340 -0.421899
N2    N     N_2   0.254636 0.059792 0.395255 -0.447624
N3    N     N_2   0.921232 0.949535 0.584649 -0.441802
N4    N     N_2   0.841875 0.331281 0.503504 -0.424237
N5    N     N_2   0.675053 0.197844 0.830784 -0.404876
N6    N     N_2   0.353083 0.905939 0.788545 -0.392715
N7    N     N_2   0.901227 0.242303 0.137626 -0.413006
N8    N     N_2   0.055063 0.106205 0.168726 -0.434893
N9    N     N_2   0.994995 0.727559 0.789977 -0.443625
N10   N     N_2   0.510958 0.683105 0.107236 -0.400136
N11   N     N_2   0.979657 0.782773 0.285488 -0.437626
N12   N     N_2   0.863907 0.719883 0.054480 -0.434933
N13   N     N_2   0.206274 0.367549 0.915539 -0.398177
O1    O     O_2   0.426270 0.593440 0.713420 -0.459299
O2    O     O_2   0.659071 0.808120 0.441590 -0.498453
O3    O     O_3   0.500175 0.758364 0.291004 -0.609422
O4    O     O_3   0.647730 0.570260 0.604850 -0.522578
O5    O     O_3   0.070240 0.381690 0.454200 -0.478309
O6    O     O_2   0.845720 0.730180 0.545110 -0.482108
O7    O     O_3   0.060108 0.782157 0.686973 -0.664943
O8    O     O_2   0.852230 0.481955 0.197231 -0.484508
O9    O     O_3   0.845467 0.655258 0.205210 -0.565901
O10   O     O_3   0.203920 0.417520 0.657950 -0.493650
O11   O     O_2   0.360833 0.490866 0.802991 -0.497633
O12   O     O_3   0.183922 0.236369 0.320722 -0.700484
O13   O     O_3   0.559241 0.741055 0.730892 -0.645507
O14   O     O_3   0.307867 0.315746 0.766141 -0.601413
O15   O     O_2   0.343970 0.269780 0.454840 -0.462429
O16   O     O_3   0.615710 0.361880 0.613490 -0.501328
O17   O     O_2   0.492563 0.203702 0.566251 -0.500367
O18   O     O_3   0.731938 0.212358 0.680222 -0.613863
O19   O     O_2   0.763420 0.406520 0.286530 -0.445815
O20   O     O_3   0.541980 0.429670 0.395140 -0.506324
O21   O     O_3   0.985790 0.582400 0.342040 -0.448493
O22   O     O_3   0.657920 0.261242 0.281683 -0.655778
O23   O     O_3   0.119470 0.618230 0.545790 -0.458652
O24   O     O_3   0.574000 0.638040 0.386500 -0.465667
P1    P     P_3+3 0.589930 0.617420 0.700180 0.946924
P2    P     P_3+3 0.161520 0.277720 0.428790 0.973751
P3    P     P_3+3 0.658786 0.239437 0.588122 0.943920
P4    P     P_3+3 0.599780 0.382500 0.299810 0.956358
P5    P     P_3+3 0.515448 0.755118 0.393794 0.966168
P6    P     P_3+3 0.223388 0.429932 0.763840 0.949085
P7    P     P_3+3 0.031367 0.737442 0.576522 0.936307
P8    P     P_3+3 0.964950 0.558145 0.231994 0.980746

loop_
_geom_bond_atom_site_label_1
_geom_bond_atom_site_label_2
_ccdc_geom_bond_type
C53   C54   S    
Ba1   O15   S    
C51   N5    S    
C44   H55   S    
C4    O18   S    
C40   H36   S    
C54   H60   S    
H61   N12   S    
Ba2   P4    S    
C33   H45   S    
C4    H18   S    
C46   H63   S    
C33   H34   S    
Ba1   P1    S    
C13   C17   A    
O6    P7    D    
C46   N12   S    
O16   P3    S    
C44   H58   S    
C33   C35   S    
C14   H66   S    
C22   C24   A    
H27   N6    S    
O19   P4    D    
C26   P3    S    
O14   P6    S    
C36   C37   S    
O3    P5    S    
H86   N5    S    
C52   H11   S    
C44   N11   S    
C1    H4    S    
C27   C31   A    
H82   N4    S    
C51   H90   S    
C39   H30   S    
C18   H19   S    
Ba1   Ba2   S    
Ba2   O21   S    
H54   N11   S    
C32   H23   S    
C10   N13   S    
C2    C17   A    
O20   P4    S    
Ba1   O23   S    
O4    P1    S    
C29   C30   A    
C12   H1    S    
C14   C15   A    
H73   N2    S    
C41   H38   S    
C21   C22   A    
O23   P7    S    
H69   N13   S    
C7    C8    S    
Ba2   O5    S    
C53   O9    S    
C47   N13   S    
C43   H51   S    
H22   N1    S    
O17   P3    D    
C53   N11   S    
C49   N3    S    
C23   O7    S    
C19   C20   A    
C42   N9    S    
C38   H26   S    
C1    H8    S    
Ba2   O19   S    
C34   H5    S    
O22   P4    S    
C45   H10   S    
C32   N1    S    
C46   H62   S    
Ba1   P2    S    
O11   P6    D    
C47   H70   S    
C4    C16   S    
C28   C32   S    
O5    P2    S    
C38   H25   S    
O24   P5    S    
C45   O3    S    
C46   H64   S    
C3    C5    D    
C29   N2    S    
Ba1   O20   S    
C9    H15   S    
C6    C7    S    
C36   O12   S    
O8    P8    D    
O18   P3    S    
C47   H72   S    
C3    H65   S    
C48   H76   S    
C50   H85   S    
C27   P2    S    
C52   H52   S    
C37   N7    S    
C40   H33   S    
Ba2   O20   S    
C12   O14   S    
C39   H29   S    
C22   N3    S    
C6    C55   D    
C52   N10   S    
C35   H67   S    
C49   H79   S    
C48   N2    S    
H48   N10   S    
C32   H12   S    
C10   C13   S    
Ba1   O4    S    
C15   P1    S    
C50   N4    S    
C37   H2    S    
C51   H88   S    
C41   H39   S    
C54   H59   S    
O10   P6    S    
C6    P8    S    
O21   P8    S    
Ba2   O23   S    
C36   H78   S    
C55   H14   S    
C7    C9    S    
Ba2   O4    S    
C16   N5    S    
C48   H75   S    
C45   C52   S    
C2    C15   A    
C2    H68   S    
Ba1   O1    S    
H42   N9    S    
C53   H53   S    
C23   N9    S    
C20   H17   S    
C41   N8    S    
C34   H6    S    
C49   H80   S    
C12   H3    S    
C43   H49   S    
O15   P2    D    
O1    P1    D    
C39   N6    S    
C4    H13   S    
C47   H71   S    
O12   P2    S    
C24   P7    S    
C45   H47   S    
C25   C30   A    
C33   O13   S    
C35   N6    S    
C43   N10   S    
C41   H40   S    
C44   H57   S    
C31   N4    S    
C26   C31   A    
O9    P8    S    
C42   H44   S    
C28   O22   S    
C28   H91   S    
C1    C12   S    
C16   H9    S    
C39   H28   S    
C50   H84   S    
O7    P7    S    
C37   N8    S    
C38   H24   S    
C51   H87   S    
C21   C30   S    
C11   C13   A    
C40   N7    S    
Ba2   O24   S    
C3    C8    S    
C27   C29   A    
C25   H16   S    
O13   P1    S    
C42   H43   S    
C19   P5    S    
C18   C24   A    
Ba1   O5    S    
C16   H20   S    
H77   N3    S    
C50   H83   S    
Ba1   O10   S    
C38   N1    S    
O2    P5    D    
C40   H35   S    
C42   H46   S    
H32   N7    S    
C48   H74   S    
C23   C34   S    
C28   H21   S    
C49   H81   S    
C23   H41   S    
C35   H56   S    
C18   C19   A    
C1    H89   S    
H37   N8    S    
C11   C14   A    
C36   H31   S    
C25   C26   A    
C20   C21   A    
C5    P4    S    
C34   H7    S    
Ba1   O16   S    
Ba2   O6    S    
C5    C55   S    
C43   H50   S    
C9    C10   D    
C17   P6    S    
C54   N12   S    
