data_mof_unit_41928.cif
_audit_creation_date              2012-12-10T18:08:18-0500
_audit_creation_method            fapswitch 2.2
_symmetry_space_group_name_H-M    P1
_symmetry_Int_Tables_number       1
_space_group_crystal_system       triclinic
_cell_length_a                    12.693686
_cell_length_b                    12.983012
_cell_length_c                    14.166017
_cell_angle_alpha                 90.737899
_cell_angle_beta                  102.583808
_cell_angle_gamma                 83.056572
_cell_volume                      2261.58228236

loop_
_atom_site_label
_atom_site_type_symbol
_atom_type_description
_atom_site_fract_x
_atom_site_fract_y
_atom_site_fract_z
_atom_type_partial_charge
C1    C     C_R   0.439401 0.691774 0.489947 0.981785
C2    C     C_R   0.517594 0.041240 0.556837 -0.008810
C3    C     C_R   0.587925 0.015592 0.647975 -0.230601
C4    C     C_R   0.501663 0.500130 0.670702 0.949824
C5    C     C_R   0.587298 0.916950 0.690422 0.123633
C6    C     C_R   0.523542 0.843791 0.637280 0.422482
C7    C     C_R   0.532661 0.126313 0.502991 0.465554
C8    C     C_R   0.662750 0.180012 0.641910 0.344701
C9    C     C_R   0.399761 0.802557 0.482386 -0.258138
C10   C     C_R   0.087461 0.340004 0.375344 -0.283659
C11   C     C_R   0.797468 0.634406 0.606740 0.024441
C12   C     C_1   0.495682 0.499020 0.227160 -0.177131
C13   C     C_R   0.900834 0.665216 0.631378 -0.253005
C14   C     C_R   0.983441 0.613938 0.592006 -0.174977
C15   C     C_R   0.962303 0.531422 0.527431 0.042206
C16   C     C_R   0.560624 0.308497 0.515228 0.899944
C17   C     C_R   0.855150 0.503017 0.504911 0.231340
C18   C     C_R   0.042224 0.476596 0.483824 -0.009116
C19   C     C_R   0.012322 0.394758 0.419982 0.090680
C20   C     C_R   0.907017 0.368367 0.399619 -0.249412
C21   C     C_R   0.829262 0.422452 0.441160 -0.199348
C22   C     C_R   0.150658 0.499379 0.500065 -0.107928
C23   C     C_R   0.656761 0.089576 0.692109 0.456112
C24   C     C_R   0.191720 0.366046 0.391767 0.602087
C25   C     C_R   0.498431 0.499621 0.329319 0.844936
C26   C     C_1   0.504521 0.500718 0.772876 -0.159916
C27   C     C_1   0.504101 0.500683 0.858121 0.005477
C28   C     C_1   0.501580 0.500201 0.957655 0.022439
C29   C     C_1   0.498883 0.499654 0.042424 0.021644
C30   C     C_1   0.496251 0.499118 0.141939 0.006271
C31   C     C_3   0.761363 0.845979 0.791406 -0.710826
C32   C     C_3   0.078557 0.973286 0.350598 -0.717679
C33   C     C_R   0.595842 0.201046 0.548803 -0.426320
C34   C     C_R   0.311359 0.840293 0.405899 0.351566
C35   C     C_R   0.274524 0.946520 0.398576 0.101567
C36   C     C_R   0.337593 0.016383 0.455702 0.418968
C37   C     C_R   0.437137 0.977629 0.518119 -0.006817
C38   C     C_R   0.454296 0.873168 0.546353 -0.124193
H1    H     H_    0.884249 0.306122 0.350403 0.156318
H2    H     H_    0.765765 0.760347 0.786214 0.196912
H3    H     H_    0.811611 0.864960 0.862421 0.265469
H4    H     H_    0.795836 0.877209 0.733508 0.254265
H5    H     H_    0.663140 0.071893 0.826816 0.346941
H6    H     H_    0.519089 0.186277 0.374208 0.317622
H7    H     H_    0.313179 0.718898 0.324421 0.331831
H8    H     H_    0.221688 0.132165 0.434285 0.333464
H9    H     H_    0.184276 0.052937 0.293813 0.246607
H10   H     H_    0.068589 0.023807 0.412747 0.206701
H11   H     H_    0.073403 0.891543 0.369551 0.280602
H12   H     H_    0.065173 0.277442 0.326266 0.164623
H13   H     H_    0.011196 0.997657 0.287811 0.237745
H14   H     H_    0.582478 0.728788 0.729254 0.329942
H15   H     H_    0.327390 0.340241 0.350045 0.390655
H16   H     H_    0.180422 0.559586 0.547891 0.152962
H17   H     H_    0.732604 0.674116 0.636520 0.148908
H18   H     H_    0.062267 0.640580 0.613169 0.145571
H19   H     H_    0.917021 0.728608 0.680638 0.157548
H20   H     H_    0.749140 0.400155 0.421436 0.206364
H21   H     H_    0.763350 0.279943 0.642281 0.353203
H22   H     H_    0.610798 0.857885 0.831230 0.228846
N1    N     N_R   0.222200 0.444680 0.454480 -0.152847
N2    N     N_R   0.776970 0.554780 0.545050 -0.126672
N3    N     N_2   0.650124 0.891327 0.785253 -0.304651
N4    N     N_2   0.181543 0.982508 0.325484 -0.257848
O1    O     O_R   0.366740 0.627160 0.478260 -0.600437
O2    O     O_3   0.716045 0.078910 0.785795 -0.685253
O3    O     O_3   0.485784 0.134169 0.404947 -0.700010
O4    O     O_3   0.259496 0.776528 0.336692 -0.717581
O5    O     O_3   0.301505 0.121002 0.457988 -0.688851
O6    O     O_3   0.518717 0.747679 0.676065 -0.792786
O7    O     O_3   0.260250 0.308977 0.342463 -0.737527
O8    O     O_R   0.544830 0.662520 0.507340 -0.587226
O9    O     O_R   0.410930 0.482320 0.611740 -0.601980
O10   O     O_R   0.589030 0.517680 0.640820 -0.578827
O11   O     O_R   0.455170 0.337480 0.492660 -0.571618
O12   O     O_R   0.633260 0.372840 0.521740 -0.639219
O13   O     O_R   0.410970 0.482320 0.359180 -0.627298
O14   O     O_R   0.589070 0.517680 0.388260 -0.612492
O15   O     O_3   0.728479 0.249941 0.689769 -0.698105
Zn1   Zn    Zn3+2 0.381090 0.476390 0.480580 0.975224
Zn2   Zn    Zn3+2 0.618910 0.523610 0.519420 0.943121

loop_
_geom_bond_atom_site_label_1
_geom_bond_atom_site_label_2
_ccdc_geom_bond_type
C15   C18   A    
C14   H18   S    
C24   N1    A    
C31   H4    S    
C16   O11   A    
C32   H10   S    
C3    C23   A    
C19   C20   A    
C2    C37   A    
C11   N2    A    
C22   H16   S    
C26   C27   T    
C37   C38   A    
H22   N3    S    
C25   O13   A    
C23   O2    S    
C28   C29   T    
C18   C19   A    
C5    C6    A    
C17   N2    A    
C13   H19   S    
N1    Zn1   S    
C8    C23   A    
C31   H2    S    
C5    N3    S    
C6    O6    S    
C34   C35   A    
H8    O5    S    
C2    C7    A    
C8    O15   S    
C1    O1    A    
C6    C38   A    
C35   N4    S    
O11   Zn1   S    
C4    O10   A    
O8    Zn2   S    
O1    Zn1   S    
C18   C22   A    
C13   C14   A    
C7    C33   A    
C1    O8    A    
C25   O14   A    
C31   N3    S    
C1    C9    S    
C32   N4    S    
C34   O4    S    
H9    N4    S    
C20   H1    S    
C10   C24   A    
C17   C21   A    
C35   C36   A    
C32   H13   S    
C29   C30   S    
C16   C33   S    
C10   C19   A    
H7    O4    S    
C4    O9    A    
N2    Zn2   S    
C9    C34   A    
O10   Zn2   S    
H21   O15   S    
C10   H12   S    
C11   H17   S    
C36   O5    S    
O13   Zn1   S    
C15   C17   A    
C36   C37   A    
C31   H3    S    
C12   C30   T    
C16   O12   A    
C3    C5    A    
O12   Zn2   S    
C4    C26   S    
C12   C25   S    
C2    C3    A    
C21   H20   S    
C22   N1    A    
C11   C13   A    
O14   Zn2   S    
H5    O2    S    
C9    C38   A    
O9    Zn1   S    
C8    C33   A    
C32   H11   S    
H14   O6    S    
C7    O3    S    
C20   C21   A    
C27   C28   S    
C14   C15   A    
H6    O3    S    
C24   O7    S    
H15   O7    S    
