data_mof_unit_7353.cif
_audit_creation_date              2013-03-05T15:48:50-0500
_audit_creation_method            fapswitch 2.2
_symmetry_space_group_name_H-M    P1
_symmetry_Int_Tables_number       1
_space_group_crystal_system       triclinic
_cell_length_a                    17.796631
_cell_length_b                    24.652979
_cell_length_c                    15.142638
_cell_angle_alpha                 90.309728
_cell_angle_beta                  126.378656
_cell_angle_gamma                 89.37164
_cell_volume                      5348.59891213

loop_
_atom_site_label
_atom_site_type_symbol
_atom_site_description
_atom_site_fract_x
_atom_site_fract_y
_atom_site_fract_z
_atom_type_partial_charge
C1    C     C_R   0.919447 0.861229 0.092471 -0.135471
C2    C     C_R   0.932942 0.147751 0.091272 -0.068548
C3    C     C_R   0.423935 0.358214 0.092405 -0.067061
C4    C     C_R   0.433196 0.647944 0.091121 -0.068033
H1    H     H_    0.955429 0.851255 0.177264 0.171275
H2    H     H_    0.974840 0.158546 0.176190 0.099268
H3    H     H_    0.461196 0.347959 0.177310 0.153000
H4    H     H_    0.475113 0.658808 0.176028 0.099161
N1    N     N_R   0.950530 0.896220 0.057200 -0.050799
N2    N     N_R   0.950530 0.103780 0.057200 -0.039694
N3    N     N_R   0.450530 0.396220 0.057200 -0.054175
N4    N     N_R   0.450530 0.603780 0.057200 -0.038289
C5    C     C_R   0.841097 0.148176 0.908325 -0.041728
C6    C     C_R   0.824765 0.862011 0.907765 0.018073
C7    C     C_R   0.341234 0.648250 0.908224 -0.044086
C8    C     C_R   0.329255 0.358841 0.907866 0.007240
H5    H     H_    0.795148 0.159128 0.823021 0.094348
H6    H     H_    0.770879 0.853733 0.822648 0.130370
H7    H     H_    0.295112 0.659095 0.822873 0.094934
H8    H     H_    0.276876 0.349475 0.822752 0.127369
N5    N     N_R   0.893330 0.103780 0.942800 -0.033262
N6    N     N_R   0.893330 0.896220 0.942800 -0.046655
N7    N     N_R   0.393330 0.603780 0.942800 -0.032312
N8    N     N_R   0.393330 0.396220 0.942800 -0.044969
C9    C     C_R   0.739310 0.954124 0.703587 -0.025199
C10   C     C_R   0.735640 0.045484 0.705829 0.050840
C11   C     C_R   0.239159 0.454037 0.704018 -0.005739
C12   C     C_R   0.235646 0.545445 0.705777 0.050250
H9    H     H_    0.726318 0.912349 0.677241 0.139346
H10   H     H_    0.716708 0.087390 0.681447 0.145775
H11   H     H_    0.226001 0.412178 0.678203 0.135005
H12   H     H_    0.216753 0.587332 0.681160 0.145298
N9    N     N_R   0.818150 0.971400 0.792440 -0.045740
N10   N     N_R   0.818150 0.028600 0.792440 -0.047263
N11   N     N_R   0.318150 0.471400 0.792440 -0.043869
N12   N     N_R   0.318150 0.528600 0.792440 -0.046395
C13   C     C_R   0.988361 0.046187 0.255929 0.010544
C14   C     C_R   0.996464 0.955276 0.265328 -0.134928
C15   C     C_R   0.486474 0.546213 0.253774 0.005560
C16   C     C_R   0.492717 0.455257 0.261497 -0.083682
H13   H     H_    0.981354 0.088251 0.267503 0.152982
H14   H     H_    0.007812 0.914954 0.297288 0.181863
H15   H     H_    0.479809 0.588283 0.265647 0.154755
H16   H     H_    0.501023 0.414590 0.290849 0.172501
N13   N     N_R   0.025710 0.028600 0.207560 -0.066102
N14   N     N_R   0.025710 0.971400 0.207560 -0.056740
N15   N     N_R   0.525710 0.528600 0.207560 -0.067995
N16   N     N_R   0.525710 0.471400 0.207560 -0.063193
C17   C     C_R   0.839285 0.839664 0.000565 -0.033468
C18   C     C_R   0.859058 0.175110 0.000018 -0.015160
C19   C     C_R   0.345679 0.335174 0.000549 0.018259
C20   C     C_R   0.359396 0.675369 0.999816 -0.016381
C21   C     C_R   0.686620 0.999559 0.647549 -0.042001
C22   C     C_R   0.186497 0.499467 0.647841 -0.047128
C23   C     C_R   0.966160 0.001141 0.290748 0.110742
C24   C     C_R   0.462477 0.501282 0.286879 0.122696
C25   C     C_R   0.266473 0.953536 0.246832 -0.127036
C26   C     C_R   0.267245 0.044883 0.247411 -0.127848
C27   C     C_R   0.766431 0.453506 0.246803 -0.129240
C28   C     C_R   0.767282 0.544856 0.247483 -0.127594
H17   H     H_    0.286004 0.911243 0.259680 0.099084
H18   H     H_    0.289715 0.086489 0.265522 0.094146
H19   H     H_    0.785871 0.411198 0.259437 0.099583
H20   H     H_    0.789842 0.586446 0.265701 0.093881
N17   N     N_R   0.181850 0.971400 0.207560 -0.043098
N18   N     N_R   0.181850 0.028600 0.207560 -0.042812
N19   N     N_R   0.681850 0.471400 0.207560 -0.044339
N20   N     N_R   0.681850 0.528600 0.207560 -0.043078
C29   C     C_R   0.934823 0.044522 0.689862 0.383922
C30   C     C_R   0.950711 0.954584 0.695774 0.446453
C31   C     C_R   0.435737 0.544735 0.690317 0.379834
C32   C     C_R   0.451670 0.454771 0.695977 0.450885
N21   N     N_R   0.974290 0.028600 0.792440 -0.122201
N22   N     N_R   0.974290 0.971400 0.792440 -0.107146
N23   N     N_R   0.474290 0.528600 0.792440 -0.123263
N24   N     N_R   0.474290 0.471400 0.792440 -0.108066
C33   C     C_R   0.044421 0.844180 0.913515 0.007579
C34   C     C_R   0.060922 0.150909 0.910818 -0.086160
C35   C     C_R   0.544577 0.344260 0.913312 0.006832
C36   C     C_R   0.560275 0.651217 0.910933 -0.081981
N25   N     N_R   0.049470 0.896220 0.942800 -0.039250
N26   N     N_R   0.049470 0.103780 0.942800 -0.065924
N27   N     N_R   0.549470 0.396220 0.942800 -0.039748
N28   N     N_R   0.549470 0.603780 0.942800 -0.066824
C37   C     C_R   0.151625 0.149636 0.093772 -0.124733
C38   C     C_R   0.143779 0.847886 0.093749 -0.153324
C39   C     C_R   0.651642 0.649611 0.093919 -0.117291
C40   C     C_R   0.643608 0.347825 0.093632 -0.162475
H21   H     H_    0.193488 0.161134 0.179126 0.118599
H22   H     H_    0.184415 0.836717 0.179330 0.097316
H23   H     H_    0.693603 0.660987 0.179326 0.113502
H24   H     H_    0.684066 0.336584 0.179169 0.097428
N29   N     N_R   0.106670 0.103780 0.057200 -0.056511
N30   N     N_R   0.106670 0.896220 0.057200 -0.050563
N31   N     N_R   0.606670 0.603780 0.057200 -0.056494
N32   N     N_R   0.606670 0.396220 0.057200 -0.051561
Ni1   Ni    Ni4+2 0.065600 0.934400 0.131190 0.226153
Ni2   Ni    Ni4+2 0.065600 0.065600 0.131190 0.237021
Ni3   Ni    Ni4+2 0.565600 0.434400 0.131190 0.225958
Ni4   Ni    Ni4+2 0.565600 0.565600 0.131190 0.238480
Ni5   Ni    Ni4+2 0.934400 0.065600 0.868810 0.269165
Ni6   Ni    Ni4+2 0.934400 0.934400 0.868810 0.313949
Ni7   Ni    Ni4+2 0.434400 0.565600 0.868810 0.271198
Ni8   Ni    Ni4+2 0.434400 0.434400 0.868810 0.317449
C41   C     C_R   0.322659 0.998628 0.275437 0.014815
C42   C     C_R   0.822661 0.498576 0.275583 0.013756
C43   C     C_R   0.922321 0.999608 0.627217 -0.076544
C44   C     C_R   0.423949 0.499924 0.627876 -0.076541
C45   C     C_R   0.110520 0.814332 0.005734 -0.121594
C46   C     C_R   0.126763 0.179696 0.004174 0.008667
C47   C     C_R   0.610312 0.314289 0.005537 -0.119909
C48   C     C_R   0.626219 0.679892 0.004395 -0.008653
C49   C     C_3   0.916063 0.062368 0.387508 0.083742
C50   C     C_3   0.861178 0.960598 0.340212 -0.014273
C51   C     C_3   0.416578 0.563013 0.387688 0.089665
C52   C     C_3   0.357183 0.462150 0.337793 0.016183
C53   C     C_3   0.885931 0.057689 0.465250 0.231068
C54   C     C_3   0.861920 0.955867 0.444176 0.421354
C55   C     C_3   0.387120 0.558327 0.466057 0.225756
C56   C     C_3   0.360882 0.456550 0.443716 0.413918
H25   H     H_    0.920148 0.091216 0.525208 0.210032
H26   H     H_    0.900503 0.918279 0.485298 0.205840
H27   H     H_    0.422130 0.591639 0.526438 0.208438
H28   H     H_    0.399647 0.418670 0.483134 0.201565
H29   H     H_    0.095593 0.005281 0.497924 0.222316
H30   H     H_    0.046766 0.939988 0.478253 0.219425
H31   H     H_    0.593601 0.503312 0.493390 0.222804
H32   H     H_    0.541864 0.438853 0.472929 0.215779
H33   H     H_    0.065527 0.031163 0.619797 0.243242
H34   H     H_    0.061246 0.960424 0.632174 0.239960
H35   H     H_    0.566466 0.530297 0.617647 0.243754
H36   H     H_    0.560919 0.459726 0.629589 0.239573
C57   C     C_3   0.033144 0.983964 0.480178 -0.306714
C58   C     C_3   0.530594 0.483062 0.476345 -0.319566
C59   C     C_3   0.941678 0.002387 0.369463 0.009145
C60   C     C_3   0.439067 0.502771 0.366761 -0.008621
C61   C     C_3   0.920881 0.002060 0.527831 -0.016127
C62   C     C_3   0.421335 0.502368 0.527675 -0.009485
C63   C     C_3   0.025337 0.994403 0.573272 -0.527789
C64   C     C_3   0.525082 0.493851 0.571132 -0.525347
C65   C     C_3   0.687447 0.189261 0.921967 -0.105940
C66   C     C_3   0.680609 0.823533 0.957018 -0.156047
C67   C     C_3   0.187903 0.689311 0.922559 -0.105177
C68   C     C_3   0.184993 0.320568 0.951475 -0.105006
C69   C     C_3   0.120761 0.728682 0.925958 -0.572802
C70   C     C_3   0.123044 0.273279 0.940273 -0.615635
C71   C     C_3   0.620334 0.228792 0.925040 -0.572394
C72   C     C_3   0.619526 0.774918 0.943612 -0.468475
H37   H     H_    0.576166 0.208495 0.944161 0.199328
H38   H     H_    0.572411 0.785073 0.966710 0.238943
H39   H     H_    0.077400 0.708325 0.946199 0.198270
H40   H     H_    0.075592 0.285496 0.961939 0.207075
H41   H     H_    0.068835 0.746146 0.843229 0.155143
H42   H     H_    0.075593 0.261643 0.853247 0.179111
H43   H     H_    0.569284 0.246599 0.842442 0.155097
H44   H     H_    0.571773 0.764469 0.855916 0.151008
H45   H     H_    0.169712 0.821874 0.877215 0.210078
H46   H     H_    0.182281 0.175900 0.879269 0.214885
H47   H     H_    0.670898 0.322236 0.878761 0.210706
H48   H     H_    0.677696 0.679505 0.875514 0.215946
C73   C     C_3   0.297419 0.772498 0.966426 -0.267369
C74   C     C_3   0.280170 0.242649 0.937317 -0.260217
C75   C     C_3   0.797861 0.272242 0.967650 -0.261248
C76   C     C_3   0.772529 0.747720 0.932473 -0.224540
C77   C     C_3   0.819828 0.216773 0.121759 -0.259869
C78   C     C_3   0.829680 0.777683 0.124433 -0.300000
C79   C     C_3   0.320853 0.717524 0.121725 -0.263556
C80   C     C_3   0.331817 0.276514 0.125023 -0.305785
C81   C     C_3   0.792512 0.212794 0.000522 0.037437
C82   C     C_3   0.780819 0.798499 0.001561 0.046486
C83   C     C_3   0.292839 0.713118 0.000268 0.037064
C84   C     C_3   0.286164 0.294868 0.001478 0.092844
H49   H     H_    0.816914 0.175292 0.146888 0.171185
H50   H     H_    0.844009 0.812964 0.177216 0.185398
H51   H     H_    0.318460 0.676158 0.147577 0.174373
H52   H     H_    0.344033 0.313099 0.174206 0.209628
C85   C     C_3   0.174755 0.775883 0.005093 0.296938
C86   C     C_3   0.183886 0.223043 0.007672 0.388371
C87   C     C_3   0.674455 0.275689 0.005075 0.296407
C88   C     C_3   0.681590 0.724363 0.007756 0.343141
C89   C     C_3   0.223388 0.807622 0.962663 -0.376337
C90   C     C_3   0.231596 0.198411 0.956443 -0.496172
C91   C     C_3   0.724047 0.307506 0.963987 -0.375444
C92   C     C_3   0.727344 0.701835 0.952808 -0.496098
C93   C     C_3   0.250862 0.754158 0.122672 -0.198125
C94   C     C_3   0.263908 0.239956 0.128130 -0.276900
C95   C     C_3   0.749762 0.253485 0.122477 -0.197318
C96   C     C_3   0.763140 0.740259 0.128337 -0.291389
H53   H     H_    0.289420 0.790477 0.173250 0.096178
H54   H     H_    0.302713 0.202582 0.175040 0.088713
H55   H     H_    0.788487 0.289581 0.173811 0.095503
H56   H     H_    0.802541 0.702640 0.173349 0.087343
H57   H     H_    0.366309 0.789703 0.031192 0.154265
H58   H     H_    0.352249 0.228441 0.972077 0.160324
H59   H     H_    0.866884 0.289139 0.032854 0.147229
H60   H     H_    0.843939 0.734312 0.962566 0.156900
H61   H     H_    0.257352 0.844696 0.013144 0.177059
H62   H     H_    0.284083 0.167218 0.013119 0.166771
H63   H     H_    0.758381 0.344296 0.015341 0.174102
H64   H     H_    0.781404 0.670864 0.007532 0.167204
C97   C     C_3   0.469889 0.942965 0.381580 -0.385548
C98   C     C_3   0.476882 0.043274 0.360047 -0.404186
C99   C     C_3   0.969526 0.442637 0.382576 -0.388813
C100  C     C_3   0.977121 0.542765 0.359802 -0.404689
H65   H     H_    0.433046 0.908466 0.386530 0.160978
H66   H     H_    0.446428 0.083994 0.353146 0.162108
H67   H     H_    0.932499 0.408443 0.388111 0.161246
H68   H     H_    0.946785 0.583614 0.352217 0.162180
H69   H     H_    0.471512 0.935915 0.310060 0.195633
H70   H     H_    0.474089 0.036938 0.285336 0.197886
H71   H     H_    0.971057 0.435072 0.311123 0.191802
H72   H     H_    0.974435 0.535947 0.285273 0.196692
C101  C     C_3   0.568906 0.942616 0.487957 -0.342289
C102  C     C_3   0.579104 0.042452 0.462817 -0.278539
C103  C     C_3   0.068533 0.442333 0.488897 -0.344635
C104  C     C_3   0.079288 0.541978 0.462703 -0.277945
H73   H     H_    0.619310 0.931823 0.469940 0.233633
H74   H     H_    0.626189 0.033175 0.439065 0.256989
H75   H     H_    0.118847 0.431170 0.470940 0.232377
H76   H     H_    0.126450 0.532371 0.439194 0.257545
H77   H     H_    0.573127 0.910604 0.542380 0.163871
H78   H     H_    0.596768 0.083561 0.500038 0.176498
H79   H     H_    0.072645 0.410594 0.543701 0.165358
H80   H     H_    0.097059 0.583186 0.499484 0.176374
H81   H     H_    0.388074 0.975029 0.482537 0.176497
H82   H     H_    0.388681 0.046945 0.465874 0.176465
H83   H     H_    0.887672 0.475853 0.482874 0.176275
H84   H     H_    0.888917 0.547654 0.465530 0.175918
H85   H     H_    0.535780 0.980985 0.636849 0.204024
H86   H     H_    0.538557 0.051964 0.612839 0.213812
H87   H     H_    0.035433 0.481655 0.637179 0.205896
H88   H     H_    0.038721 0.552490 0.612608 0.213224
C105  C     C_3   0.424740 0.008233 0.473041 -0.387570
C106  C     C_3   0.924660 0.508739 0.473112 -0.389578
C107  C     C_3   0.421664 0.998191 0.369322 0.330768
C108  C     C_3   0.921619 0.498094 0.369566 0.334157
C109  C     C_3   0.592300 0.998951 0.545008 0.261228
C110  C     C_3   0.092194 0.498841 0.545319 0.263536
C111  C     C_3   0.525110 0.010936 0.575405 -0.358112
C112  C     C_3   0.025020 0.511362 0.575520 -0.357372
C113  C     C_2   0.843117 0.094145 0.284874 0.571405
H89   H     H_    0.823796 0.134338 0.294823 0.116197
O1    O     O_2   0.806497 0.076862 0.192377 -0.628799
C114  C     C_2   0.769270 0.975893 0.232469 0.819111
H90   H     H_    0.766560 0.976857 0.159005 0.027851
O2    O     O_2   0.698071 0.986582 0.223660 -0.459779
C115  C     C_2   0.344638 0.596217 0.286971 0.562347
H91   H     H_    0.327354 0.636534 0.299178 0.118265
O3    O     O_2   0.306725 0.579970 0.193579 -0.635317
C116  C     C_2   0.264729 0.479593 0.232874 0.784511
H92   H     H_    0.261362 0.484692 0.159645 0.104885
O4    O     O_2   0.193418 0.486930 0.225623 -0.484900
Cl1   Cl    Cl    0.761952 0.068925 0.396445 -0.527678
Cl2   Cl    Cl    0.752822 0.942169 0.422254 -0.527599
Cl3   Cl    Cl    0.263274 0.570033 0.397795 -0.528927
Cl4   Cl    Cl    0.253309 0.442918 0.425597 -0.539734
C117  C     C_2   0.648184 0.185173 0.800661 0.470263
H93   H     H_    0.639516 0.221459 0.755332 0.045108
O5    O     O_2   0.620857 0.142325 0.750420 -0.591704
C118  C     C_2   0.630913 0.853929 0.847548 0.441129
H94   H     H_    0.580724 0.833924 0.770329 0.037475
O6    O     O_2   0.644971 0.902067 0.844027 -0.584994
C119  C     C_2   0.148097 0.685083 0.801102 0.469583
H95   H     H_    0.138724 0.721352 0.755370 0.045024
O7    O     O_2   0.121097 0.642133 0.751210 -0.591676
C120  C     C_2   0.135863 0.347846 0.838530 0.448149
H96   H     H_    0.093715 0.324733 0.763500 0.020632
O8    O     O_2   0.140706 0.396690 0.829109 -0.550570
C121  C     C_2   0.681929 0.133083 0.960927 0.706453
H97   H     H_    0.640603 0.126519 0.990943 0.081835
O9    O     O_2   0.723038 0.093931 0.957977 -0.533752
C122  C     C_2   0.689431 0.865056 0.037734 0.723283
H98   H     H_    0.751081 0.889972 0.084039 0.004547
O10   O     O_2   0.625530 0.874422 0.044655 -0.522266
C123  C     C_2   0.183103 0.633162 0.962200 0.706922
H99   H     H_    0.142870 0.626665 0.993678 0.080173
O11   O     O_2   0.223720 0.593983 0.958424 -0.528055
C124  C     C_2   0.190747 0.363736 0.027827 0.660856
H100  H     H_    0.149990 0.361011 0.059550 0.057496
O12   O     O_2   0.239785 0.403410 0.051986 -0.557627
C125  C     C_2   0.292475 0.780006 0.863909 0.579858
H101  H     H_    0.284942 0.746543 0.813460 -0.027935
O13   O     O_2   0.299398 0.825380 0.837578 -0.531698
C126  C     C_2   0.232740 0.248627 0.815431 0.535110
H102  H     H_    0.157499 0.250778 0.758168 0.070986
O14   O     O_2   0.278349 0.246853 0.779162 -0.563985
C127  C     C_2   0.793362 0.280016 0.865473 0.563878
H103  H     H_    0.786078 0.246670 0.814929 -0.021165
O15   O     O_2   0.800512 0.325466 0.839640 -0.545437
C128  C     C_2   0.720046 0.755689 0.810009 0.540853
H104  H     H_    0.644967 0.760513 0.757234 0.059901
O16   O     O_2   0.761096 0.752972 0.768040 -0.553900
C129  C     C_2   0.917730 0.237166 0.211262 0.468666
H105  H     H_    0.962833 0.253805 0.192453 0.063033
O17   O     O_2   0.947572 0.234245 0.307465 -0.525548
C130  C     C_2   0.923359 0.748499 0.176741 0.538656
H106  H     H_    0.929860 0.713477 0.138195 0.041027
O18   O     O_2   0.991863 0.762304 0.266688 -0.551667
C131  C     C_2   0.418796 0.738210 0.210331 0.470143
H107  H     H_    0.463605 0.754405 0.190680 0.068843
O19   O     O_2   0.449088 0.735925 0.306748 -0.525686
C132  C     C_2   0.426144 0.247351 0.183035 0.504681
H108  H     H_    0.434681 0.211441 0.148197 0.050476
O20   O     O_2   0.492546 0.262093 0.273637 -0.550337
C133  C     C_2   0.711565 0.226860 0.178388 0.517212
H109  H     H_    0.730005 0.243135 0.255577 0.057767
O21   O     O_2   0.662110 0.186938 0.140165 -0.583299
C134  C     C_2   0.734473 0.765056 0.196862 0.555917
H110  H     H_    0.788464 0.778535 0.279632 0.108740
O22   O     O_2   0.652998 0.768923 0.163112 -0.560296
C135  C     C_2   0.213717 0.727638 0.179853 0.519965
H111  H     H_    0.233075 0.743957 0.257408 0.058372
O23   O     O_2   0.164238 0.687704 0.142336 -0.581821
C136  C     C_2   0.233264 0.265992 0.193685 0.497372
H112  H     H_    0.286183 0.280410 0.276048 0.123913
O24   O     O_2   0.151318 0.269764 0.158087 -0.592730
Cl5   Cl    Cl    0.852904 0.097894 0.636896 -0.655466
Cl6   Cl    Cl    0.980470 0.889147 0.677963 -0.665427
Cl7   Cl    Cl    0.354047 0.598169 0.637444 -0.651344
Cl8   Cl    Cl    0.481291 0.389468 0.677372 -0.666679
C137  C     C_2   0.953483 0.819295 0.827870 0.613795
H113  H     H_    0.944010 0.775912 0.826725 0.030782
O25   O     O_2   0.885869 0.847091 0.761002 -0.547725
C138  C     C_2   0.992704 0.174667 0.802723 0.557077
H114  H     H_    0.926549 0.189722 0.782120 0.043355
O26   O     O_2   0.009824 0.177943 0.735893 -0.555608
C139  C     C_2   0.453999 0.319519 0.826411 0.602231
H115  H     H_    0.444458 0.276132 0.824454 0.044603
O27   O     O_2   0.386665 0.347426 0.759316 -0.549593
C140  C     C_2   0.489998 0.675844 0.804388 0.557697
H116  H     H_    0.423382 0.688651 0.785450 0.040614
O28   O     O_2   0.505640 0.682093 0.736768 -0.554366
Cl9   Cl    Cl    0.017177 0.106484 0.456503 -0.655520
Cl10  Cl    Cl    0.879997 0.892215 0.315178 -0.770557
Cl11  Cl    Cl    0.519546 0.605651 0.457321 -0.656817
Cl12  Cl    Cl    0.371097 0.393980 0.306965 -0.734221

loop_
_geom_bond_atom_site_label_1
_geom_bond_atom_site_label_2
_geom_bond_distance
_ccdc_geom_bond_type
N24   Ni8   1.916463 S    
C39   H23   1.078858 S    
C77   C81   1.598968 S    
C2    H2    1.069384 S    
N4    N7    1.394747 A    
C77   C95   1.537965 S    
H82   C105  1.113320 S    
C78   C96   1.537736 S    
C131  O19   1.221469 D    
C99   C103  1.526918 S    
C126  H102  1.081351 S    
C9    C21   1.377449 A    
C30   C43   1.393901 A    
C51   C60   1.612023 S    
C46   C86   1.462068 S    
C116  O4    1.218709 D    
C79   C93   1.537447 S    
N32   Ni3   1.902739 S    
C114  H90   1.084917 S    
C119  O7    1.222582 D    
C29   Cl5   1.755642 S    
N16   Ni3   1.903056 S    
H35   C64   1.112732 S    
C102  H78   1.110949 S    
N7    Ni7   1.902739 S    
C14   C23   1.394883 A    
C100  H68   1.111115 S    
C138  H114  1.084971 S    
C30   N22   1.326345 A    
C127  O15   1.221301 D    
C4    N4    1.311098 A    
C71   H43   1.109828 S    
C66   C82   1.603051 S    
N21   Ni5   1.903055 S    
C31   C44   1.384508 A    
C80   C132  1.528954 S    
C41   C107  1.467678 S    
C106  C108  1.557388 S    
N2    N5    1.394747 A    
C9    H9    1.079178 S    
C110  C112  1.540306 S    
C78   H50   1.102698 S    
C27   C42   1.388415 A    
C140  H116  1.084846 S    
C11   H11   1.079318 S    
N9    Ni6   1.892484 S    
C95   C133  1.519290 S    
C22   C110  1.461710 S    
N11   Ni8   1.892484 S    
C38   H22   1.079809 S    
C12   C22   1.385724 A    
C79   C83   1.598204 S    
C39   C48   1.369546 A    
N30   Ni1   1.902739 S    
C11   N11   1.313925 A    
C136  H112  1.085356 S    
C94   H54   1.114285 S    
C7    H7    1.075218 S    
N23   N24   1.410150 A    
C104  H80   1.110969 S    
C34   N26   1.324535 A    
C15   C24   1.389609 A    
C70   H42   1.101437 S    
C8    H8    1.076899 S    
C36   C48   1.384607 A    
C65   C81   1.620376 S    
C5    N5    1.320133 A    
C37   H21   1.079053 S    
C98   C102  1.540432 S    
C86   C90   1.567293 S    
C62   C64   1.561361 S    
C130  H106  1.082600 S    
C57   C63   1.516699 S    
C55   H27   1.107237 S    
C121  O9    1.221356 D    
C56   C62   1.561519 S    
C13   N13   1.316808 A    
C15   N15   1.317403 A    
C16   N16   1.322026 A    
C49   Cl9   1.820160 S    
C15   H15   1.068942 S    
C25   H17   1.076947 S    
C51   Cl11  1.820138 S    
C27   H19   1.076994 S    
C28   H20   1.078505 S    
C104  C110  1.554637 S    
C105  C111  1.521463 S    
C99   C108  1.553376 S    
C100  C108  1.552154 S    
C76   C128  1.514981 S    
C18   C81   1.500747 S    
C3    N3    1.304045 A    
C65   C71   1.555122 S    
C86   C94   1.566040 S    
C71   C87   1.535493 S    
C137  H113  1.082997 S    
C49   C59   1.611713 S    
C57   C59   1.556092 S    
C33   C137  1.483545 S    
C117  O5    1.222614 D    
C88   C92   1.566067 S    
C10   H10   1.079867 S    
C50   C114  1.518854 S    
C94   C136  1.523962 S    
C76   C82   1.578024 S    
H31   C58   1.113878 S    
C89   H61   1.114241 S    
C29   C43   1.385318 A    
C42   C108  1.467533 S    
C72   H38   1.109244 S    
C17   C82   1.467904 S    
C70   C86   1.556007 S    
N3    Ni3   1.908958 S    
C117  H93   1.083149 S    
C54   H26   1.096803 S    
C2    C18   1.388740 A    
C27   N19   1.319370 A    
C40   C47   1.369435 A    
C53   Cl1   1.814737 S    
C32   Cl8   1.761167 S    
C32   C44   1.393842 A    
C133  O21   1.219371 D    
C39   N31   1.308242 A    
H85   C111  1.114337 S    
C48   C88   1.462605 S    
C99   H71   1.113052 S    
H86   C111  1.113467 S    
C12   H12   1.079919 S    
C97   H69   1.113044 S    
C24   C60   1.495027 S    
C134  O22   1.221131 D    
C132  O20   1.221326 D    
C80   C94   1.538461 S    
C30   Cl6   1.761166 S    
C102  H74   1.111882 S    
C21   C109  1.461967 S    
C139  O27   1.219335 D    
C122  H98   1.081787 S    
C77   C129  1.528391 S    
C36   C140  1.461549 S    
C52   C56   1.572572 S    
H87   C112  1.114290 S    
N28   N31   1.394747 A    
N20   Ni4   1.892483 S    
C129  H105  1.083226 S    
H32   C58   1.112514 S    
H46   C90   1.109482 S    
H33   C63   1.113004 S    
C31   Cl7   1.754583 S    
C73   H57   1.106996 S    
C106  C112  1.521472 S    
C33   C45   1.385216 A    
C28   N20   1.325947 A    
C120  O8    1.223305 D    
C49   C53   1.561529 S    
C78   C82   1.600820 S    
C51   C55   1.561194 S    
C135  O23   1.219388 D    
C35   C139  1.482811 S    
C28   C42   1.391860 A    
C79   H51   1.104578 S    
C80   H52   1.104690 S    
C55   C62   1.570355 S    
C68   C120  1.538636 S    
C104  H76   1.111954 S    
C118  H94   1.082947 S    
C76   H60   1.112401 S    
C93   H53   1.114362 S    
C125  O13   1.221293 D    
C100  C104  1.540474 S    
C5    H5    1.075211 S    
C96   H56   1.114436 S    
C26   C41   1.391779 A    
N18   Ni2   1.892483 S    
C126  O14   1.220727 D    
N25   N30   1.394747 A    
C85   C89   1.566547 S    
N27   N32   1.394747 A    
C114  O2    1.218744 D    
C13   H13   1.069011 S    
C14   N14   1.320037 A    
C5    C18   1.392531 A    
C73   C83   1.572406 S    
C16   H16   1.071521 S    
C74   C84   1.574549 S    
C122  O10   1.221868 D    
C97   H65   1.109118 S    
C124  H100  1.084475 S    
C9    N9    1.314483 A    
C26   H18   1.078450 S    
C47   C87   1.481300 S    
C40   N32   1.311344 A    
N21   N22   1.410150 A    
N11   N12   1.410150 A    
C36   N28   1.326121 A    
C119  H95   1.083176 S    
N13   N14   1.410150 A    
C78   C130  1.529004 S    
C61   C63   1.562427 S    
C140  O28   1.220840 D    
N12   Ni7   1.908263 S    
C1    H1    1.069464 S    
C19   C84   1.466383 S    
C71   H37   1.110071 S    
C92   H64   1.113690 S    
C3    H3    1.070105 S    
N13   Ni2   1.916465 S    
C73   C125  1.514128 S    
C87   C95   1.557043 S    
C136  O24   1.221100 D    
N23   Ni7   1.903055 S    
C85   C93   1.557301 S    
C128  H104  1.081188 S    
C88   C96   1.566871 S    
C98   C107  1.552424 S    
C101  H77   1.113523 S    
C16   C24   1.397163 A    
C79   C131  1.528531 S    
C8    C19   1.383485 A    
C29   N21   1.329095 A    
C65   C121  1.535046 S    
N19   Ni3   1.908262 S    
N22   Ni6   1.916463 S    
C130  O18   1.221309 D    
C72   C88   1.557891 S    
N26   N29   1.394747 A    
C34   C138  1.460714 S    
C121  H97   1.083340 S    
C67   C123  1.534980 S    
H45   C89   1.114234 S    
H34   C63   1.107176 S    
C51   C115  1.519693 S    
C115  O3    1.218016 D    
C75   C127  1.514269 S    
N10   Ni5   1.908263 S    
N19   N20   1.410150 A    
C38   C45   1.368923 A    
C1    N1    1.304339 A    
C68   C70   1.551658 S    
C113  O1    1.218563 D    
C3    C19   1.381245 A    
N31   Ni4   1.916610 S    
C116  H92   1.082374 S    
C75   C91   1.540619 S    
C43   C61   1.491468 S    
C131  H107  1.083331 S    
C103  H75   1.110864 S    
C127  H103  1.075299 S    
C50   C54   1.571468 S    
C75   H59   1.106955 S    
C7    C20   1.392119 A    
C97   C101  1.527315 S    
N14   Ni1   1.903056 S    
C37   C46   1.370130 A    
C67   C119  1.532745 S    
H83   C106  1.113946 S    
N1    Ni1   1.908958 S    
C50   Cl10  1.797003 S    
C25   N17   1.319678 A    
C55   Cl3   1.815567 S    
C74   C90   1.530238 S    
C52   C60   1.608680 S    
C74   C126  1.514219 S    
H36   C64   1.106656 S    
C68   C84   1.606085 S    
H81   C105  1.113946 S    
C67   C83   1.620653 S    
C139  H115  1.082358 S    
C44   C62   1.491724 S    
C6    N6    1.315852 A    
C52   C116  1.518956 S    
C75   C81   1.572224 S    
N4    Ni4   1.892713 S    
N17   Ni1   1.908262 S    
C45   C85   1.481436 S    
C80   C84   1.600867 S    
C12   N12   1.325636 A    
C133  H109  1.085210 S    
C68   C124  1.525930 S    
C72   H44   1.102003 S    
C25   C41   1.388745 A    
C135  H111  1.085223 S    
C6    H6    1.075994 S    
C90   H62   1.113941 S    
C4    H4    1.069680 S    
C11   C22   1.377651 A    
C4    C20   1.389332 A    
C123  O11   1.221398 D    
C113  H89   1.084049 S    
C101  C109  1.556138 S    
C58   C64   1.517514 S    
N1    N6    1.394747 A    
C97   C107  1.553318 S    
C6    C17   1.385451 A    
C77   H49   1.105469 S    
N3    N8    1.394747 A    
C93   C135  1.519464 S    
N2    Ni2   1.892713 S    
C53   H25   1.106972 S    
C38   N30   1.310949 A    
C26   N18   1.325819 A    
C40   H24   1.079871 S    
H30   C57   1.112328 S    
C35   N27   1.340881 A    
C50   C59   1.607703 S    
C33   N25   1.341547 A    
C54   C61   1.560906 S    
C54   Cl2   1.800716 S    
H84   C106  1.113286 S    
N5    Ni5   1.902739 S    
C7    N7    1.320499 A    
C8    N8    1.315892 A    
C73   C89   1.541212 S    
C100  H72   1.112792 S    
C52   Cl12  1.795318 S    
C37   N29   1.308535 A    
C98   H70   1.112790 S    
C20   C83   1.501512 S    
C10   N10   1.325712 A    
C87   C91   1.566264 S    
N25   Ni6   1.892714 S    
N27   Ni8   1.892714 S    
C66   C72   1.556753 S    
C102  C109  1.554494 S    
C118  O6    1.223452 D    
C101  H73   1.110929 S    
C58   C60   1.558176 S    
C137  O25   1.219362 D    
C125  H101  1.075287 S    
C99   H67   1.109217 S    
C91   H63   1.114262 S    
N15   Ni4   1.916465 S    
N8    Ni8   1.916613 S    
C13   C23   1.389395 A    
C56   Cl4   1.800922 S    
C76   C92   1.529220 S    
N15   N16   1.410150 A    
C74   H58   1.111941 S    
N9    N10   1.410150 A    
C32   N24   1.327929 A    
C34   C46   1.384732 A    
C103  C110  1.556007 S    
C66   C118  1.533431 S    
C105  C107  1.557277 S    
C69   H39   1.109975 S    
C70   H40   1.110630 S    
C138  O26   1.220913 D    
C123  H99   1.083396 S    
C49   C113  1.520494 S    
C109  C111  1.540354 S    
C124  O12   1.219930 D    
C96   C134  1.524801 S    
C2    N2    1.310467 A    
C10   C21   1.385391 A    
C134  H110  1.085580 S    
H29   C57   1.113823 S    
C67   C69   1.555460 S    
C132  H108  1.082676 S    
C65   C117  1.532828 S    
C95   H55   1.114257 S    
C53   C61   1.569021 S    
C103  H79   1.113573 S    
C115  H91   1.084176 S    
N6    Ni6   1.916613 S    
C35   C47   1.385286 A    
C69   H41   1.110185 S    
C129  O17   1.221448 D    
C31   N23   1.327560 A    
C23   C59   1.492276 S    
N26   Ni5   1.908956 S    
C128  O16   1.221183 D    
C66   C122  1.526050 S    
C120  H96   1.081483 S    
C14   H14   1.071453 S    
N17   N18   1.410150 A    
C98   H66   1.111046 S    
C69   C85   1.535226 S    
H88   C112  1.113432 S    
N28   Ni7   1.908956 S    
H47   C91   1.114250 S    
C1    C17   1.381357 A    
N29   Ni2   1.916610 S    
H48   C92   1.109328 S    
C56   H28   1.098959 S    
