data_mof_unit_58887.cif
_audit_creation_date              2012-12-10T20:43:21-0500
_audit_creation_method            fapswitch 2.2
_symmetry_space_group_name_H-M    P1
_symmetry_Int_Tables_number       1
_space_group_crystal_system       triclinic
_cell_length_a                    15.820431
_cell_length_b                    10.824859
_cell_length_c                    9.92126
_cell_angle_alpha                 88.750522
_cell_angle_beta                  90.277503
_cell_angle_gamma                 90.928464
_cell_volume                      1698.41066695

loop_
_atom_site_label
_atom_site_type_symbol
_atom_type_description
_atom_site_fract_x
_atom_site_fract_y
_atom_site_fract_z
_atom_type_partial_charge
C1    C     C_R   0.497250 0.260052 0.500694 0.855166
C2    C     C_R   0.044036 0.512748 0.621181 -0.196923
C3    C     C_1   0.824344 0.499306 0.497778 -0.082862
C4    C     C_1   0.176517 0.493465 0.503305 -0.094986
C5    C     C_1   0.251323 0.496569 0.501253 -0.212054
C6    C     C_1   0.749305 0.499868 0.499784 -0.197826
C7    C     C_R   0.475253 0.055386 0.613329 0.010891
C8    C     C_R   0.491483 0.127633 0.498376 -0.128501
C9    C     C_R   0.503995 0.066361 0.375997 -0.207350
C10   C     C_R   0.506916 0.937926 0.374263 -0.221441
C11   C     C_R   0.497934 0.869795 0.495460 -0.098170
C12   C     C_R   0.339601 0.499625 0.500014 0.899940
C13   C     C_R   0.482227 0.932387 0.612046 0.033983
C14   C     C_3   0.470186 0.913816 0.760023 -0.272934
C15   C     C_3   0.459026 0.057360 0.763464 -0.042871
C16   C     C_R   0.426285 0.482468 0.070937 0.194460
C17   C     C_R   0.568737 0.539120 0.072943 -0.165413
C18   C     C_R   0.568238 0.543816 0.929365 0.242903
C19   C     C_R   0.426735 0.483378 0.928895 0.146629
C20   C     C_3   0.367784 0.377702 0.921127 -0.460462
C21   C     C_3   0.367153 0.372661 0.074767 -0.050157
C22   C     C_R   0.500627 0.739144 0.498579 0.867694
C23   C     C_R   0.660621 0.500148 0.500180 0.906207
C24   C     C_R   0.956551 0.516146 0.617698 -0.208428
C25   C     C_R   0.913651 0.498044 0.496021 0.118683
C26   C     C_R   0.957970 0.475710 0.376252 0.008502
C27   C     C_R   0.045756 0.471239 0.381509 -0.238467
C28   C     C_R   0.087786 0.490676 0.502869 0.156952
H1    H     H_    0.077462 0.528374 0.715080 0.138367
H2    H     H_    0.624260 0.568999 0.128236 0.166679
H3    H     H_    0.307144 0.404003 0.872031 0.223398
H4    H     H_    0.401269 0.301853 0.875603 0.207805
H5    H     H_    0.396424 0.289083 0.120014 0.168785
H6    H     H_    0.922401 0.533896 0.709387 0.145734
H7    H     H_    0.081526 0.456294 0.290345 0.144886
H8    H     H_    0.512786 0.116636 0.282138 0.159906
H9    H     H_    0.517532 0.893076 0.279388 0.165175
H10   H     H_    0.529797 0.881079 0.807997 0.148805
N1    N     N_R   0.499440 0.499140 0.142800 -0.145202
N2    N     N_R   0.499440 0.499180 0.857150 -0.104941
O1    O     O_R   0.500010 0.316790 0.614690 -0.607722
O2    O     O_R   0.500000 0.316760 0.385350 -0.632651
O3    O     O_R   0.378030 0.499990 0.614640 -0.604744
O4    O     O_R   0.378020 0.499950 0.385300 -0.614101
O5    O     O_R   0.500000 0.683240 0.614650 -0.626035
O6    O     O_R   0.499990 0.683210 0.385310 -0.624048
O7    O     O_R   0.621980 0.500050 0.614700 -0.616296
O8    O     O_R   0.621970 0.500010 0.385360 -0.617836
Zn1   Zn    Zn3+2 0.500010 0.500020 0.653130 0.956373
Zn2   Zn    Zn3+2 0.499990 0.499980 0.346870 0.931183
C29   C     C_R   0.532182 0.122763 0.840014 0.143174
C30   C     C_R   0.611622 0.146786 0.777638 -0.092471
C31   C     C_R   0.676365 0.210433 0.844294 -0.140594
C32   C     C_R   0.664592 0.248928 0.975582 -0.112798
C33   C     C_R   0.589055 0.221418 0.041315 -0.140243
C34   C     C_R   0.524424 0.156251 0.975855 -0.210588
H11   H     H_    0.624752 0.117168 0.676721 0.116681
H12   H     H_    0.735782 0.229899 0.793849 0.121211
H13   H     H_    0.714115 0.298851 0.027472 0.150113
H14   H     H_    0.580763 0.251686 0.143343 0.154831
H15   H     H_    0.468843 0.134044 0.032891 0.109595
C35   C     C_3   0.641695 0.607477 0.861649 -0.850961
H16   H     H_    0.620216 0.665469 0.775444 0.268820
H17   H     H_    0.673368 0.672635 0.931132 0.183701
H18   H     H_    0.688542 0.538557 0.831087 0.246699
C36   C     C_3   0.279400 0.396788 0.132247 -0.858411
H19   H     H_    0.279702 0.381556 0.242795 0.256373
H20   H     H_    0.257995 0.491645 0.107702 0.236068
H21   H     H_    0.232807 0.330194 0.090008 0.237282
C37   C     C_R   0.915924 0.463376 0.243670 0.124846
C38   C     C_R   0.870724 0.562581 0.187542 -0.134453
C39   C     C_R   0.839407 0.556604 0.055940 -0.146174
C40   C     C_R   0.851887 0.451176 0.980186 -0.139755
C41   C     C_R   0.896082 0.351543 0.035799 -0.151662
C42   C     C_R   0.928538 0.357751 0.166814 -0.163667
H22   H     H_    0.862219 0.645988 0.243960 0.125121
H23   H     H_    0.806948 0.634797 0.012106 0.127798
H24   H     H_    0.827225 0.446372 0.878544 0.120568
H25   H     H_    0.905844 0.270027 0.976917 0.128151
H26   H     H_    0.964271 0.281038 0.207869 0.124625
C43   C     C_R   0.394036 0.833121 0.799079 0.215791
C44   C     C_R   0.389389 0.785906 0.931840 -0.188231
C45   C     C_R   0.316379 0.724305 0.977395 -0.150128
C46   C     C_R   0.249211 0.702282 0.888862 -0.119859
C47   C     C_R   0.253999 0.745106 0.755340 -0.134404
C48   C     C_R   0.325417 0.811476 0.710642 -0.079654
H27   H     H_    0.440861 0.801995 0.002054 0.120610
H28   H     H_    0.312211 0.693642 0.081641 0.139531
H29   H     H_    0.193235 0.652834 0.923941 0.121762
H30   H     H_    0.201629 0.728917 0.687036 0.132311
H31   H     H_    0.325960 0.847622 0.608143 0.111221
C49   C     C_R   0.367200 0.096767 0.793685 0.115668
C50   C     C_R   0.328781 0.065710 0.918590 -0.148385
C51   C     C_R   0.245228 0.096838 0.945005 -0.119068
C52   C     C_R   0.197791 0.159915 0.847824 -0.124508
C53   C     C_R   0.233712 0.191462 0.723641 -0.155272
C54   C     C_R   0.317214 0.160375 0.696346 -0.133337
H32   H     H_    0.362353 0.014734 0.995894 0.123874
H33   H     H_    0.217200 0.071711 0.041261 0.125767
H34   H     H_    0.133157 0.184306 0.868728 0.123978
H35   H     H_    0.196790 0.240370 0.648117 0.141369
H36   H     H_    0.341566 0.187305 0.598680 0.120399

loop_
_geom_bond_atom_site_label_1
_geom_bond_atom_site_label_2
_ccdc_geom_bond_type
C36   H20   S    
C33   C34   A    
C50   C51   A    
C21   C36   S    
C1    C8    S    
C40   C41   A    
C52   C53   A    
C3    C6    T    
C43   C44   A    
C7    C8    A    
O7    Zn1   S    
C31   C32   A    
C26   C27   A    
C16   C21   S    
C2    H1    S    
C12   O3    A    
C48   H31   S    
C38   H22   S    
C36   H21   S    
C21   H5    S    
N2    Zn1   S    
C29   C34   A    
C17   N1    A    
C18   N2    A    
C35   H17   S    
C39   H23   S    
C15   C49   S    
C19   C20   S    
C8    C9    A    
C9    H8    S    
C40   H24   S    
C37   C38   A    
C15   C29   S    
C42   H26   S    
C54   H36   S    
C39   C40   A    
C7    C15   S    
C36   H19   S    
C33   H14   S    
C17   H2    S    
C9    C10   A    
O1    Zn1   S    
C4    C28   S    
C49   C54   A    
C32   H13   S    
C23   O7    A    
C41   C42   A    
C29   C30   A    
C3    C25   S    
C53   H35   S    
C46   C47   A    
C5    C12   S    
C30   H11   S    
C52   H34   S    
O3    Zn1   S    
C27   H7    S    
C25   C26   A    
C47   C48   A    
C24   H6    S    
C35   H16   S    
C14   H10   S    
C45   C46   A    
O5    Zn1   S    
C31   H12   S    
C53   C54   A    
N1    Zn2   S    
C17   C18   A    
C24   C25   A    
O2    Zn2   S    
C1    O1    A    
C22   O6    A    
C41   H25   S    
C10   H9    S    
C2    C24   A    
C26   C37   S    
C46   H29   S    
C37   C42   A    
C30   C31   A    
C20   H4    S    
O4    Zn2   S    
C32   C33   A    
C23   O8    A    
C35   H18   S    
C34   H15   S    
C18   C35   S    
C43   C48   A    
C4    C5    T    
C47   H30   S    
O6    Zn2   S    
C11   C22   S    
C10   C11   A    
C38   C39   A    
C12   O4    A    
C11   C13   A    
C51   H33   S    
C16   C19   A    
C6    C23   S    
O8    Zn2   S    
C49   C50   A    
C45   H28   S    
C51   C52   A    
C19   N2    A    
C16   N1    A    
C1    O2    A    
C7    C13   A    
C22   O5    A    
C20   C21   S    
C44   C45   A    
C27   C28   A    
C14   C15   S    
C2    C28   A    
C14   C43   S    
C13   C14   S    
C50   H32   S    
C44   H27   S    
C20   H3    S    
