data_mof_unit_23446.cif
_audit_creation_date              2012-12-10T17:34:28-0500
_audit_creation_method            fapswitch 2.2
_symmetry_space_group_name_H-M    P1
_symmetry_Int_Tables_number       1
_space_group_crystal_system       triclinic
_cell_length_a                    12.42872
_cell_length_b                    13.067124
_cell_length_c                    14.319214
_cell_angle_alpha                 77.599892
_cell_angle_beta                  100.972763
_cell_angle_gamma                 116.719759
_cell_volume                      2017.00233219

loop_
_atom_site_label
_atom_site_type_symbol
_atom_type_description
_atom_site_fract_x
_atom_site_fract_y
_atom_site_fract_z
_atom_type_partial_charge
C1    C     C_R   0.855093 0.286004 0.511818 0.877690
C2    C     C_1   0.998821 0.500091 0.228806 -0.162664
C3    C     C_R   0.281266 0.031355 0.388604 0.313579
C4    C     C_R   0.226725 0.839998 0.483059 -0.291991
C5    C     C_R   0.804198 0.101663 0.619044 -0.303825
C6    C     C_R   0.714894 0.018933 0.674726 -0.160905
C7    C     C_R   0.593648 0.996074 0.645674 0.503234
C8    C     C_R   0.557485 0.033358 0.548793 -0.056242
C9    C     C_R   0.649421 0.122072 0.493842 -0.007526
C10   C     C_R   0.434096 0.991149 0.506471 -0.078651
C11   C     C_R   0.403663 0.059393 0.423944 -0.103529
C12   C     C_R   0.999519 0.498656 0.668751 0.757024
C13   C     C_R   0.495463 0.147284 0.371689 -0.266135
C14   C     C_R   0.617063 0.172060 0.401590 0.429946
C15   C     C_R   0.343082 0.879180 0.536694 0.357315
C16   C     C_R   0.192695 0.919646 0.416423 0.341901
C17   C     C_R   0.771994 0.163300 0.534733 -0.079715
C18   C     C_R   0.339701 0.321406 0.649367 0.217905
C19   C     C_R   0.763900 0.652380 0.379115 0.715397
C20   C     C_R   0.686242 0.704883 0.372028 -0.346541
C21   C     C_R   0.589727 0.653225 0.427023 -0.221742
C22   C     C_R   0.560924 0.543399 0.481699 0.074986
C23   C     C_R   0.144994 0.714512 0.490214 0.843179
C24   C     C_R   0.654233 0.504848 0.500776 0.185721
C25   C     C_R   0.450612 0.478222 0.526674 -0.129409
C26   C     C_R   0.444899 0.385310 0.601332 -0.070769
C27   C     C_R   0.544493 0.357866 0.627010 -0.211939
C28   C     C_R   0.644996 0.414031 0.576227 -0.147116
C29   C     C_R   0.342576 0.495316 0.495563 0.530093
C30   C     C_R   0.246420 0.357636 0.628941 0.578775
C31   C     C_R   0.999527 0.500019 0.331342 0.823642
C32   C     C_1   0.000090 0.498525 0.771280 -0.209170
C33   C     C_1   0.000105 0.498717 0.856749 -0.014994
C34   C     C_1   0.999731 0.499136 0.957357 0.009892
C35   C     C_1   0.999293 0.499532 0.042728 0.011034
C36   C     C_1   0.998860 0.499927 0.143335 -0.002288
Cu1   Cu    Cu3+1 0.098280 0.475420 0.520190 1.002754
Cu2   Cu    Cu3+1 0.901720 0.524580 0.479810 0.996640
H1    H     H_    0.546392 0.292104 0.687018 0.161948
H2    H     H_    0.547861 0.706027 0.434286 0.166884
H3    H     H_    0.704183 0.788152 0.327963 0.170254
H4    H     H_    0.715527 0.386238 0.601106 0.188132
H5    H     H_    0.472781 0.190456 0.302646 0.157136
H6    H     H_    0.897807 0.130297 0.650026 0.215314
H7    H     H_    0.741365 0.985476 0.746893 0.171307
N1    N     N_R   0.246290 0.438200 0.550780 -0.275411
N2    N     N_R   0.754310 0.561180 0.449760 -0.247175
O1    O     O_R   0.972510 0.318130 0.525390 -0.534573
O2    O     O_R   0.806530 0.359650 0.491290 -0.584432
O3    O     O_R   0.083010 0.479240 0.641000 -0.546546
O4    O     O_R   0.917030 0.520750 0.606900 -0.584259
O5    O     O_R   0.193470 0.640350 0.508710 -0.581678
O6    O     O_R   0.027490 0.681870 0.474610 -0.481225
O7    O     O_R   0.082970 0.479250 0.393100 -0.526501
O8    O     O_R   0.916990 0.520760 0.359000 -0.522165
O9    O     O_3   0.073686 0.883926 0.375880 -0.658080
H8    H     H_    0.062228 0.947955 0.330685 0.377980
O10   O     O_3   0.323404 0.222375 0.714630 -0.722520
H9    H     H_    0.356585 0.177758 0.690871 0.324240
O11   O     O_3   0.319525 0.531687 0.397984 -0.555076
C37   C     C_3   0.335230 0.648209 0.377072 -0.197220
H10   H     H_    0.373134 0.696807 0.439451 0.157057
H11   H     H_    0.249583 0.653639 0.344711 0.170559
H12   H     H_    0.396171 0.694042 0.319446 0.144532
O12   O     O_3   0.861454 0.702804 0.325815 -0.512796
C38   C     C_3   0.819351 0.697487 0.227480 -0.300679
H13   H     H_    0.777672 0.758855 0.197866 0.151243
H14   H     H_    0.754520 0.607829 0.214737 0.146247
H15   H     H_    0.898004 0.723672 0.187388 0.195852
O13   O     O_3   0.246982 0.108132 0.322287 -0.738808
H16   H     H_    0.304158 0.188085 0.333371 0.336150
O14   O     O_3   0.374099 0.802549 0.607123 -0.547671
C39   C     C_3   0.301762 0.764319 0.684296 -0.207048
H17   H     H_    0.224212 0.680307 0.676041 0.153087
H18   H     H_    0.268321 0.827247 0.693786 0.126133
H19   H     H_    0.356530 0.749296 0.752057 0.208282
O15   O     O_3   0.519793 0.958246 0.717849 -0.728322
H20   H     H_    0.459217 0.990807 0.697693 0.312321
O16   O     O_3   0.705322 0.243429 0.341176 -0.742034
H21   H     H_    0.667449 0.271259 0.279900 0.318217
O17   O     O_3   0.144681 0.299328 0.677962 -0.541501
C40   C     C_3   0.175090 0.322567 0.773839 -0.230244
H22   H     H_    0.090191 0.298886 0.804772 0.166261
H23   H     H_    0.233328 0.416075 0.778659 0.133617
H24   H     H_    0.219379 0.268782 0.818843 0.207656

loop_
_geom_bond_atom_site_label_1
_geom_bond_atom_site_label_2
_ccdc_geom_bond_type
C38   H14   S    
C6    H7    S    
C39   H17   S    
C35   C36   S    
C18   C26   A    
C20   H3    S    
C7    C8    A    
Cu2   O2    S    
O15   H20   S    
C15   O14   S    
C21   H2    S    
C26   C27   A    
C10   C15   A    
C5    C6    A    
C19   N2    A    
C38   H15   S    
C5    C17   A    
O9    H8    S    
C34   C35   T    
C37   H11   S    
C18   O10   S    
Cu2   O8    S    
C19   C20   A    
C27   H1    S    
C8    C9    A    
C22   C25   A    
O13   H16   S    
C18   C30   A    
C7    O15   S    
C38   H13   S    
C13   C14   A    
C12   C32   S    
C39   H18   S    
C23   O6    A    
C25   C29   A    
C3    O13   S    
Cu1   O5    S    
Cu2   O4    S    
C25   C26   A    
O17   C40   S    
O11   C37   S    
C4    C16   A    
C37   H12   S    
C9    C14   A    
C16   O9    S    
Cu1   Cu2   S    
C29   O11   S    
C33   C34   S    
C14   O16   S    
Cu1   O1    S    
Cu2   N2    S    
Cu1   O7    S    
C9    C17   A    
C5    H6    S    
O12   C38   S    
C40   H23   S    
C39   H19   S    
C22   C24   A    
C13   H5    S    
C12   O4    A    
C2    C36   T    
C4    C23   S    
C24   N2    A    
C30   N1    A    
C24   C28   A    
O14   C39   S    
C12   O3    A    
C1    O1    A    
C6    C7    A    
C40   H24   S    
C1    C17   S    
C29   N1    A    
C32   C33   T    
C4    C15   A    
O10   H9    S    
Cu1   O3    S    
C11   C13   A    
C23   O5    A    
Cu2   O6    S    
C30   O17   S    
C28   H4    S    
C19   O12   S    
C31   O7    A    
C37   H10   S    
C3    C11   A    
C10   C11   A    
O16   H21   S    
C20   C21   A    
C8    C10   A    
C40   H22   S    
C27   C28   A    
C2    C31   S    
C31   O8    A    
Cu1   N1    S    
C21   C22   A    
C1    O2    A    
C3    C16   A    
