data_mof_unit_24039.cif
_audit_creation_date              2012-12-11T14:24:55-0500
_audit_creation_method            fapswitch 2.2
_symmetry_space_group_name_H-M    P1
_symmetry_Int_Tables_number       1
_space_group_crystal_system       triclinic
_cell_length_a                    18.983646
_cell_length_b                    11.020282
_cell_length_c                    18.789033
_cell_angle_alpha                 90.282572
_cell_angle_beta                  91.088354
_cell_angle_gamma                 89.718554
_cell_volume                      3929.95956464

loop_
_atom_site_label
_atom_site_type_symbol
_atom_type_description
_atom_site_fract_x
_atom_site_fract_y
_atom_site_fract_z
_atom_type_partial_charge
C1    C     C_R   0.730240 0.374865 0.145734 0.550740
C2    C     C_R   0.249366 0.909517 0.073176 -0.014757
C3    C     C_R   0.594130 0.428041 0.454341 -0.106186
C4    C     C_R   0.869780 0.168330 0.571349 -0.110996
C5    C     C_R   0.042730 0.968091 0.500653 -0.150572
C6    C     C_R   0.369927 0.668196 0.571267 -0.111071
C7    C     C_R   0.542731 0.467831 0.500706 -0.150500
C8    C     C_R   0.894993 0.152101 0.503346 -0.161281
C9    C     C_R   0.051641 0.953465 0.573416 -0.110129
C10   C     C_R   0.395112 0.651912 0.503257 -0.161325
C11   C     C_R   0.551661 0.453179 0.573468 -0.110090
C12   C     C_R   0.860333 0.076136 0.454716 -0.102046
C13   C     C_R   0.257045 0.400502 0.930374 -0.005945
C14   C     C_R   0.115111 0.908616 0.599820 -0.075692
C15   C     C_R   0.360426 0.575919 0.454659 -0.102048
C16   C     C_R   0.615160 0.408417 0.599850 -0.075704
C17   C     C_R   0.759467 0.932841 0.428479 0.005834
C18   C     C_R   0.242773 0.906259 0.579760 -0.000195
C19   C     C_R   0.259482 0.432776 0.428465 0.005829
C20   C     C_R   0.742813 0.406309 0.579744 -0.000096
C21   C     C_R   0.711198 0.333305 0.361535 0.566423
C22   C     C_R   0.268942 0.377451 0.645752 0.523506
C23   C     C_R   0.211191 0.833291 0.361533 0.566324
C24   C     C_R   0.747631 0.406452 0.071991 -0.006952
C25   C     C_R   0.768944 0.877439 0.645751 0.523664
C26   C     C_R   0.531087 0.154596 0.352678 0.549953
C27   C     C_R   0.464967 0.157482 0.645614 0.584747
C28   C     C_R   0.031092 0.654597 0.352682 0.550777
C29   C     C_R   0.964980 0.657485 0.645621 0.584556
C30   C     C_R   0.744040 0.971761 0.356336 0.537131
C31   C     C_R   0.256431 0.966727 0.646160 0.532743
C32   C     C_R   0.244045 0.471740 0.356329 0.537063
C33   C     C_R   0.756440 0.466743 0.646154 0.532561
C34   C     C_3   0.543155 0.241458 0.969045 -0.133955
C35   C     C_R   0.697364 0.854040 0.966676 0.021589
C36   C     C_3   0.488548 0.275573 0.026285 -0.121321
C37   C     C_3   0.996824 0.778521 0.977373 -0.119765
C38   C     C_3   0.948418 0.721718 0.033685 -0.140205
C39   C     C_3   0.566011 0.129399 0.013234 -0.101812
C40   C     C_3   0.432563 0.196113 0.987560 -0.117374
C41   C     C_3   0.061851 0.717736 0.013392 -0.115434
C42   C     C_3   0.939129 0.607840 0.986209 -0.106789
C43   C     C_3   0.510870 0.163238 0.069248 0.054927
C44   C     C_3   0.487660 0.162240 0.931697 0.045276
C45   C     C_3   0.012768 0.661094 0.068282 0.048299
C46   C     C_R   0.302160 0.847418 0.033696 0.018929
C47   C     C_3   0.988241 0.664044 0.931103 0.052629
C48   C     C_R   0.196799 0.357712 0.966026 0.018761
C49   C     C_R   0.801418 0.346309 0.032869 0.019897
C50   C     C_R   0.699305 0.849767 0.042206 0.024415
C51   C     C_R   0.297575 0.847841 0.958110 0.025421
C52   C     C_R   0.198638 0.352153 0.041506 0.031529
C53   C     C_R   0.270761 0.373759 0.854989 0.530890
C54   C     C_R   0.797029 0.345865 0.957253 0.017556
C55   C     C_R   0.813333 0.946948 0.043955 -0.159336
C56   C     C_R   0.198431 0.987412 0.964179 -0.154526
C57   C     C_R   0.313744 0.445520 0.044057 -0.153948
C58   C     C_R   0.695164 0.479177 0.962306 -0.156773
C59   C     C_R   0.815425 0.939121 0.971172 -0.142721
C60   C     C_R   0.199625 0.980987 0.036971 -0.165786
C61   C     C_R   0.315315 0.440616 0.971071 -0.153950
C62   C     C_R   0.695916 0.472883 0.035073 -0.153701
C63   C     C_R   0.636433 0.810958 0.930550 -0.102745
C64   C     C_R   0.230603 0.875582 0.146128 0.547194
C65   C     C_R   0.358755 0.783447 0.066361 -0.085892
C66   C     C_R   0.135332 0.318060 0.929478 -0.101482
C67   C     C_R   0.858518 0.284297 0.065836 -0.085323
C68   C     C_R   0.082587 0.258101 0.965521 -0.140717
C69   C     C_R   0.902500 0.209893 0.026285 -0.137010
C70   C     C_R   0.584874 0.748511 0.967020 -0.149535
C71   C     C_R   0.402774 0.709779 0.026367 -0.129960
C72   C     C_R   0.591404 0.732334 0.040116 -0.133016
C73   C     C_R   0.393968 0.702179 0.953031 -0.131020
C74   C     C_R   0.089483 0.238470 0.038348 -0.149151
C75   C     C_R   0.770882 0.873105 0.855174 0.536006
C76   C     C_R   0.893970 0.201397 0.952942 -0.129721
C77   C     C_R   0.647521 0.783318 0.077663 -0.081354
C78   C     C_R   0.341850 0.770095 0.918968 -0.081119
C79   C     C_R   0.146189 0.286495 0.076356 -0.088124
C80   C     C_R   0.842011 0.268987 0.918419 -0.080822
C81   C     C_R   0.532382 0.155551 0.144359 0.548623
C82   C     C_R   0.466641 0.155292 0.856281 0.550667
C83   C     C_R   0.033903 0.654972 0.143521 0.552573
C84   C     C_R   0.966679 0.655609 0.856110 0.551411
C85   C     C_R   0.753850 0.910419 0.080006 -0.011768
C86   C     C_3   0.455486 0.084378 0.031650 -0.117538
C87   C     C_R   0.248261 0.925125 0.923819 -0.003968
C88   C     C_R   0.253784 0.410344 0.079829 -0.004048
C89   C     C_R   0.747061 0.421264 0.922589 -0.010964
C90   C     C_R   0.488661 0.165957 0.572217 0.021281
C91   C     C_R   0.499584 0.146534 0.424152 0.023889
C92   C     C_R   0.988698 0.665970 0.572231 0.021324
C93   C     C_R   0.999601 0.646551 0.424162 0.023660
C94   C     C_R   0.525779 0.067804 0.542752 0.031755
C95   C     C_R   0.516138 0.044436 0.469449 0.050184
C96   C     C_R   0.025779 0.567782 0.542760 0.031757
C97   C     C_3   0.510000 0.050549 0.975004 -0.100808
C98   C     C_R   0.016129 0.544431 0.469453 0.050046
C99   C     C_R   0.463922 0.244630 0.453358 -0.170449
C100  C     C_R   0.453586 0.248789 0.526643 -0.155780
C101  C     C_R   0.963996 0.744699 0.453380 -0.170435
C102  C     C_R   0.953673 0.748868 0.526665 -0.155715
C103  C     C_R   0.563615 0.983580 0.585704 0.122317
C104  C     C_R   0.521361 0.920353 0.446860 0.134498
C105  C     C_R   0.063590 0.483519 0.585709 0.122524
C106  C     C_R   0.021328 0.420347 0.446857 0.134410
C107  C     C_R   0.072713 0.365335 0.561287 -0.130415
C108  C     C_3   0.003872 0.547138 0.021696 -0.096036
C109  C     C_R   0.051463 0.333805 0.492721 -0.156445
C110  C     C_R   0.572771 0.865400 0.561289 -0.130482
C111  C     C_R   0.551520 0.833839 0.492728 -0.156353
C112  C     C_R   0.749907 0.912133 0.574356 -0.008807
C113  C     C_R   0.219829 0.862247 0.436207 0.009608
C114  C     C_R   0.249916 0.412154 0.574352 -0.008873
C115  C     C_R   0.719857 0.362306 0.436198 0.009657
C116  C     C_R   0.782498 0.014107 0.546527 0.022405
C117  C     C_R   0.161538 0.891658 0.480177 0.018599
C118  C     C_R   0.282577 0.514053 0.546500 0.022426
C119  C     C_3   0.052549 0.603633 0.965983 -0.122283
C120  C     C_R   0.661564 0.391589 0.480189 0.018563
C121  C     C_R   0.800343 0.009486 0.474977 0.038513
C122  C     C_R   0.173105 0.895857 0.554120 0.024239
C123  C     C_R   0.300413 0.509360 0.474948 0.038531
C124  C     C_R   0.673147 0.395775 0.554128 0.024265
C125  C     C_R   0.721490 0.837534 0.456269 -0.154160
C126  C     C_R   0.299437 0.897102 0.533843 -0.147772
C127  C     C_R   0.221440 0.337558 0.456275 -0.154134
C128  C     C_R   0.799475 0.397327 0.533804 -0.147746
C129  C     C_R   0.742574 0.966328 0.149898 0.537968
C130  C     C_R   0.757260 0.898264 0.930722 0.001928
C131  C     C_R   0.257865 0.969052 0.851171 0.534077
C132  C     C_R   0.242571 0.466294 0.149838 0.541559
C133  C     C_R   0.757611 0.468175 0.850753 0.532114
C134  C     C_R   0.722616 0.821041 0.528936 -0.145458
C135  C     C_R   0.288187 0.867451 0.463874 -0.134617
C136  C     C_R   0.222562 0.321094 0.528945 -0.145428
C137  C     C_R   0.788225 0.367692 0.463832 -0.134623
C138  C     C_R   0.810185 0.106370 0.591271 -0.075014
C139  C     C_R   0.094123 0.928197 0.454309 -0.106168
C140  C     C_R   0.310316 0.606307 0.591220 -0.074941
Cr1   Cr    Cr6+3 0.772820 0.169820 0.252640 0.999085
Cr2   Cr    Cr6+3 0.383280 0.011130 0.749340 0.998265
Cr3   Cr    Cr6+3 0.116720 0.511130 0.250660 1.008762
Cr4   Cr    Cr6+3 0.883280 0.511130 0.749340 0.998433
Cr5   Cr    Cr6+3 0.227180 0.169820 0.747360 0.989082
Cr6   Cr    Cr6+3 0.272820 0.669820 0.252640 0.998798
Cr7   Cr    Cr6+3 0.727180 0.669820 0.747360 0.988967
Cr8   Cr    Cr6+3 0.615040 0.323610 0.249150 0.989017
Cr9   Cr    Cr6+3 0.384960 0.323610 0.750850 0.998555
Cr10  Cr    Cr6+3 0.115040 0.823610 0.249150 0.989745
Cr11  Cr    Cr6+3 0.884960 0.823610 0.750850 0.998423
Cr12  Cr    Cr6+3 0.616720 0.011130 0.250660 1.009440
H1    H     H_    0.621251 0.101379 0.025197 0.129451
H2    H     H_    0.057928 0.240751 0.475168 0.106999
H3    H     H_    0.595565 0.797293 0.596160 0.125966
H4    H     H_    0.558015 0.740788 0.475181 0.106972
H5    H     H_    0.693059 0.774668 0.421899 0.129980
H6    H     H_    0.353035 0.915609 0.551519 0.146930
H7    H     H_    0.192954 0.274738 0.421918 0.130016
H8    H     H_    0.853068 0.415923 0.551471 0.146928
H9    H     H_    0.791271 0.119721 0.644818 0.115043
H10   H     H_    0.079027 0.934259 0.399287 0.167931
H11   H     H_    0.291415 0.619727 0.644765 0.115061
H12   H     H_    0.376946 0.219934 0.975074 0.129615
H13   H     H_    0.579030 0.434137 0.399320 0.167906
H14   H     H_    0.702248 0.736770 0.549458 0.152303
H15   H     H_    0.333428 0.856928 0.430412 0.149896
H16   H     H_    0.202147 0.236865 0.549478 0.152306
H17   H     H_    0.833461 0.357301 0.430348 0.149903
H18   H     H_    0.896313 0.228948 0.608485 0.118616
H19   H     H_    0.993377 0.999507 0.479036 0.108903
H20   H     H_    0.396493 0.728811 0.608383 0.118487
H21   H     H_    0.493358 0.499152 0.479103 0.108995
H22   H     H_    0.941950 0.197528 0.488478 0.105200
H23   H     H_    0.112721 0.762665 0.026297 0.132834
H24   H     H_    0.009095 0.974870 0.609001 0.127883
H25   H     H_    0.442083 0.697278 0.488364 0.105156
H26   H     H_    0.509111 0.474499 0.609066 0.127910
H27   H     H_    0.885511 0.062983 0.404204 0.133251
H28   H     H_    0.120608 0.895484 0.656743 0.128976
H29   H     H_    0.385591 0.562670 0.404144 0.133126
H30   H     H_    0.620683 0.395285 0.656771 0.128603
H31   H     H_    0.579082 0.304622 0.941922 0.115615
H32   H     H_    0.479229 0.367527 0.048681 0.104294
H33   H     H_    0.994608 0.873364 0.957773 0.107781
H34   H     H_    0.888241 0.562669 0.973575 0.135013
H35   H     H_    0.906280 0.766376 0.064290 0.115438
H36   H     H_    0.419446 0.021508 0.058749 0.123834
H37   H     H_    0.517499 0.959083 0.951950 0.144232
H38   H     H_    0.005090 0.452245 0.041032 0.149340
H39   H     H_    0.095490 0.558522 0.936594 0.118303
H40   H     H_    0.858372 0.984899 0.072152 0.139935
H41   H     H_    0.158883 0.045439 0.939690 0.160625
H42   H     H_    0.359105 0.481747 0.072539 0.137318
H43   H     H_    0.654325 0.533849 0.937293 0.156511
H44   H     H_    0.626992 0.825591 0.874443 0.134090
H45   H     H_    0.444393 0.317425 0.419748 0.114521
H46   H     H_    0.371419 0.791043 0.122366 0.141111
H47   H     H_    0.126489 0.334045 0.873380 0.132463
H48   H     H_    0.871054 0.292665 0.121822 0.142282
H49   H     H_    0.864555 0.962717 0.946912 0.145406
H50   H     H_    0.158364 0.028027 0.064895 0.150500
H51   H     H_    0.364581 0.463731 0.946887 0.148191
H52   H     H_    0.653163 0.516839 0.062370 0.149532
H53   H     H_    0.037602 0.223683 0.936180 0.114054
H54   H     H_    0.941293 0.154438 0.053255 0.092775
H55   H     H_    0.540576 0.710832 0.937953 0.107481
H56   H     H_    0.420214 0.319716 0.547954 0.152271
H57   H     H_    0.442049 0.654633 0.052908 0.091546
H58   H     H_    0.051836 0.184740 0.066123 0.099585
H59   H     H_    0.926994 0.140758 0.922624 0.094161
H60   H     H_    0.554134 0.678172 0.068286 0.097580
H61   H     H_    0.426874 0.641957 0.922321 0.096382
H62   H     H_    0.651775 0.764682 0.134035 0.128923
H63   H     H_    0.335046 0.757414 0.862170 0.125653
H64   H     H_    0.150321 0.266158 0.132532 0.128916
H65   H     H_    0.835538 0.256210 0.861581 0.126519
H66   H     H_    0.647070 0.018306 0.651056 0.217975
H67   H     H_    0.944494 0.817523 0.419776 0.114645
H68   H     H_    0.578344 0.953480 0.691563 0.239120
H69   H     H_    0.446151 0.820156 0.395639 0.199185
H70   H     H_    0.523671 0.825923 0.354184 0.230801
H71   H     H_    0.147051 0.518216 0.651054 0.217864
H72   H     H_    0.078334 0.453365 0.691564 0.238990
H73   H     H_    0.946125 0.320166 0.395610 0.199206
H74   H     H_    0.023643 0.325963 0.354160 0.230789
H75   H     H_    0.920330 0.819833 0.547981 0.152308
H76   H     H_    0.095485 0.297204 0.596157 0.125977
N1    N     N_3   0.592306 0.018433 0.654016 -0.618299
N2    N     N_3   0.487280 0.877581 0.382666 -0.588060
N3    N     N_3   0.092289 0.518339 0.654024 -0.618618
N4    N     N_3   0.987252 0.377602 0.382655 -0.587893
O1    O     O_R   0.788190 0.043000 0.172520 -0.522765
O2    O     O_R   0.454170 0.051610 0.669840 -0.506258
O3    O     O_R   0.045830 0.551610 0.330160 -0.478981
O4    O     O_R   0.954170 0.551610 0.669840 -0.506304
O5    O     O_R   0.681920 0.959720 0.327070 -0.502901
O6    O     O_R   0.318080 0.959720 0.672930 -0.518598
O7    O     O_R   0.181920 0.459720 0.327070 -0.503060
O8    O     O_R   0.818080 0.459720 0.672930 -0.518533
O9    O     O_3   0.668190 0.168190 0.250820 -0.265332
O10   O     O_3   0.331810 0.168190 0.749180 -0.243799
O11   O     O_3   0.168190 0.668190 0.250820 -0.265417
O12   O     O_R   0.211810 0.043000 0.827480 -0.528104
O13   O     O_3   0.831810 0.668190 0.749180 -0.243665
O14   O     O_R   0.766240 0.292300 0.176860 -0.505488
O15   O     O_R   0.233760 0.292300 0.823140 -0.510265
O16   O     O_R   0.266240 0.792300 0.176860 -0.504976
O17   O     O_R   0.733760 0.792300 0.823140 -0.510637
O18   O     O_R   0.670310 0.409160 0.168720 -0.522778
O19   O     O_R   0.329690 0.409160 0.831280 -0.530735
O20   O     O_R   0.170310 0.909160 0.168720 -0.523834
O21   O     O_R   0.829690 0.909160 0.831280 -0.531370
O22   O     O_R   0.556160 0.251900 0.173380 -0.505189
O23   O     O_R   0.288190 0.543000 0.172520 -0.522855
O24   O     O_R   0.443840 0.251900 0.826620 -0.504751
O25   O     O_R   0.056160 0.751900 0.173380 -0.504664
O26   O     O_R   0.943840 0.751900 0.826620 -0.506593
O27   O     O_R   0.545410 0.050140 0.168240 -0.514487
O28   O     O_R   0.454590 0.050140 0.831760 -0.523788
O29   O     O_R   0.045410 0.550140 0.168240 -0.520260
O30   O     O_R   0.954590 0.550140 0.831760 -0.519997
O31   O     O_R   0.681530 0.958350 0.176970 -0.509987
O32   O     O_R   0.318470 0.958350 0.823030 -0.509551
O33   O     O_R   0.181530 0.458350 0.176970 -0.509099
O34   O     O_R   0.711810 0.543000 0.827480 -0.527212
O35   O     O_R   0.818470 0.458350 0.823030 -0.511824
O36   O     O_R   0.788610 0.044480 0.334450 -0.545749
O37   O     O_R   0.211390 0.044480 0.665550 -0.529452
O38   O     O_R   0.288610 0.544480 0.334450 -0.545847
O39   O     O_R   0.711390 0.544480 0.665550 -0.529739
O40   O     O_R   0.766630 0.293670 0.326970 -0.501830
O41   O     O_R   0.233370 0.293670 0.673030 -0.515759
O42   O     O_R   0.266630 0.793670 0.326970 -0.502086
O43   O     O_R   0.733370 0.793670 0.673030 -0.515846
O44   O     O_R   0.670730 0.410640 0.330640 -0.540794
O45   O     O_R   0.556550 0.253260 0.323480 -0.540904
O46   O     O_R   0.329270 0.410640 0.669360 -0.524623
O47   O     O_R   0.170730 0.910640 0.330640 -0.540696
O48   O     O_R   0.829270 0.910640 0.669360 -0.524669
O49   O     O_R   0.443450 0.253260 0.676520 -0.515661
O50   O     O_R   0.056550 0.753260 0.323480 -0.540294
O51   O     O_R   0.943450 0.753260 0.676520 -0.515773
O52   O     O_R   0.545830 0.051610 0.330160 -0.479450

loop_
_geom_bond_atom_site_label_1
_geom_bond_atom_site_label_2
_ccdc_geom_bond_type
C50   C77   A    
C58   C62   A    
C55   C59   A    
C100  H56   S    
Cr9   O24   S    
C28   O50   A    
C69   H54   S    
C16   H30   S    
C58   H43   S    
Cr8   O45   S    
C9    H24   S    
C53   O19   A    
C40   C86   S    
C110  C111  A    
C38   C45   S    
C25   C112  S    
C85   C129  S    
C37   H33   S    
C5    C139  A    
C45   C108  S    
C92   C102  A    
Cr11  O21   S    
C33   O39   A    
C17   C30   S    
C84   O30   A    
C117  C139  A    
C118  C140  A    
C19   C32   S    
C77   H62   S    
C81   O27   A    
C116  C121  A    
C82   O28   A    
Cr3   O7    S    
Cr6   O38   S    
C127  C136  A    
C46   C65   A    
C67   H48   S    
C93   C101  A    
C71   C73   A    
C140  H11   S    
C53   O15   A    
H66   N1    S    
Cr11  O13   S    
C37   C38   S    
C23   C113  S    
C101  H67   S    
Cr10  O20   S    
C109  H2    S    
C18   C122  A    
C20   C33   S    
Cr12  O31   S    
C60   H50   S    
Cr10  O11   S    
C74   C79   A    
Cr4   O35   S    
C21   O44   A    
C139  H10   S    
C112  C134  A    
Cr6   O42   S    
C57   C61   A    
C3    C7    A    
C98   C106  A    
C16   C124  A    
C51   C78   A    
H74   N4    S    
C125  H5    S    
C58   C89   A    
C48   C52   A    
Cr1   O1    S    
C113  C135  A    
C114  C136  A    
C63   H44   S    
C35   C63   A    
C18   C31   S    
Cr7   O43   S    
C21   O40   A    
Cr8   O22   S    
Cr11  O48   S    
C6    H20   S    
C105  C107  A    
C19   C123  A    
C4    H18   S    
H68   N1    S    
C27   C90   S    
C103  C110  A    
C40   H12   S    
C8    H22   S    
C68   C74   A    
C92   C96   A    
Cr4   O8    S    
C69   C76   A    
Cr1   O40   S    
C87   C131  S    
C86   C97   S    
Cr10  O47   S    
C110  H3    S    
C132  O33   A    
C64   O20   A    
C12   C121  A    
C115  C137  A    
C71   H57   S    
C96   C98   A    
H69   N2    S    
Cr8   O44   S    
C37   C47   S    
C52   C79   A    
C26   O52   A    
C50   C85   A    
C22   O41   A    
C97   H37   S    
Cr4   O13   S    
C108  H38   S    
C45   C83   S    
C133  O35   A    
H73   N4    S    
C89   C133  S    
Cr5   O15   S    
C34   C39   S    
C52   C88   A    
H72   N3    S    
C80   H65   S    
C23   O47   A    
C70   H55   S    
Cr2   O10   S    
C46   C51   A    
C117  C122  A    
C5    C9    A    
C64   O16   A    
C8    C12   A    
C34   H31   S    
C35   C130  A    
C62   H52   S    
C113  C117  A    
C79   H64   S    
C31   O6    A    
C43   C81   S    
Cr3   O11   S    
C83   O29   A    
C112  C116  A    
C3    H13   S    
C24   C62   A    
C10   H25   S    
C76   C80   A    
C75   O21   A    
C78   H63   S    
C22   O46   A    
C32   O7    A    
C57   H42   S    
Cr12  O9    S    
C33   O8    A    
C75   O17   A    
C18   C126  A    
Cr12  O27   S    
Cr5   O10   S    
C34   C36   S    
C26   O45   A    
C37   C41   S    
C14   H28   S    
C20   C124  A    
C91   C95   A    
C65   H46   S    
C40   C44   S    
H70   N2    S    
C1    C24   S    
C135  H15   S    
C48   C66   A    
Cr12  O52   S    
C106  C109  A    
C125  C134  A    
C103  N1    S    
C96   C105  A    
C86   H36   S    
C101  C102  A    
C14   C122  A    
Cr6   O23   S    
C32   O38   A    
C21   C115  S    
Cr4   O30   S    
C39   H1    S    
C44   C82   S    
C131  O12   A    
Cr7   O34   S    
Cr10  O25   S    
C2    C60   A    
C39   C97   S    
Cr6   O16   S    
Cr7   O39   S    
C27   O2    A    
Cr9   O10   S    
C134  H14   S    
C13   C53   S    
C75   C130  S    
C41   H23   S    
Cr9   O49   S    
C107  C109  A    
C108  C119  S    
C73   H61   S    
Cr2   O32   S    
C25   O48   A    
H71   N3    S    
C90   C94   A    
C54   C80   A    
Cr4   O4    S    
Cr1   O36   S    
C26   C91   S    
Cr1   O9    S    
C56   C60   A    
Cr5   O12   S    
C28   C93   S    
C55   C85   A    
C9    C14   A    
C27   O49   A    
C104  C111  A    
C11   C16   A    
C104  N2    S    
C47   C84   S    
C41   C119  S    
C17   C121  A    
C126  C135  A    
C30   O36   A    
Cr2   O6    S    
Cr7   O17   S    
C82   O24   A    
C43   C86   S    
C6    C10   A    
C38   C42   S    
C1    O14   A    
C55   H40   S    
C25   O43   A    
C41   C45   S    
C15   H29   S    
C83   O25   A    
C138  H9    S    
C118  C123  A    
C6    C140  A    
C94   C95   A    
C4    C138  A    
C36   C43   S    
Cr3   O33   S    
C129  O31   A    
C29   C92   S    
C49   C54   A    
Cr9   O19   S    
C66   C68   A    
C59   C130  A    
C4    C8    A    
C133  O34   A    
C2    C46   A    
C7    C11   A    
C15   C123  A    
C74   H58   S    
C105  N3    S    
C84   O26   A    
C119  H39   S    
C20   C128  A    
C10   C15   A    
C23   O42   A    
C38   H35   S    
Cr5   O37   S    
Cr10  O50   S    
Cr3   O3    S    
C132  O23   A    
Cr6   O11   S    
C31   O37   A    
C73   C78   A    
C36   H32   S    
C81   O22   A    
C111  H4    S    
C137  H17   S    
C66   H47   S    
C42   H34   S    
C47   C119  S    
C90   C100  A    
C2    C64   S    
C116  C138  A    
C126  H6    S    
Cr12  O5    S    
C36   C40   S    
C34   C44   S    
C54   C89   A    
C51   C87   A    
C1    O18   A    
C56   C87   A    
C39   C43   S    
C136  H16   S    
C65   C71   A    
C129  O1    A    
C67   C69   A    
Cr5   O41   S    
C128  C137  A    
C29   O4    A    
C72   C77   A    
Cr11  O51   S    
C44   C97   S    
C59   H49   S    
C99   C100  A    
C63   C70   A    
C22   C114  S    
C29   O51   A    
C107  H76   S    
C99   H45   S    
C35   C50   A    
Cr1   O14   S    
C5    H19   S    
C11   H26   S    
Cr2   O28   S    
Cr9   O46   S    
C114  C118  A    
Cr3   O29   S    
C76   H59   S    
Cr8   O9    S    
C88   C132  S    
C30   O5    A    
C127  H7    S    
C95   C104  A    
C128  H8    S    
C131  O32   A    
C24   C49   A    
C49   C67   A    
C94   C103  A    
C13   C48   A    
Cr8   O18   S    
C57   C88   A    
C91   C99   A    
C61   H51   S    
C17   C125  A    
C72   H60   S    
C7    H21   S    
C19   C127  A    
C102  H75   S    
C106  N4    S    
C42   C47   S    
C3    C120  A    
C28   O3    A    
C56   H41   S    
Cr2   O2    S    
C12   H27   S    
C13   C61   A    
Cr7   O13   S    
C115  C120  A    
C68   H53   S    
C70   C72   A    
C42   C108  S    
C93   C98   A    
C120  C124  A    
Cr11  O26   S    
