data_mof_unit_36109.cif
_audit_creation_date              2012-12-10T20:37:34-0500
_audit_creation_method            fapswitch 2.2
_symmetry_space_group_name_H-M    P1
_symmetry_Int_Tables_number       1
_space_group_crystal_system       triclinic
_cell_length_a                    15.694187
_cell_length_b                    10.699552
_cell_length_c                    9.936128
_cell_angle_alpha                 88.453968
_cell_angle_beta                  91.588701
_cell_angle_gamma                 91.103017
_cell_volume                      1666.94793903

loop_
_atom_site_label
_atom_site_type_symbol
_atom_type_description
_atom_site_fract_x
_atom_site_fract_y
_atom_site_fract_z
_atom_type_partial_charge
C1    C     C_R   0.506088 0.260789 0.501751 0.939172
C2    C     C_R   0.512831 0.128329 0.504303 -0.132436
C3    C     C_R   0.553242 0.065774 0.400288 0.322691
C4    C     C_R   0.338168 0.500871 0.498205 0.907658
C5    C     C_R   0.542693 0.937000 0.393522 -0.292609
C6    C     C_R   0.497945 0.871353 0.493255 -0.133567
C7    C     C_R   0.457093 0.933802 0.592584 0.064168
C8    C     C_3   0.462499 0.912802 0.741748 -0.184199
C9    C     C_3   0.475767 0.053211 0.751328 0.171046
C10   C     C_R   0.427250 0.472595 0.069055 0.116243
C11   C     C_R   0.568230 0.541892 0.076236 -0.095108
C12   C     C_3   0.083348 0.501278 0.497075 -0.032521
C13   C     C_R   0.568894 0.545924 0.933577 0.451824
C14   C     C_R   0.427045 0.470955 0.926892 0.111439
C15   C     C_3   0.378286 0.348811 0.930318 0.221025
C16   C     C_R   0.499455 0.739441 0.498200 0.916246
C17   C     C_3   0.375497 0.356157 0.082619 -0.487138
C18   C     C_R   0.661856 0.500465 0.501646 0.935703
C19   C     C_3   0.976633 0.533200 0.625936 -0.248119
C20   C     C_3   0.031336 0.417985 0.594917 -0.182734
C21   C     C_1   0.249319 0.501823 0.494397 -0.024806
C22   C     C_1   0.750704 0.500456 0.505360 -0.036200
C23   C     C_3   0.970120 0.580993 0.410599 -0.020244
C24   C     C_3   0.030156 0.614881 0.528041 0.437696
C25   C     C_3   0.916777 0.500015 0.506055 -0.006391
C26   C     C_3   0.023970 0.467839 0.376634 -0.338979
C27   C     C_3   0.970454 0.386906 0.475287 0.398820
C28   C     C_1   0.174041 0.501803 0.494133 0.121653
C29   C     C_1   0.825991 0.500285 0.507025 0.103735
C30   C     C_R   0.465962 0.061054 0.599874 -0.083509
H1    H     H_    0.058497 0.349594 0.669587 0.240013
H2    H     H_    0.574923 0.886826 0.317106 0.212753
H3    H     H_    0.652506 0.974941 0.689005 0.363819
H4    H     H_    0.705384 0.734832 0.705691 0.373045
H5    H     H_    0.285821 0.194320 0.722652 0.352415
H6    H     H_    0.046630 0.173258 0.357625 0.357715
H7    H     H_    0.985680 0.709281 0.258724 0.245476
H8    H     H_    0.897033 0.620139 0.243603 0.237055
H9    H     H_    0.956078 0.867723 0.511907 0.389470
H10   H     H_    0.532742 0.152613 0.129678 0.346371
H11   H     H_    0.331304 0.923076 0.759910 0.227161
H12   H     H_    0.517329 0.855796 0.778038 0.246887
H13   H     H_    0.385080 0.873641 0.899870 0.207618
H14   H     H_    0.423337 0.097908 0.802536 0.073380
H15   H     H_    0.623266 0.572185 0.135227 0.203750
H16   H     H_    0.417587 0.271725 0.897844 0.097333
H17   H     H_    0.311903 0.375508 0.123056 0.240249
H18   H     H_    0.409879 0.279681 0.137030 0.194022
H19   H     H_    0.955958 0.560401 0.726826 0.221795
H20   H     H_    0.044137 0.441726 0.275101 0.202058
N1    N     N_R   0.499430 0.499140 0.142800 -0.120810
N2    N     N_R   0.499430 0.499180 0.857150 -0.179541
N3    N     N_3   0.934777 0.670548 0.312246 -0.401529
N4    N     N_3   0.381365 0.866590 0.795116 -0.398891
O1    O     O_R   0.500010 0.316790 0.614690 -0.588063
O2    O     O_2   0.599898 0.016134 0.941671 -0.245591
O3    O     O_3   0.655355 0.066317 0.702323 -0.452636
O4    O     O_2   0.711675 0.684469 0.974880 -0.280925
O5    O     O_2   0.721239 0.506604 0.829426 -0.242137
O6    O     O_3   0.647822 0.709764 0.736191 -0.578371
O7    O     O_2   0.210726 0.283810 0.936056 -0.275039
O8    O     O_2   0.246528 0.486184 0.829613 -0.234671
O9    O     O_3   0.277458 0.284147 0.700651 -0.561194
O10   O     O_2   0.873897 0.190124 0.554661 -0.174845
O11   O     O_2   0.877366 0.237454 0.312088 -0.204271
O12   O     O_R   0.500000 0.316760 0.385350 -0.590015
O13   O     O_3   0.010398 0.135186 0.428367 -0.467768
O14   O     O_2   0.131957 0.760195 0.681779 -0.224518
O15   O     O_2   0.118197 0.819021 0.442270 -0.283733
O16   O     O_3   0.991011 0.862238 0.596346 -0.439253
O17   O     O_2   0.680015 0.234589 0.368084 -0.218648
O18   O     O_2   0.685438 0.046979 0.234074 -0.185354
O19   O     O_3   0.575014 0.214961 0.163381 -0.479363
O20   O     O_R   0.376780 0.500010 0.614650 -0.553142
O21   O     O_R   0.376770 0.499970 0.385310 -0.641373
O22   O     O_R   0.500000 0.683240 0.614650 -0.580799
O23   O     O_R   0.499990 0.683210 0.385310 -0.636170
O24   O     O_R   0.623230 0.500030 0.614690 -0.527441
O25   O     O_R   0.623220 0.499990 0.385350 -0.606173
O26   O     O_2   0.585005 0.229119 0.850389 -0.222084
S1    S     S_3+6 0.580906 0.093251 0.816136 0.083594
S2    S     S_3+6 0.664897 0.611157 0.867936 0.071274
S3    S     S_3+6 0.274407 0.353258 0.850335 0.039945
S4    S     S_3+6 0.929358 0.234216 0.441370 0.112439
S5    S     S_3+6 0.071423 0.767539 0.562138 0.086043
S6    S     S_3+6 0.627146 0.140820 0.291037 0.131545
Zn1   Zn    Zn3+2 0.500010 0.500020 0.653130 1.099759
Zn2   Zn    Zn3+2 0.499990 0.499980 0.346870 1.016805

loop_
_geom_bond_atom_site_label_1
_geom_bond_atom_site_label_2
_ccdc_geom_bond_type
O24   Zn1   S    
O8    S3    D    
C22   C29   T    
C19   C20   S    
C17   H18   S    
H6    O13   S    
O2    S1    D    
C26   C27   S    
C12   C28   S    
C27   S4    S    
C8    H12   S    
C16   O23   A    
C26   H20   S    
O12   Zn2   S    
C5    C6    A    
C10   C17   S    
C13   N2    A    
H10   O19   S    
C1    C2    S    
C23   C26   S    
O10   S4    D    
C4    O21   A    
O6    S2    S    
C14   N2    A    
O23   Zn2   S    
C18   O25   A    
C23   C24   S    
O5    S2    D    
O20   Zn1   S    
C24   S5    S    
C4    O20   A    
C5    H2    S    
H7    N3    S    
O13   S4    S    
C7    C30   A    
C18   C22   S    
C3    S6    S    
H4    O6    S    
O14   S5    D    
C10   N1    A    
O25   Zn2   S    
C23   N3    S    
C25   C29   S    
O19   S6    S    
C7    C8    S    
C10   C14   A    
C8    N4    S    
C8    C9    S    
O11   S4    D    
C15   S3    S    
C13   S2    S    
C12   C26   S    
O17   S6    D    
C19   H19   S    
H13   N4    S    
C18   O24   A    
C12   C20   S    
C1    O12   A    
O22   Zn1   S    
C9    C30   S    
C21   C28   T    
O7    S3    D    
O3    S1    S    
C11   H15   S    
O15   S5    D    
C15   C17   S    
C9    H14   S    
H3    O3    S    
C16   O22   A    
N2    Zn1   S    
C17   H17   S    
O26   S1    D    
C3    C5    A    
N1    Zn2   S    
O18   S6    D    
C6    C7    A    
C20   C27   S    
C25   C27   S    
C12   C24   S    
C2    C30   A    
O4    S2    D    
C2    C3    A    
C1    O1    A    
C4    C21   S    
C11   C13   A    
H8    N3    S    
H9    O16   S    
C19   C24   S    
C23   C25   S    
O1    Zn1   S    
C19   C25   S    
H11   N4    S    
C11   N1    A    
C6    C16   S    
O21   Zn2   S    
O9    S3    S    
C14   C15   S    
H5    O9    S    
C15   H16   S    
O16   S5    S    
C9    S1    S    
C20   H1    S    
