data_mof_unit_22732.cif
_audit_creation_date              2012-12-11T14:27:10-0500
_audit_creation_method            fapswitch 2.2
_symmetry_space_group_name_H-M    P1
_symmetry_Int_Tables_number       1
_space_group_crystal_system       triclinic
_cell_length_a                    15.166417
_cell_length_b                    14.875173
_cell_length_c                    14.894771
_cell_angle_alpha                 109.264897
_cell_angle_beta                  109.626731
_cell_angle_gamma                 109.610558
_cell_volume                      2583.91034093

loop_
_atom_site_label
_atom_site_type_symbol
_atom_type_description
_atom_site_fract_x
_atom_site_fract_y
_atom_site_fract_z
_atom_type_partial_charge
C1    C     C_R   0.987718 0.796202 0.081903 -0.144687
C2    C     C_R   0.690117 0.145041 0.688590 0.133641
C3    C     C_R   0.947349 0.499651 0.676000 0.133834
C4    C     C_R   0.688727 0.500532 0.042136 0.050326
C5    C     C_R   0.003401 0.591384 0.302891 -0.165772
C6    C     C_R   0.209726 0.408854 0.907462 -0.204803
C7    C     C_R   0.311150 0.745855 0.222135 -0.161914
C8    C     C_R   0.979217 0.255951 0.069182 -0.153820
C9    C     C_R   0.070916 0.256339 0.978580 -0.122092
C10   C     C_R   0.219850 0.747170 0.313316 -0.109459
C11   C     C_R   0.911826 0.408680 0.211020 -0.141860
C12   C     C_R   0.787004 0.202475 0.695270 -0.158097
C13   C     C_R   0.298886 0.591411 0.997204 -0.036620
C14   C     C_R   0.947602 0.500292 0.307396 0.144850
C15   C     C_R   0.303466 0.500267 0.941476 0.066133
C16   C     C_R   0.320839 0.771118 0.324125 0.130741
C17   C     C_R   0.057361 0.233397 0.057542 0.131560
C18   C     C_3   0.491546 0.394081 0.905071 -0.358642
C19   C     C_3   0.386182 0.396158 0.874490 -0.539403
C20   C     C_3   0.562681 0.510376 0.110664 -0.344781
C21   C     C_3   0.593652 0.601826 0.998710 0.566588
C22   C     C_3   0.586095 0.500749 0.015060 0.135972
C23   C     C_R   0.024159 0.591516 0.778214 -0.153998
C24   C     C_3   0.405351 0.501076 0.965989 0.191817
C25   C     C_3   0.451583 0.503484 0.078681 0.509111
C26   C     C_3   0.486929 0.602279 0.972072 -0.543873
C27   C     C_2   0.432817 0.869523 0.523254 -0.108535
C28   C     C_2   0.422816 0.821987 0.424330 -0.214759
C29   C     C_2   0.534639 0.966952 0.616561 -0.119222
C30   C     C_2   0.604244 0.035056 0.600593 -0.192113
C31   C     C_2   0.840685 0.412015 0.476771 -0.114818
C32   C     C_2   0.895647 0.502465 0.575877 -0.190013
C33   C     C_2   0.842402 0.418438 0.381116 -0.121985
C34   C     C_R   0.697358 0.408835 0.995586 0.056907
C35   C     C_2   0.923774 0.504213 0.394516 -0.193536
C36   C     C_2   0.161414 0.140626 0.078628 -0.123458
C37   C     C_2   0.107557 0.185108 0.113159 -0.197748
C38   C     C_2   0.154112 0.040107 0.079358 -0.111778
C39   C     C_2   0.067266 0.968491 0.073883 -0.197410
C40   C     C_R   0.935088 0.407927 0.686736 -0.110127
C41   C     C_R   0.786178 0.592137 0.083371 -0.113239
C42   C     C_R   0.695399 0.204822 0.785200 -0.120404
C43   C     C_R   0.082928 0.798974 0.995351 -0.129330
C44   C     C_R   0.043486 0.857086 0.046950 0.129771
H1    H     H_    0.959717 0.824261 0.137595 0.085402
H2    H     H_    0.180652 0.323553 0.853350 0.099812
H3    H     H_    0.374803 0.754911 0.202475 0.128884
H4    H     H_    0.949921 0.246538 0.124109 0.099109
H5    H     H_    0.125945 0.248490 0.950116 0.086841
H6    H     H_    0.199120 0.757277 0.377072 0.088781
H7    H     H_    0.853776 0.324515 0.180960 0.079143
H8    H     H_    0.354624 0.676853 0.029122 0.080378
H9    H     H_    0.479142 0.319161 0.911533 0.162244
H10   H     H_    0.509755 0.385889 0.837287 0.210698
H11   H     H_    0.354991 0.394187 0.794287 0.206302
H12   H     H_    0.814262 0.170830 0.640164 0.092232
H13   H     H_    0.326057 0.319922 0.863845 0.158538
H14   H     H_    0.392309 0.423802 0.064881 0.011950
H15   H     H_    0.657932 0.678939 0.078433 -0.027138
H16   H     H_    0.451828 0.601239 0.892729 0.191840
H17   H     H_    0.504954 0.680344 0.037514 0.149820
H18   H     H_    0.627271 0.592663 0.183948 0.167862
H19   H     H_    0.362399 0.850175 0.533336 0.115999
H20   H     H_    0.053117 0.676279 0.798257 0.098490
H21   H     H_    0.493957 0.836481 0.415926 0.135727
H22   H     H_    0.543846 0.990891 0.697724 0.114820
H23   H     H_    0.595277 0.014027 0.519877 0.132027
H24   H     H_    0.810696 0.330638 0.468010 0.115658
H25   H     H_    0.918600 0.583303 0.583893 0.127996
H26   H     H_    0.787070 0.344402 0.301203 0.114079
H27   H     H_    0.981731 0.578016 0.473933 0.127975
H28   H     H_    0.194115 0.163747 0.030139 0.111730
H29   H     H_    0.081948 0.167509 0.168221 0.131173
H30   H     H_    0.211835 0.017453 0.067190 0.115077
H31   H     H_    0.007105 0.988365 0.082965 0.127704
H32   H     H_    0.882380 0.322861 0.623096 0.087829
H33   H     H_    0.813081 0.677828 0.133460 0.075525
H34   H     H_    0.637294 0.177867 0.810239 0.092297
H35   H     H_    0.141235 0.829166 0.971138 0.081929
H36   H     H_    0.027927 0.675310 0.357107 0.090992
N1    N     N_R   0.993980 0.704500 0.053430 -0.035839
N2    N     N_R   0.154170 0.443650 0.946570 -0.038726
N3    N     N_R   0.207180 0.704490 0.150760 -0.044938
N4    N     N_R   0.948740 0.295490 0.002840 -0.043046
N5    N     N_R   0.006020 0.295500 0.946570 -0.042386
N6    N     N_R   0.149890 0.704480 0.207030 -0.044729
N7    N     N_R   0.946310 0.443620 0.150760 -0.042938
N8    N     N_R   0.209610 0.556360 0.002840 -0.047585
N9    N     N_R   0.850110 0.295520 0.792970 -0.038459
N10   N     N_R   0.053690 0.556380 0.849240 -0.043484
N11   N     N_R   0.790390 0.443640 0.997160 -0.052164
N12   N     N_R   0.998260 0.443670 0.792970 -0.042558
N13   N     N_R   0.845830 0.556350 0.053430 -0.041761
N14   N     N_R   0.792820 0.295510 0.849240 -0.044023
N15   N     N_R   0.051260 0.704510 0.997160 -0.041300
N16   N     N_R   0.001740 0.556330 0.207030 -0.039289
Ni1   Ni    Ni4+2 0.997880 0.629240 0.129060 0.210678
Ni2   Ni    Ni4+2 0.002120 0.370760 0.870940 0.208401
Ni3   Ni    Ni4+2 0.129260 0.629260 0.000000 0.204880
Ni4   Ni    Ni4+2 0.870740 0.370740 0.000000 0.201788
N17   N     N_3   0.567844 0.427245 0.141229 -0.216352
H37   H     H_    0.499935 0.349634 0.081653 0.100002
H38   H     H_    0.566871 0.447154 0.214928 0.116526
O1    O     O_3   0.615836 0.595763 0.912048 -0.601561
C45   C     C_3   0.672892 0.702037 0.928407 -0.243173
H39   H     H_    0.755188 0.750213 0.001972 0.127561
H40   H     H_    0.628044 0.747280 0.936050 0.122423
H41   H     H_    0.682592 0.693660 0.856013 0.177372
O2    O     O_3   0.465207 0.596536 0.163082 -0.632815
C46   C     C_3   0.426548 0.566776 0.228699 -0.266961
H42   H     H_    0.466134 0.526480 0.264075 0.133299
H43   H     H_    0.337055 0.512328 0.180586 0.157117
H44   H     H_    0.446223 0.642375 0.298264 0.175363
N18   N     N_3   0.642723 0.305900 0.989984 -0.237088
H45   H     H_    0.649095 0.323345 0.066429 0.106840
H46   H     H_    0.687715 0.266479 0.984839 0.086247

loop_
_geom_bond_atom_site_label_1
_geom_bond_atom_site_label_2
_ccdc_geom_bond_type
C16   C28   S    
C7    N3    A    
C21   C26   S    
N17   H37   S    
C6    N2    A    
C27   C29   S    
C3    C23   A    
C2    C12   A    
N18   H45   S    
N12   Ni2   S    
C19   H13   S    
C45   H40   S    
C36   C37   D    
C26   H17   S    
C24   C26   S    
C21   H15   S    
C41   H33   S    
C38   C39   D    
N1    N15   A    
C11   C14   A    
N15   Ni3   S    
C4    C41   A    
C1    N1    A    
C18   C19   S    
N9    N14   A    
N6    Ni1   S    
C34   N11   A    
N5    Ni2   S    
C18   H9    S    
C9    N5    A    
C6    C15   A    
C46   H42   S    
C21   O1    S    
C15   C24   S    
C10   N6    A    
C11   N7    A    
C43   N15   A    
C31   C33   S    
C39   H31   S    
N11   Ni4   S    
C30   H23   S    
C25   O2    S    
C35   H27   S    
N17   H38   S    
C42   N14   A    
C21   C22   S    
N7    N16   A    
N2    Ni2   S    
O1    C45   S    
C31   H24   S    
C45   H41   S    
C4    C34   A    
N4    Ni4   S    
C12   N9    A    
C9    H5    S    
C24   C25   S    
C14   C35   S    
C20   N17   S    
C40   N12   A    
C40   H32   S    
C7    H3    S    
C43   C44   A    
C8    H4    S    
C29   C30   D    
N11   N13   A    
C13   H8    S    
C4    C22   S    
C1    C44   A    
N10   N12   A    
C31   C32   D    
N14   Ni4   S    
N16   Ni1   S    
C23   N10   A    
C17   C37   S    
N4    N5    A    
C5    H36   S    
C46   H44   S    
C5    C14   A    
C12   H12   S    
C43   H35   S    
C27   H19   S    
C33   H26   S    
C9    C17   A    
C23   H20   S    
C20   C22   S    
C3    C40   A    
C42   H34   S    
C13   C15   A    
C25   H14   S    
C10   H6    S    
N13   Ni1   S    
N10   Ni3   S    
C5    N16   A    
N7    Ni4   S    
C38   H30   S    
C19   H11   S    
C37   H29   S    
C7    C16   A    
C6    H2    S    
C8    N4    A    
C32   H25   S    
N18   H46   S    
C39   C44   S    
C34   N18   S    
C45   H39   S    
C8    C17   A    
N9    Ni2   S    
C2    C30   S    
C41   N13   A    
C18   C22   S    
C19   C24   S    
C10   C16   A    
O2    C46   S    
C1    H1    S    
N1    Ni1   S    
C2    C42   A    
N2    N8    A    
C13   N8    A    
C36   C38   S    
C33   C35   D    
C28   H21   S    
C20   H18   S    
C3    C32   S    
C46   H43   S    
N8    Ni3   S    
C11   H7    S    
C18   H10   S    
C29   H22   S    
N3    N6    A    
C20   C25   S    
C27   C28   D    
N3    Ni3   S    
C26   H16   S    
C36   H28   S    
