data_mof_unit_51410.cif
_audit_creation_date              2012-12-11T14:19:19-0500
_audit_creation_method            fapswitch 2.2
_symmetry_space_group_name_H-M    P1
_symmetry_Int_Tables_number       1
_space_group_crystal_system       triclinic
_cell_length_a                    19.44022
_cell_length_b                    7.246199
_cell_length_c                    17.756161
_cell_angle_alpha                 90.000013
_cell_angle_beta                  107.431284
_cell_angle_gamma                 90.0
_cell_volume                      2386.40357332

loop_
_atom_site_label
_atom_site_type_symbol
_atom_type_description
_atom_site_fract_x
_atom_site_fract_y
_atom_site_fract_z
_atom_type_partial_charge
O1    O     O_R   0.414820 0.494320 0.416790 -0.538004
O2    O     O_R   0.585180 0.994320 0.583210 -0.538004
O3    O     O_R   0.560270 0.819500 0.430140 -0.541218
O4    O     O_R   0.439730 0.319500 0.569860 -0.541217
C1    C     C_R   0.581527 0.655469 0.415744 0.709753
C2    C     C_R   0.418472 0.155469 0.584256 0.709753
O5    O     O_R   0.413840 0.823740 0.407440 -0.541422
O6    O     O_R   0.586160 0.323740 0.592560 -0.541422
O7    O     O_R   0.437710 0.998590 0.560350 -0.535023
O8    O     O_R   0.562290 0.498590 0.439650 -0.535023
C3    C     C_R   0.386134 0.655374 0.388243 0.680709
C4    C     C_R   0.613866 0.155374 0.611757 0.680710
O9    O     O_3   0.508000 0.662290 0.550200 -0.377904
O10   O     O_3   0.492000 0.162290 0.449800 -0.377904
V1    V     V_3+5 0.498520 0.935380 0.490690 1.456829
V2    V     V_3+5 0.501480 0.435380 0.509310 1.456829
C5    C     C_2   0.786745 0.265754 0.780759 0.240918
C6    C     C_2   0.213255 0.765754 0.219241 0.240917
C7    C     C_2   0.813645 0.115698 0.827480 -0.212013
C8    C     C_2   0.186355 0.615698 0.172520 -0.212014
C9    C     C_2   0.712209 0.268988 0.725128 -0.058323
C10   C     C_2   0.287791 0.768988 0.274872 -0.058323
C11   C     C_2   0.687482 0.142815 0.667660 0.011050
C12   C     C_2   0.312518 0.642815 0.332340 0.011050
H1    H     H_    0.678439 0.385761 0.729174 0.128131
H2    H     H_    0.321560 0.885761 0.270825 0.128131
C13   C     C_R   0.292388 0.107366 0.591856 -0.087529
C14   C     C_R   0.707612 0.607366 0.408144 -0.087529
C15   C     C_R   0.365798 0.147025 0.629229 -0.132831
C16   C     C_R   0.634202 0.647025 0.370770 -0.132831
C17   C     C_R   0.389856 0.179970 0.709965 -0.194966
C18   C     C_R   0.610144 0.679970 0.290035 -0.194966
C19   C     C_R   0.342406 0.171443 0.755363 0.109126
C20   C     C_R   0.657594 0.671443 0.244637 0.109126
C21   C     C_R   0.268339 0.133758 0.719922 0.003546
C22   C     C_R   0.731661 0.633758 0.280078 0.003546
C23   C     C_R   0.242234 0.101643 0.637076 0.062395
C24   C     C_R   0.757766 0.601643 0.362924 0.062395
C25   C     C_R   0.369122 0.202801 0.836225 -0.200934
C26   C     C_R   0.630878 0.702800 0.163775 -0.200934
C27   C     C_R   0.324535 0.193040 0.884434 -0.064377
C28   C     C_R   0.675465 0.693039 0.115566 -0.064377
C29   C     C_R   0.249997 0.149154 0.851652 0.033462
C30   C     C_R   0.750003 0.649154 0.148348 0.033462
C31   C     C_R   0.221172 0.128357 0.767895 0.029852
C32   C     C_R   0.778828 0.628357 0.232105 0.029852
C33   C     C_R   0.145802 0.100968 0.732441 -0.002645
C34   C     C_R   0.854198 0.600968 0.267558 -0.002645
C35   C     C_R   0.120386 0.061019 0.649984 -0.102968
C36   C     C_R   0.879614 0.561019 0.350016 -0.102968
C37   C     C_R   0.167727 0.062333 0.603084 0.131615
C38   C     C_R   0.832273 0.562333 0.396916 0.131615
C39   C     C_R   0.203330 0.124199 0.899062 -0.110148
C40   C     C_R   0.796670 0.624198 0.100937 -0.110148
C41   C     C_R   0.128349 0.119400 0.863999 -0.141411
C42   C     C_R   0.871651 0.619401 0.136001 -0.141411
C43   C     C_R   0.099248 0.113971 0.781275 -0.090320
C44   C     C_R   0.900752 0.613972 0.218725 -0.090320
H3    H     H_    0.446477 0.210402 0.737746 0.119164
H4    H     H_    0.553522 0.710402 0.262254 0.119164
H5    H     H_    0.425737 0.236631 0.862243 0.137699
H6    H     H_    0.574263 0.736630 0.137757 0.137699
O11   O     O_R   0.937810 0.773680 0.060480 -0.535834
O12   O     O_R   0.062190 0.273680 0.939520 -0.535834
O13   O     O_R   0.086190 0.439740 0.092580 -0.533165
O14   O     O_R   0.913810 0.939740 0.907420 -0.533165
C45   C     C_R   0.113458 0.608791 0.113348 0.699234
C46   C     C_R   0.886542 0.108791 0.886652 0.699234
O15   O     O_R   0.939760 0.444210 0.069890 -0.537377
O16   O     O_R   0.060240 0.944210 0.930110 -0.537377
O17   O     O_R   0.914790 0.269640 0.916760 -0.546045
O18   O     O_R   0.085210 0.769640 0.083240 -0.546045
C47   C     C_R   0.919980 0.612354 0.085253 0.707294
C48   C     C_R   0.080020 0.112354 0.914746 0.707294
O19   O     O_3   0.992050 0.601530 0.949880 -0.381328
O20   O     O_3   0.007950 0.101530 0.050120 -0.381328
V3    V     V_3+5 0.001480 0.328340 0.009300 1.465910
V4    V     V_3+5 0.998520 0.828340 0.990700 1.465910
N1    N     N_3   0.827545 0.432430 0.784010 -0.606082
H7    H     H_    0.877568 0.400969 0.776570 0.260437
H8    H     H_    0.834501 0.497313 0.838328 0.260554
N2    N     N_3   0.172455 0.932430 0.215990 -0.606082
H9    H     H_    0.122432 0.900969 0.223429 0.260437
H10   H     H_    0.165499 0.997313 0.161672 0.260554
C49   C     C_1   0.021435 0.128633 0.749080 0.301032
N3    N     N_1   0.959349 0.140838 0.724214 -0.327603
C50   C     C_1   0.978565 0.628634 0.250920 0.301032
N4    N     N_1   0.040651 0.640840 0.275786 -0.327604
C51   C     C_1   0.046698 0.003291 0.611413 0.328294
N5    N     N_1   0.988227 0.956382 0.579760 -0.328030
C52   C     C_1   0.953302 0.503291 0.388587 0.328294
N6    N     N_1   0.011773 0.456382 0.420240 -0.328030
N7    N     N_3   0.139362 0.021435 0.520266 -0.637732
H11   H     H_    0.117790 0.888089 0.513293 0.252245
H12   H     H_    0.098581 0.116028 0.494091 0.264441
N8    N     N_3   0.860638 0.521435 0.479734 -0.637733
H13   H     H_    0.901418 0.616028 0.505908 0.264441
H14   H     H_    0.882210 0.388090 0.486707 0.252245
C53   C     C_1   0.767625 0.957675 0.826774 0.349760
N9    N     N_1   0.730637 0.832117 0.825905 -0.307814
C54   C     C_1   0.232375 0.457675 0.173226 0.349760
N10   N     N_1   0.269363 0.332117 0.174095 -0.307814
N11   N     N_3   0.734748 0.000421 0.655851 -0.614528
H15   H     H_    0.711061 0.872350 0.659128 0.261944
H16   H     H_    0.738808 0.014486 0.598732 0.243439
N12   N     N_3   0.265251 0.500421 0.344149 -0.614528
H17   H     H_    0.288939 0.372350 0.340872 0.261944
H18   H     H_    0.261192 0.514486 0.401268 0.243439
C55   C     C_1   0.270990 0.076954 0.507154 0.365161
N13   N     N_1   0.254543 0.052826 0.439628 -0.314567
C56   C     C_1   0.729009 0.576955 0.492845 0.365161
N14   N     N_1   0.745457 0.552827 0.560372 -0.314567
C57   C     C_1   0.357314 0.244865 0.966036 0.330362
N15   N     N_1   0.384031 0.287161 0.031139 -0.315753
C58   C     C_1   0.642685 0.744864 0.033964 0.330362
N16   N     N_1   0.615969 0.787159 0.968860 -0.315753
C59   C     C_1   0.230792 0.083627 0.982781 0.299804
N17   N     N_1   0.252118 0.048335 0.049300 -0.326265
C60   C     C_1   0.769208 0.583626 0.017219 0.299804
N18   N     N_1   0.747882 0.548334 0.950700 -0.326265

loop_
_geom_bond_atom_site_label_1
_geom_bond_atom_site_label_2
_ccdc_geom_bond_type
O14   C46   A    
C50   N4    T    
N7    H11   S    
C13   C15   A    
O12   V3    S    
C8    C45   S    
O15   V3    S    
C56   N14   T    
O1    C3    A    
O2    C4    A    
C44   C50   S    
C2    O7    A    
C33   C35   A    
C49   N3    T    
O5    C3    A    
C4    C11   S    
C19   C25   A    
C20   C26   A    
C21   C23   A    
C1    C16   S    
C23   C37   A    
C39   C59   S    
O16   V4    S    
N12   H17   S    
C58   N16   T    
C3    C12   S    
C5    N1    S    
C26   H6    S    
C45   O18   A    
C17   H3    S    
O18   V4    S    
C19   C21   A    
C41   C48   S    
C29   C39   A    
C11   N11   S    
C42   C44   A    
C14   C16   A    
C35   C37   A    
N8    H14   S    
O16   C48   A    
C36   C38   A    
C17   C19   A    
O15   C47   A    
C20   C22   A    
C34   C36   A    
O6    V2    S    
C40   C60   S    
C27   C29   A    
C28   C30   A    
C25   H5    S    
C6    N2    S    
C30   C32   A    
C32   C34   A    
C31   C33   A    
C14   C56   S    
O14   V4    S    
C40   C42   A    
O13   V3    S    
C54   N10   T    
O20   V3    S    
C25   C27   A    
C27   C57   S    
C52   N6    T    
N1    H8    S    
C7    C53   S    
C8    C54   S    
O11   C47   A    
O13   C45   A    
C5    C9    S    
C18   C20   A    
O4    V2    S    
C33   C43   A    
C36   C52   S    
C53   N9    T    
C14   C24   A    
O6    C4    A    
N8    H13   S    
C7    C46   S    
N11   H16   S    
O1    V2    S    
C22   C32   A    
O2    V1    S    
C29   C31   A    
C37   N7    S    
O4    C2    A    
N2    H10   S    
C41   C43   A    
C10   C12   D    
C12   N12   S    
C18   H4    S    
C39   C41   A    
C22   C24   A    
C21   C31   A    
O17   V3    S    
O3    V1    S    
C57   N15   T    
C9    H1    S    
C42   C47   S    
C6    C10   S    
C35   C51   S    
C26   C28   A    
O3    C1    A    
C60   N18   T    
C34   C44   A    
C9    C11   D    
O7    V1    S    
C1    O8    A    
C15   C17   A    
O8    V2    S    
C55   N13   T    
C16   C18   A    
N12   H18   S    
C13   C23   A    
C46   O17   A    
O5    V1    S    
C5    C7    D    
C43   C49   S    
C38   N8    S    
C6    C8    D    
O19   V4    S    
N1    H7    S    
C30   C40   A    
C28   C58   S    
C2    C15   S    
C24   C38   A    
C13   C55   S    
N7    H12   S    
N2    H9    S    
C10   H2    S    
O9    V2    S    
N11   H15   S    
O12   C48   A    
O10   V1    S    
C51   N5    T    
C59   N17   T    
O11   V4    S    
