data_mof_unit_43251.cif
_audit_creation_date              2012-12-11T14:36:03-0500
_audit_creation_method            fapswitch 2.2
_symmetry_space_group_name_H-M    P1
_symmetry_Int_Tables_number       1
_space_group_crystal_system       triclinic
_cell_length_a                    13.505953
_cell_length_b                    13.513677
_cell_length_c                    27.46243
_cell_angle_alpha                 90.792754
_cell_angle_beta                  89.930113
_cell_angle_gamma                 60.032997
_cell_volume                      4341.62156477

loop_
_atom_site_label
_atom_site_type_symbol
_atom_type_description
_atom_site_fract_x
_atom_site_fract_y
_atom_site_fract_z
_atom_type_partial_charge
C1    C     C_R   0.620813 0.102005 0.569695 0.544305
C2    C     C_1   0.632460 0.728662 0.615755 0.027961
C3    C     C_3   0.654788 0.579403 0.769194 0.221299
C4    C     C_3   0.694601 0.640389 0.804691 0.003401
C5    C     C_3   0.575187 0.692587 0.745286 0.298590
C6    C     C_3   0.670936 0.671655 0.709311 0.018930
C7    C     C_3   0.614589 0.754723 0.780649 0.269519
C8    C     C_3   0.711767 0.734381 0.744607 -0.111953
C9    C     C_1   0.699482 0.622609 0.857109 0.023967
C10   C     C_1   0.652933 0.697564 0.657313 0.017676
C11   C     C_3   0.051205 0.172988 0.733079 -0.142950
C12   C     C_R   0.599553 0.779459 0.568711 0.553434
C13   C     C_3   0.136749 0.083679 0.769215 -0.097036
C14   C     C_1   0.085853 0.206608 0.899547 0.041500
C15   C     C_1   0.216837 0.146947 0.614942 0.035452
C16   C     C_3   0.035838 0.271734 0.767971 -0.151440
C17   C     C_3   0.121628 0.182208 0.803260 0.018462
C18   C     C_3   0.136057 0.275794 0.742088 -0.138492
C19   C     C_3   0.150613 0.177578 0.708041 -0.001648
C20   C     C_3   0.220243 0.186471 0.777822 0.306500
C21   C     C_3   0.235316 0.089444 0.743497 0.312068
C22   C     C_1   0.105475 0.191093 0.856387 0.035671
C23   C     C_R   0.275553 0.123305 0.569007 0.550981
C24   C     C_1   0.179407 0.164585 0.655956 0.010288
C25   C     C_3   0.624111 0.283681 0.738509 -0.132063
C26   C     C_3   0.559687 0.251137 0.775896 0.272271
C27   C     C_1   0.692637 0.208652 0.902725 0.046360
C28   C     C_1   0.638892 0.135882 0.616840 0.016457
C29   C     C_3   0.732436 0.218569 0.770085 0.206713
C30   C     C_3   0.666724 0.189013 0.807552 0.128149
C31   C     C_3   0.771368 0.105219 0.741597 -0.174837
C32   C     C_3   0.660871 0.169427 0.710875 -0.096361
C33   C     C_3   0.702646 0.077587 0.778892 0.212514
C34   C     C_R   0.624196 0.101571 0.432108 0.562436
C35   C     C_3   0.594887 0.139279 0.747963 0.299685
C36   C     C_1   0.676686 0.198831 0.860257 0.104326
C37   C     C_1   0.651099 0.154914 0.658628 -0.028916
C38   C     C_R   0.736572 0.705791 0.360495 -0.109203
C39   C     C_R   0.747917 0.687635 0.310226 0.015417
C40   C     C_R   0.760092 0.668294 0.207992 0.003317
C41   C     C_R   0.841733 0.682384 0.234401 -0.084896
C42   C     C_R   0.835645 0.691778 0.284975 -0.108341
C43   C     C_R   0.768997 0.649834 0.157008 0.186279
C44   C     C_R   0.681473 0.642139 0.132357 0.075268
C45   C     C_R   0.603237 0.773961 0.431035 0.547112
C46   C     C_R   0.569113 0.683511 0.360227 -0.083355
C47   C     C_R   0.574767 0.672056 0.309802 0.054295
C48   C     C_R   0.664229 0.675298 0.284457 0.020454
C49   C     C_R   0.486965 0.667615 0.284383 0.245897
C50   C     C_R   0.485796 0.672826 0.233624 -0.106744
C51   C     C_R   0.576589 0.671384 0.207900 -0.029441
C52   C     C_R   0.667720 0.670267 0.233397 -0.025369
C53   C     C_R   0.579381 0.668106 0.157040 0.191312
C54   C     C_R   0.642536 0.711581 0.384822 -0.025058
C55   C     C_R   0.211305 0.058358 0.359281 -0.172462
C56   C     C_R   0.275114 0.121981 0.431895 0.565058
C57   C     C_R   0.178125 0.073901 0.310307 0.002080
C58   C     C_R   0.143599 0.099381 0.209098 -0.025521
C59   C     C_R   0.162654 0.998915 0.231349 -0.047117
C60   C     C_R   0.178372 0.985523 0.281585 0.253289
C61   C     C_R   0.122183 0.113855 0.159125 -0.116551
C62   C     C_R   0.097969 0.216636 0.137453 -0.003574
C63   C     C_R   0.157159 0.258686 0.367445 0.230051
C64   C     C_R   0.140639 0.271145 0.317060 -0.015506
C65   C     C_R   0.152825 0.178002 0.288313 -0.022733
C66   C     C_R   0.119625 0.372344 0.294530 -0.026294
C67   C     C_3   0.752002 0.555800 0.733055 -0.119485
C68   C     C_R   0.116572 0.380649 0.244155 0.218278
C69   C     C_R   0.122094 0.290415 0.215281 0.012861
C70   C     C_R   0.139754 0.189162 0.237555 0.016189
C71   C     C_R   0.102706 0.302017 0.165270 -0.124939
C72   C     C_R   0.207393 0.148249 0.387063 0.006698
C73   C     C_R   0.571137 0.246812 0.365479 0.184643
C74   C     C_R   0.577195 0.262792 0.315083 0.024719
C75   C     C_R   0.586170 0.288011 0.213669 0.004148
C76   C     C_R   0.505892 0.378909 0.242596 -0.120781
C77   C     C_R   0.499868 0.365888 0.292566 -0.067286
C78   C     C_3   0.792773 0.618258 0.769203 -0.184389
C79   C     C_R   0.597610 0.303476 0.164235 -0.183274
C80   C     C_R   0.677919 0.212018 0.135468 0.016764
C81   C     C_R   0.747126 0.062140 0.358461 0.193201
C82   C     C_R   0.745605 0.071832 0.307924 0.013163
C83   C     C_R   0.660698 0.171854 0.286037 -0.030247
C84   C     C_R   0.828940 0.982688 0.279064 -0.090015
C85   C     C_R   0.827290 0.989359 0.228232 0.216302
C86   C     C_R   0.741008 0.088823 0.205821 0.045149
C87   C     C_R   0.661928 0.182448 0.235131 -0.013812
C88   C     C_R   0.737064 0.101554 0.154851 0.261318
C89   C     C_1   0.702358 0.601761 0.899602 0.041502
C90   C     C_R   0.650803 0.141314 0.386361 -0.002813
C91   C     C_R   0.047205 0.237201 0.949092 0.550103
C92   C     C_R   0.712279 0.562133 0.948169 0.554276
C93   C     C_R   0.722376 0.225462 0.950927 0.548768
C94   C     C_R   0.046457 0.246433 0.089020 0.543909
C95   C     C_R   0.706628 0.577055 0.086045 0.592082
C96   C     C_R   0.717775 0.233685 0.089161 0.573451
Cr1   Cr    Cr6+3 0.417550 0.169090 0.500530 1.143978
Cr2   Cr    Cr6+3 0.669180 0.913420 0.499920 1.061879
Cr3   Cr    Cr6+3 0.413260 0.917540 0.499520 1.065358
Cr4   Cr    Cr6+3 0.909170 0.177380 0.020380 1.089334
Cr5   Cr    Cr6+3 0.912710 0.429210 0.018220 1.087499
Cr6   Cr    Cr6+3 0.657170 0.432570 0.019030 1.064918
H1    H     H_    0.882612 0.588020 0.779762 0.139486
H2    H     H_    0.135817 0.354327 0.730578 0.137021
H3    H     H_    0.953897 0.347745 0.779255 0.154511
H4    H     H_    0.592573 0.367877 0.721286 0.177138
H5    H     H_    0.859152 0.046511 0.727670 0.127586
H6    H     H_    0.807107 0.473898 0.713328 0.114693
H7    H     H_    0.794797 0.725556 0.379752 0.165706
H8    H     H_    0.909691 0.688530 0.216494 0.173159
H9    H     H_    0.898822 0.703878 0.304313 0.138949
H10   H     H_    0.414229 0.675685 0.214772 0.119294
H11   H     H_    0.498623 0.684875 0.379730 0.209688
H12   H     H_    0.118417 0.047824 0.137699 0.149503
H13   H     H_    0.248575 0.974401 0.375008 0.157173
H14   H     H_    0.163106 0.930897 0.209751 0.157472
H15   H     H_    0.734895 0.798767 0.733322 0.128839
H16   H     H_    0.080642 0.382120 0.148421 0.148788
H17   H     H_    0.113347 0.443693 0.315483 0.204758
H18   H     H_    0.548717 0.387894 0.148904 0.129241
H19   H     H_    0.447390 0.460269 0.226515 0.106491
H20   H     H_    0.434811 0.437800 0.313197 0.205469
H21   H     H_    0.895608 0.906490 0.295937 0.169230
H22   H     H_    0.138347 0.004528 0.780788 0.148053
H23   H     H_    0.982538 0.167243 0.713372 0.136372
O1    O     O_R   0.301710 0.195650 0.554160 -0.493823
O2    O     O_R   0.658900 0.818120 0.449760 -0.491274
O3    O     O_R   0.503220 0.801620 0.445520 -0.514401
O4    O     O_R   0.319370 0.022040 0.450020 -0.520399
O5    O     O_3   0.499990 0.000010 0.499990 -0.276910
O6    O     O_R   0.818720 0.150820 0.967160 -0.492038
O7    O     O_R   0.006410 0.181720 0.970200 -0.494619
O8    O     O_R   0.027890 0.334070 0.964920 -0.493966
O9    O     O_R   0.809600 0.521790 0.967960 -0.494578
O10   O     O_R   0.635520 0.542770 0.964420 -0.493868
O11   O     O_R   0.665950 0.325030 0.970100 -0.492683
O12   O     O_R   0.522390 0.158990 0.550460 -0.484196
O13   O     O_R   0.816620 0.158530 0.074540 -0.437675
O14   O     O_R   0.004460 0.188870 0.069750 -0.497640
O15   O     O_R   0.025800 0.341780 0.072300 -0.506778
O16   O     O_R   0.807650 0.528950 0.067500 -0.452405
O17   O     O_R   0.633420 0.550490 0.071810 -0.482308
O18   O     O_R   0.664000 0.332180 0.069640 -0.521711
O19   O     O_3   0.826350 0.346390 0.019210 -0.283678
O20   O     O_R   0.694390 0.003530 0.554040 -0.511791
O21   O     O_R   0.657700 0.819660 0.549320 -0.499435
O22   O     O_R   0.501930 0.803280 0.552920 -0.481366
O23   O     O_R   0.318170 0.023580 0.549580 -0.487708
O24   O     O_R   0.303010 0.193990 0.446760 -0.421392
O25   O     O_R   0.523600 0.157450 0.450900 -0.437912
O26   O     O_R   0.695690 0.001860 0.446640 -0.497040
Cl1   Cl    Cl    0.329823 0.192425 0.811136 -0.408880
O27   O     O_3   0.450490 0.326919 0.794139 -0.611059
H24   H     H_    0.401188 0.356447 0.765113 0.347367
O28   O     O_3   0.522333 0.097112 0.735721 -0.560627
H25   H     H_    0.572032 0.021669 0.719886 0.346291
O29   O     O_3   0.739641 0.972129 0.800785 -0.630526
H26   H     H_    0.794186 0.914042 0.777332 0.312955
O30   O     O_3   0.804912 0.260084 0.783231 -0.671393
H27   H     H_    0.807770 0.301883 0.754427 0.336865
O31   O     O_3   0.862684 0.635226 0.130628 -0.667872
H28   H     H_    0.931971 0.592296 0.150515 0.333927
O32   O     O_3   0.485632 0.683552 0.130875 -0.663762
H29   H     H_    0.469548 0.622481 0.140499 0.317155
O33   O     O_3   0.401221 0.662434 0.309776 -0.675924
H30   H     H_    0.348332 0.656766 0.286377 0.345330
O34   O     O_3   0.191013 0.886201 0.300876 -0.683492
H31   H     H_    0.162068 0.901615 0.334840 0.339705
O35   O     O_3   0.107895 0.478401 0.224931 -0.735411
H32   H     H_    0.153556 0.457413 0.194439 0.322769
Cl2   Cl    Cl    0.116588 0.380597 0.405553 -0.559557
Cl3   Cl    Cl    0.466023 0.359377 0.402290 -0.543508
O36   O     O_3   0.793103 0.009247 0.123290 -0.615658
H33   H     H_    0.783074 0.946482 0.136043 0.367688
Cl4   Cl    Cl    0.530895 0.882365 0.815547 -0.425561
O37   O     O_3   0.914347 0.903762 0.200545 -0.676874
H34   H     H_    0.968982 0.842615 0.222110 0.325513
O38   O     O_3   0.841523 0.972293 0.379473 -0.691025
H35   H     H_    0.855590 0.000947 0.410651 0.343950
O39   O     O_3   0.463055 0.725354 0.732313 -0.614205
H36   H     H_    0.421509 0.736205 0.763492 0.342550
O40   O     O_3   0.623296 0.499663 0.782829 -0.682796
H37   H     H_    0.558699 0.540375 0.806123 0.337328
Cl5   Cl    Cl    0.366652 0.973750 0.721873 -0.482629

loop_
_geom_bond_atom_site_label_1
_geom_bond_atom_site_label_2
_ccdc_geom_bond_type
C21   Cl5   S    
C66   C68   A    
Cr3   O23   S    
C4    C9    S    
C40   C41   A    
O29   H26   S    
C94   O15   A    
C73   C74   A    
C1    O20   A    
O32   H29   S    
C74   C83   A    
C43   C44   A    
C93   O11   A    
C2    C12   S    
C20   C21   S    
C17   C20   S    
O38   H35   S    
C34   O25   A    
Cr4   O6    S    
C7    C8    S    
C29   O30   S    
C31   C32   S    
O36   H33   S    
C84   H21   S    
C49   O33   S    
C11   C19   S    
O33   H30   S    
C76   H19   S    
C12   O22   A    
C11   H23   S    
C35   O28   S    
C81   O38   S    
C96   O13   A    
C5    C6    S    
Cr5   O19   S    
C86   C88   A    
C67   H6    S    
C45   O3    A    
C65   C70   A    
C59   H14   S    
C85   O37   S    
C58   C70   A    
C18   C19   S    
C41   C42   A    
C12   O21   A    
C69   C71   A    
Cr6   O10   S    
C77   H20   S    
O40   H37   S    
Cr5   O16   S    
C44   C53   A    
C40   C43   A    
O30   H27   S    
C16   C17   S    
C56   C72   S    
C74   C77   A    
C7    Cl4   S    
C25   H4    S    
C1    C28   S    
Cr1   O25   S    
C31   C33   S    
O37   H34   S    
C80   C96   S    
C55   C72   A    
Cr3   O5    S    
C58   C61   A    
C15   C23   S    
C59   C60   A    
C30   C33   S    
C8    C78   S    
C94   O14   A    
C46   C54   A    
C61   C62   A    
C67   C78   S    
Cr6   O19   S    
C4    C7    S    
C30   C36   S    
Cr1   O12   S    
Cr5   O15   S    
C33   O29   S    
C8    H15   S    
O31   H28   S    
C39   C42   A    
Cr2   O26   S    
C25   C29   S    
C3    C67   S    
C60   O34   S    
Cr3   O4    S    
C63   C64   A    
C51   C52   A    
C32   C35   S    
C76   C77   A    
C47   C49   A    
Cr4   O19   S    
C9    C89   T    
O34   H31   S    
C71   H16   S    
C13   H22   S    
C86   C87   A    
C68   C69   A    
C57   C60   A    
C6    C8    S    
C91   O7    A    
Cr2   O21   S    
C25   C26   S    
Cr5   O9    S    
C81   C82   A    
C88   O36   S    
C45   O2    A    
C89   C92   S    
C64   C66   A    
C75   C76   A    
C34   C90   S    
C5    O39   S    
C4    C78   S    
C29   C30   S    
Cr4   O14   S    
C73   Cl3   S    
C11   C16   S    
C63   Cl2   S    
C47   C48   A    
C38   C54   A    
C79   H18   S    
Cr2   O5    S    
C50   H10   S    
C50   C51   A    
C13   C21   S    
O35   H32   S    
C18   H2    S    
C32   C37   S    
C84   C85   A    
C38   H7    S    
C85   C86   A    
Cr4   O13   S    
C91   O8    A    
C23   O1    A    
C81   C90   A    
C16   H3    S    
C75   C87   A    
Cr2   O2    S    
C45   C54   S    
C95   O16   A    
C82   C84   A    
C66   H17   S    
C62   C94   S    
C49   C50   A    
C27   C93   S    
C92   O10   A    
Cr6   O18   S    
C3    C4    S    
C2    C10   T    
C43   O31   S    
C6    C67   S    
C61   H12   S    
C1    O12   A    
O39   H36   S    
C53   O32   S    
C5    C7    S    
C56   O24   A    
Cr1   O5    S    
Cr3   O22   S    
C46   C47   A    
C15   C24   T    
C46   H11   S    
C19   C21   S    
C78   H1    S    
C31   H5    S    
C42   H9    S    
C92   O9    A    
C56   O4    A    
C57   C65   A    
Cr1   O1    S    
C3    C5    S    
C16   C18   S    
C83   C87   A    
C6    C10   S    
C34   O26   A    
Cr4   O7    S    
C26   C30   S    
Cr3   O3    S    
Cr2   O20   S    
Cr5   O8    S    
C27   C36   T    
C23   O23   A    
C17   C22   S    
C13   C17   S    
C41   H8    S    
C64   C65   A    
C14   C22   T    
C55   C57   A    
C19   C24   S    
C58   C59   A    
C68   O35   S    
C80   C88   A    
C44   C95   S    
C40   C52   A    
C96   O18   A    
C11   C13   S    
C38   C39   A    
C55   H13   S    
C28   C37   T    
C25   C32   S    
C33   C35   S    
C62   C71   A    
C18   C20   S    
C69   C70   A    
C3    O40   S    
Cr6   O11   S    
C14   C91   S    
C79   C80   A    
C20   Cl1   S    
C26   C35   S    
C48   C52   A    
C63   C72   A    
C73   C90   A    
C95   O17   A    
C29   C31   S    
C82   C83   A    
O28   H25   S    
Cr1   O24   S    
C26   O27   S    
Cr6   O17   S    
C51   C53   A    
O27   H24   S    
C93   O6    A    
C75   C79   A    
C39   C48   A    
