data_mof_unit_41033.cif
_audit_creation_date              2012-12-11T17:14:08-0500
_audit_creation_method            fapswitch 2.2
_symmetry_space_group_name_H-M    P1
_symmetry_Int_Tables_number       1
_space_group_crystal_system       triclinic
_cell_length_a                    18.223665
_cell_length_b                    7.093053
_cell_length_c                    13.01311
_cell_angle_alpha                 90.402764
_cell_angle_beta                  72.026898
_cell_angle_gamma                 89.889639
_cell_volume                      1599.95508808

loop_
_atom_site_label
_atom_site_type_symbol
_atom_type_description
_atom_site_fract_x
_atom_site_fract_y
_atom_site_fract_z
_atom_type_partial_charge
O1    O     O_R   0.453880 0.506200 0.150010 -0.537530
O2    O     O_R   0.546120 0.006200 0.849990 -0.539497
O3    O     O_R   0.604080 0.177770 0.007280 -0.539505
O4    O     O_R   0.395920 0.677770 0.992720 -0.539186
C1    C     C_R   0.635959 0.344412 0.001857 0.732970
C2    C     C_R   0.364041 0.844620 0.998121 0.734316
O5    O     O_R   0.458010 0.176640 0.159130 -0.539798
O6    O     O_R   0.541990 0.676640 0.840870 -0.538311
O7    O     O_R   0.399010 0.004010 0.002930 -0.537326
O8    O     O_R   0.600990 0.504010 0.997070 -0.537122
C3    C     C_R   0.443322 0.346210 0.201764 0.693363
C4    C     C_R   0.556726 0.844336 0.798169 0.693719
O9    O     O_3   0.480810 0.338440 0.948570 -0.371565
O10   O     O_3   0.519190 0.838440 0.051430 -0.370992
V1    V     V_3+5 0.503560 0.064490 0.009540 1.455450
V2    V     V_3+5 0.496440 0.564490 0.990460 1.460129
C5    C     C_R   0.582064 0.809443 0.501779 -0.125215
C6    C     C_R   0.416843 0.433616 0.495344 -0.123084
H1    H     H_    0.485313 0.802854 0.646138 0.137032
H2    H     H_    0.513643 0.429652 0.350920 0.133264
H3    H     H_    0.545426 0.787616 0.451192 0.166467
H4    H     H_    0.452962 0.471142 0.544577 0.165221
C7    C     C_R   0.592095 0.848315 0.681147 -0.023930
C8    C     C_R   0.407807 0.359447 0.318595 -0.024567
C9    C     C_R   0.953068 0.888643 0.384695 -0.172491
C10   C     C_R   0.047605 0.309787 0.617175 -0.171368
C11   C     C_R   0.921085 0.896536 0.496185 -0.127489
C12   C     C_R   0.079895 0.286327 0.506402 -0.126557
C13   C     C_R   0.841541 0.883725 0.543674 -0.141606
C14   C     C_R   0.159173 0.304491 0.458180 -0.141834
C15   C     C_R   0.791372 0.861823 0.479943 0.075047
C16   C     C_R   0.208745 0.347795 0.520389 0.075105
C17   C     C_R   0.824778 0.850040 0.365722 0.028428
C18   C     C_R   0.174978 0.375161 0.633701 0.028149
C19   C     C_R   0.709448 0.851454 0.525779 0.007802
C20   C     C_R   0.290419 0.364604 0.473918 0.007415
C21   C     C_R   0.662753 0.824690 0.456835 0.103299
C22   C     C_R   0.336447 0.412693 0.541127 0.102599
C23   C     C_R   0.696705 0.812132 0.344299 0.320816
C24   C     C_R   0.302111 0.440596 0.652721 0.321649
C25   C     C_R   0.776926 0.826033 0.300008 -0.287393
C26   C     C_R   0.222182 0.420593 0.697798 -0.286591
C27   C     C_R   0.672034 0.865662 0.638355 -0.192983
C28   C     C_R   0.328204 0.336214 0.362321 -0.192928
C29   C     C_R   0.547261 0.819112 0.613039 -0.196322
C30   C     C_R   0.451980 0.409054 0.384869 -0.193466
C31   C     C_R   0.905869 0.864791 0.319033 -0.048337
C32   C     C_R   0.094199 0.354610 0.681214 -0.049392
H5    H     H_    0.703115 0.886511 0.695714 0.093707
H6    H     H_    0.297638 0.299152 0.306293 0.094131
H7    H     H_    0.014987 0.902031 0.349272 0.101529
H8    H     H_    0.985943 0.292183 0.653338 0.102356
H9    H     H_    0.821583 0.891343 0.630508 0.104161
H10   H     H_    0.179397 0.283818 0.371998 0.104242
H11   H     H_    0.958219 0.914279 0.546401 0.125516
H12   H     H_    0.043234 0.252385 0.457381 0.125546
H13   H     H_    0.801681 0.816935 0.213067 0.120388
H14   H     H_    0.197124 0.441912 0.784029 0.120795
C33   C     C_1   0.216341 0.858567 0.000158 -0.189454
C34   C     C_1   0.783659 0.358951 0.999818 -0.188202
C35   C     C_1   0.283636 0.852686 0.998960 -0.183616
C36   C     C_1   0.716370 0.352479 0.001023 -0.181177
O11   O     O_R   0.899030 0.205490 0.002790 -0.534945
O12   O     O_R   0.100970 0.705490 0.997210 -0.537674
O13   O     O_R   0.042000 0.536370 0.840840 -0.541256
O14   O     O_R   0.958000 0.036370 0.159160 -0.540498
C37   C     C_R   0.057708 0.367324 0.798304 0.683153
C38   C     C_R   0.942234 0.869132 0.201766 0.683425
O15   O     O_R   0.895930 0.535070 0.992690 -0.541270
O16   O     O_R   0.104070 0.035070 0.007310 -0.538383
O17   O     O_R   0.953870 0.707520 0.150040 -0.538378
O18   O     O_R   0.046130 0.207520 0.849960 -0.537451
C39   C     C_R   0.864117 0.366881 0.998765 0.728963
C40   C     C_R   0.135888 0.866622 0.001229 0.729870
O19   O     O_3   0.019200 0.374340 0.051340 -0.374022
O20   O     O_3   0.980800 0.874340 0.948660 -0.374566
V3    V     V_3+5 0.996440 0.648350 0.990470 1.420713
V4    V     V_3+5 0.003560 0.148350 0.009530 1.428174
O21   O     O_3   0.650389 0.786313 0.278796 -0.654943
H15   H     H_    0.683063 0.779462 0.202187 0.290141
O22   O     O_3   0.347756 0.487430 0.716525 -0.656700
H16   H     H_    0.314854 0.503220 0.792586 0.289874

loop_
_geom_bond_atom_site_label_1
_geom_bond_atom_site_label_2
_ccdc_geom_bond_type
O14   C38   A    
C7    C29   A    
C11   C13   A    
O12   V3    S    
C3    C8    S    
O15   V3    S    
C18   C26   A    
O2    C4    A    
C26   H14   S    
C2    O7    A    
O22   H16   S    
C12   H12   S    
C23   C25   A    
O5    C3    A    
C14   H10   S    
C4    C7    S    
C16   C20   A    
C2    C35   S    
C19   C21   A    
C5    C29   A    
C11   H11   S    
O16   V4    S    
C34   C39   S    
C7    C27   A    
C34   C36   T    
C37   O18   A    
O18   V4    S    
O13   C37   A    
O1    C3    A    
O16   C40   A    
C15   C17   A    
O15   C39   A    
C14   C16   A    
C19   C27   A    
C9    C31   A    
C10   C32   A    
C24   C26   A    
O6    V2    S    
C6    C30   A    
O14   V4    S    
C33   C35   T    
O13   V3    S    
O20   V3    S    
O4    C2    A    
C27   H5    S    
O5    V1    S    
O11   C39   A    
C5    H3    S    
C23   O21   S    
O4    V2    S    
C9    H7    S    
C10   H8    S    
O6    C4    A    
O1    V2    S    
C5    C21   A    
O2    V1    S    
O19   V3    S    
C33   C40   S    
C17   C31   A    
C15   C19   A    
C20   C28   A    
C18   C32   A    
C31   C38   S    
O17   V3    S    
O3    V1    S    
C28   H6    S    
C6    H4    S    
C24   O22   S    
O20   V4    S    
O3    C1    A    
H1    C29   S    
C9    C11   A    
C10   C12   A    
C17   C25   A    
C12   C14   A    
C6    C22   A    
C25   H13   S    
C1    O8    A    
C21   C23   A    
O8    V2    S    
C22   C24   A    
C13   H9    S    
C38   O17   A    
C8    C28   A    
C20   C22   A    
C1    C36   S    
C32   C37   S    
O7    V1    S    
O19   V4    S    
O21   H15   S    
C13   C15   A    
O9    V2    S    
O12   C40   A    
O10   V1    S    
H2    C30   S    
C16   C18   A    
C8    C30   A    
O11   V4    S    
