data_mof_unit_51775.cif
_audit_creation_date              2012-12-10T19:01:19-0500
_audit_creation_method            fapswitch 2.2
_symmetry_space_group_name_H-M    P1
_symmetry_Int_Tables_number       1
_space_group_crystal_system       triclinic
_cell_length_a                    9.539652
_cell_length_b                    10.845413
_cell_length_c                    15.458034
_cell_angle_alpha                 89.69383
_cell_angle_beta                  74.100214
_cell_angle_gamma                 90.750944
_cell_volume                      1537.92647333

loop_
_atom_site_label
_atom_site_type_symbol
_atom_type_description
_atom_site_fract_x
_atom_site_fract_y
_atom_site_fract_z
_atom_type_partial_charge
C1    C     C_R   0.997714 0.262204 0.502320 0.799185
C2    C     C_R   0.677552 0.462506 0.909918 0.092853
C3    C     C_R   0.779041 0.491627 0.959108 0.152176
C4    C     C_R   0.529122 0.436822 0.956549 0.066613
C5    C     C_R   0.481415 0.455852 0.050956 0.079285
C6    C     C_R   0.586783 0.481348 0.097762 -0.226703
C7    C     C_R   0.732800 0.498096 0.052451 -0.226749
C8    C     C_R   0.427223 0.391569 0.912386 -0.225308
C9    C     C_R   0.281506 0.372577 0.958573 -0.212707
C10   C     C_R   0.231244 0.401348 0.049455 0.097217
C11   C     C_R   0.330017 0.446345 0.095825 0.096139
C12   C     C_R   0.917918 0.498334 0.672287 0.789827
C13   C     C_R   0.082933 0.385564 0.094577 -0.299320
C14   C     C_R   0.030329 0.414692 0.185670 0.437579
C15   C     C_R   0.273489 0.483938 0.185073 -0.324064
C16   C     C_R   0.112231 0.065425 0.520652 0.066918
C17   C     C_R   0.989843 0.128881 0.512637 -0.214120
C18   C     C_R   0.859939 0.060591 0.517523 0.433765
C19   C     C_R   0.865397 0.932233 0.513456 -0.301310
C20   C     C_R   0.995522 0.870576 0.509387 -0.170881
C21   C     C_R   0.115023 0.938527 0.519390 0.130419
C22   C     C_3   0.270846 0.937805 0.465158 -0.469203
C23   C     C_R   0.000182 0.737693 0.500888 0.834183
C24   C     C_3   0.268028 0.077555 0.467228 -0.422063
C25   C     C_R   0.608682 0.526555 0.423109 0.276264
C26   C     C_R   0.540574 0.464034 0.573935 -0.096579
C27   C     C_R   0.392103 0.463213 0.573762 -0.091269
C28   C     C_R   0.461164 0.526846 0.423079 0.267115
C29   C     C_3   0.482380 0.645127 0.371026 -0.523591
C30   C     C_3   0.641495 0.643618 0.370328 -0.482621
C31   C     C_R   0.081672 0.493584 0.327920 0.807324
C32   C     C_R   0.872837 0.492892 0.770952 -0.048538
C33   C     C_R   0.126374 0.467458 0.230870 -0.152042
C34   C     C_R   0.925939 0.515583 0.914279 -0.212587
C35   C     C_R   0.972839 0.515260 0.820753 -0.196598
C36   C     C_R   0.726990 0.465821 0.815525 -0.256141
Cu1   Cu    Cu3+1 0.140670 0.499980 0.500000 0.934319
Cu2   Cu    Cu3+1 0.859330 0.500020 0.500000 0.942704
H1    H     H_    0.809522 0.519235 0.090748 0.181018
H2    H     H_    0.007807 0.348917 0.059446 0.151545
H3    H     H_    0.768461 0.881836 0.509734 0.178213
H4    H     H_    0.342818 0.898196 0.503463 0.191928
H5    H     H_    0.284818 0.900154 0.396583 0.193586
H6    H     H_    0.337650 0.118329 0.507118 0.205137
H7    H     H_    0.281339 0.120545 0.399908 0.197241
H8    H     H_    0.567709 0.435993 0.634401 0.127588
H9    H     H_    0.309715 0.434424 0.633834 0.137558
H10   H     H_    0.466755 0.634931 0.302999 0.187619
H11   H     H_    0.342091 0.529041 0.220206 0.161582
H12   H     H_    0.421666 0.721547 0.410823 0.213459
H13   H     H_    0.716500 0.629391 0.302220 0.217474
H14   H     H_    0.672949 0.720536 0.408783 0.209391
H15   H     H_    0.207223 0.336846 0.922461 0.145894
H16   H     H_    0.004121 0.536864 0.951561 0.144914
H17   H     H_    0.086360 0.535618 0.787502 0.151168
H18   H     H_    0.652766 0.451784 0.775029 0.138232
H19   H     H_    0.560425 0.485343 0.170097 0.153190
H20   H     H_    0.457624 0.365791 0.842537 0.130495
N1    N     N_R   0.648210 0.500930 0.499430 -0.188116
N2    N     N_R   0.352300 0.500890 0.499430 -0.182634
O1    O     O_R   0.118810 0.319640 0.500000 -0.579127
O2    O     O_R   0.881230 0.319680 0.499990 -0.561301
O3    O     O_R   0.055580 0.499970 0.629840 -0.590652
O4    O     O_R   0.818000 0.500010 0.629830 -0.594723
O5    O     O_R   0.118770 0.680320 0.500010 -0.573530
O6    O     O_R   0.881190 0.680360 0.500000 -0.585883
O7    O     O_R   0.182000 0.499990 0.370170 -0.586979
O8    O     O_R   0.944420 0.500030 0.370160 -0.556492
O9    O     O_3   0.732723 0.116653 0.513046 -0.611579
C37   C     C_3   0.646034 0.142501 0.600942 0.091732
H21   H     H_    0.572700 0.218237 0.594555 0.165172
H22   H     H_    0.711337 0.176414 0.646154 0.118991
C38   C     C_3   0.550721 0.031041 0.643198 -0.392503
H23   H     H_    0.496268 0.992359 0.594169 0.226212
H24   H     H_    0.619625 0.958602 0.660849 0.216443
C39   C     C_3   0.434724 0.067253 0.728356 -0.915990
H25   H     H_    0.486737 0.106404 0.778447 0.256318
H26   H     H_    0.369173 0.984495 0.758266 0.263701
H27   H     H_    0.360578 0.136513 0.712260 0.248440
O10   O     O_3   0.883564 0.396888 0.228069 -0.632972
C40   C     C_3   0.860809 0.283158 0.275830 0.116227
H28   H     H_    0.776787 0.298028 0.340529 0.196933
H29   H     H_    0.959297 0.248434 0.293624 0.110698
C41   C     C_3   0.803139 0.185332 0.222852 -0.394594
H30   H     H_    0.706476 0.221290 0.204384 0.232567
H31   H     H_    0.888711 0.164348 0.160031 0.215355
C42   C     C_3   0.759714 0.066771 0.278023 -0.867954
H32   H     H_    0.854643 0.029236 0.297532 0.259503
H33   H     H_    0.720878 0.996796 0.237394 0.250294
H34   H     H_    0.670322 0.084682 0.339696 0.277721

loop_
_geom_bond_atom_site_label_1
_geom_bond_atom_site_label_2
_ccdc_geom_bond_type
C8    C9    A    
C42   H32   S    
C16   C21   A    
O10   C40   S    
C38   H23   S    
C19   C20   A    
C41   C42   S    
C4    C8    A    
C1    O2    A    
C14   C33   A    
C40   H28   S    
C25   C28   A    
C31   O7    A    
C26   C27   A    
Cu1   Cu2   S    
C24   H7    S    
C32   C36   A    
C23   O6    A    
C28   C29   S    
C30   H13   S    
C41   H31   S    
C5    C11   A    
C3    C7    A    
C27   N2    A    
C5    C6    A    
C12   O4    A    
C2    C36   A    
C34   C35   A    
C13   H2    S    
Cu1   O3    S    
C11   C15   A    
Cu2   O6    S    
C16   C17   A    
Cu1   O5    S    
C31   C33   S    
C37   H21   S    
C14   O10   S    
C9    C10   A    
C8    H20   S    
C18   O9    S    
C16   C24   S    
C21   C22   S    
C12   C32   S    
C38   H24   S    
C6    H19   S    
C40   H29   S    
Cu2   O4    S    
C29   H12   S    
C28   N2    A    
C31   O8    A    
C29   H10   S    
C35   H17   S    
C32   C35   A    
C39   H25   S    
C12   O3    A    
C18   C19   A    
C3    C34   A    
C2    C4    A    
C29   C30   S    
C36   H18   S    
C22   H5    S    
C20   C23   S    
C37   C38   S    
C17   C18   A    
C41   H30   S    
Cu2   O8    S    
C34   H16   S    
C42   H33   S    
C24   H6    S    
C38   C39   S    
C22   C24   S    
C9    H15   S    
C40   C41   S    
C26   N1    A    
C27   H9    S    
C25   C30   S    
C30   H14   S    
C39   H26   S    
C4    C5    A    
C10   C13   A    
C1    O1    A    
Cu1   O1    S    
C6    C7    A    
C1    C17   S    
C23   O5    A    
C2    C3    A    
C22   H4    S    
Cu1   O7    S    
C15   H11   S    
O9    C37   S    
Cu1   N2    S    
C10   C11   A    
C26   H8    S    
Cu2   N1    S    
C39   H27   S    
C20   C21   A    
C42   H34   S    
C7    H1    S    
C37   H22   S    
C25   N1    A    
C13   C14   A    
C15   C33   A    
C19   H3    S    
Cu2   O2    S    
