data_mof_unit_59838.cif
_audit_creation_date              2012-12-11T17:29:44-0500
_audit_creation_method            fapswitch 2.2
_symmetry_space_group_name_H-M    P1
_symmetry_Int_Tables_number       1
_space_group_crystal_system       triclinic
_cell_length_a                    18.811811
_cell_length_b                    18.820497
_cell_length_c                    20.382464
_cell_angle_alpha                 107.17699
_cell_angle_beta                  106.372002
_cell_angle_gamma                 111.005351
_cell_volume                      5796.32934588

loop_
_atom_site_label
_atom_site_type_symbol
_atom_type_description
_atom_site_fract_x
_atom_site_fract_y
_atom_site_fract_z
_atom_type_partial_charge
C1    C     C_R   0.087213 0.087976 0.354391 -0.147080
C2    C     C_R   0.245256 0.069720 0.544846 -0.129307
C3    C     C_R   0.153167 0.222372 0.710469 -0.141290
C4    C     C_R   0.761504 0.925784 0.505315 -0.143222
C5    C     C_R   0.998084 0.762876 0.430228 -0.147065
C6    C     C_R   0.229895 0.272531 0.713080 0.048289
C7    C     C_R   0.945978 0.708848 0.450147 0.085920
C8    C     C_R   0.253236 0.997028 0.535061 0.074670
C9    C     C_R   0.019758 0.977919 0.725482 0.038455
C10   C     C_R   0.944534 0.577233 0.373822 -0.262609
C11   C     C_R   0.914299 0.616719 0.420629 0.114461
C12   C     C_R   0.757300 0.994481 0.549734 0.085376
C13   C     C_R   0.859728 0.569207 0.444581 -0.262465
C14   C     C_R   0.845475 0.487318 0.431602 0.143249
C15   C     C_R   0.884873 0.452133 0.392753 0.027237
C16   C     C_R   0.839047 0.817999 0.281238 -0.125524
C17   C     C_R   0.931110 0.495570 0.360536 0.143129
C18   C     C_R   0.799442 0.443553 0.463320 -0.208343
C19   C     C_R   0.800104 0.369848 0.463681 -0.205426
C20   C     C_R   0.847063 0.339774 0.432569 0.140665
C21   C     C_R   0.885750 0.378215 0.393304 0.026403
C22   C     C_R   0.933180 0.348380 0.361944 0.141726
C23   C     C_R   0.757075 0.795619 0.273969 0.039386
C24   C     C_R   0.971250 0.386784 0.322789 -0.206098
C25   C     C_R   0.970211 0.460226 0.322084 -0.208731
C26   C     C_R   0.864039 0.278610 0.447605 -0.257039
C27   C     C_R   0.922242 0.258813 0.426952 0.115850
C28   C     C_R   0.947904 0.194987 0.520004 -0.131129
C29   C     C_R   0.949785 0.287386 0.377804 -0.257713
C30   C     C_R   0.329575 0.915030 0.552531 -0.256987
C31   C     C_R   0.329957 0.993355 0.573173 0.115821
C32   C     C_R   0.406444 0.068736 0.622459 -0.257761
C33   C     C_R   0.482909 0.067550 0.638389 0.141704
C34   C     C_R   0.962887 0.219053 0.464940 0.074454
C35   C     C_R   0.482157 0.989578 0.606968 0.026424
C36   C     C_R   0.405402 0.912669 0.567627 0.140659
C37   C     C_R   0.559521 0.143733 0.677628 -0.206006
C38   C     C_R   0.633670 0.143371 0.678303 -0.208601
C39   C     C_R   0.631499 0.066830 0.639734 0.143000
C40   C     C_R   0.761060 0.812002 0.346417 -0.127618
C41   C     C_R   0.556626 0.989228 0.607481 0.027254
C42   C     C_R   0.553909 0.912004 0.568511 0.143307
C43   C     C_R   0.479197 0.835090 0.536767 -0.208426
C44   C     C_R   0.405125 0.835410 0.536451 -0.205454
C45   C     C_R   0.230508 0.228251 0.645901 -0.145577
C46   C     C_R   0.700191 0.067322 0.626332 -0.262471
C47   C     C_R   0.693985 0.991524 0.579363 0.114488
C48   C     C_R   0.623122 0.913626 0.555407 -0.262644
C49   C     C_R   0.290416 0.362072 0.767167 0.146559
C50   C     C_R   0.269032 0.410096 0.817368 -0.191505
C51   C     C_R   0.328861 0.492606 0.872041 -0.165865
C52   C     C_R   0.025997 0.201431 0.455089 -0.129455
C53   C     C_R   0.411475 0.528394 0.877456 0.226130
C54   C     C_R   0.430538 0.482812 0.823784 -0.183588
C55   C     C_R   0.370960 0.400150 0.769443 -0.183963
C56   C     C_R   0.920501 0.756288 0.494535 -0.144523
C57   C     C_R   0.617057 0.728680 0.069487 -0.164329
C58   C     C_R   0.688949 0.767090 0.137899 -0.187289
C59   C     C_R   0.536167 0.687339 0.066218 0.223986
C60   C     C_R   0.681389 0.765025 0.204011 0.146600
C61   C     C_R   0.600491 0.731140 0.201930 -0.176302
C62   C     C_R   0.528633 0.693276 0.133582 -0.183159
C63   C     C_R   0.106416 0.028107 0.235436 0.146216
C64   C     C_R   0.830766 0.066007 0.569701 -0.147213
C65   C     C_R   0.109784 0.958056 0.189955 -0.190732
C66   C     C_R   0.139494 0.962081 0.135203 -0.166296
C67   C     C_R   0.175505 0.928430 0.480000 -0.131719
C68   C     C_R   0.166058 0.036509 0.124889 0.225217
C69   C     C_R   0.170179 0.108583 0.175064 -0.182151
C70   C     C_R   0.140039 0.104471 0.229625 -0.184732
C71   C     C_R   0.167896 0.039950 0.925406 -0.164830
C72   C     C_R   0.134428 0.042875 0.856687 -0.187123
C73   C     C_R   0.129211 0.965224 0.932891 0.223127
C74   C     C_R   0.062207 0.971468 0.794493 0.146652
C75   C     C_R   0.029641 0.894656 0.799819 -0.177590
C76   C     C_R   0.018026 0.947716 0.290010 -0.138050
C77   C     C_R   0.063563 0.891646 0.868504 -0.181507
C78   C     C_R   0.033176 0.052431 0.718400 -0.125491
C79   C     C_R   0.066959 0.021539 0.287857 0.047803
C80   C     C_R   0.964060 0.911049 0.653508 -0.128963
H1    H     H_    0.136043 0.152907 0.377624 0.090513
H2    H     H_    0.833528 0.597493 0.478562 0.116501
H3    H     H_    0.767652 0.469220 0.492170 0.128450
H4    H     H_    0.722024 0.859750 0.489429 0.085832
H5    H     H_    0.768989 0.339975 0.492970 0.129879
H6    H     H_    0.838246 0.253354 0.481817 0.118889
H7    H     H_    0.990950 0.269111 0.357848 0.117661
H8    H     H_    0.006727 0.363577 0.297388 0.128773
H9    H     H_    0.004738 0.492366 0.295971 0.128162
H10   H     H_    0.270950 0.855932 0.518246 0.118867
H11   H     H_    0.407638 0.129336 0.642451 0.117683
H12   H     H_    0.869916 0.732285 0.510412 0.086226
H13   H     H_    0.561089 0.203946 0.703086 0.128868
H14   H     H_    0.691296 0.203318 0.704454 0.128258
H15   H     H_    0.755317 0.127804 0.647617 0.116250
H16   H     H_    0.859815 0.814383 0.236716 0.094057
H17   H     H_    0.618245 0.854345 0.521315 0.116456
H18   H     H_    0.476722 0.775209 0.507835 0.128426
H19   H     H_    0.346667 0.775783 0.507111 0.129860
H20   H     H_    0.750124 0.795516 0.137911 0.116303
H21   H     H_    0.624973 0.727064 0.018552 0.124469
H22   H     H_    0.493842 0.509327 0.827507 0.118957
H23   H     H_    0.157982 0.862074 0.458255 0.095967
H24   H     H_    0.389592 0.365091 0.731610 0.111424
H25   H     H_    0.591939 0.729414 0.251802 0.111554
H26   H     H_    0.311530 0.526604 0.912065 0.123401
H27   H     H_    0.466865 0.662080 0.131951 0.118981
H28   H     H_    0.902729 0.198697 0.541760 0.095919
H29   H     H_    0.206933 0.383818 0.815944 0.112608
H30   H     H_    0.163462 0.102078 0.853536 0.117737
H31   H     H_    0.220359 0.097440 0.973791 0.124866
H32   H     H_    0.190376 0.166174 0.167752 0.119149
H33   H     H_    0.139041 0.159788 0.264354 0.112233
H34   H     H_    0.073743 0.116553 0.762771 0.094948
H35   H     H_    0.974872 0.838083 0.752661 0.112143
H36   H     H_    0.137181 0.905622 0.098327 0.123439
H37   H     H_    0.033473 0.833686 0.873390 0.119081
H38   H     H_    0.087473 0.899208 0.194858 0.112722
H39   H     H_    0.710069 0.804478 0.362802 0.094489
H40   H     H_    0.053183 0.211244 0.416467 0.094872
H41   H     H_    0.855436 0.129222 0.613162 0.086886
H42   H     H_    0.001418 0.883908 0.253382 0.085558
H43   H     H_    0.273043 0.254012 0.622718 0.089305
H44   H     H_    0.942268 0.844341 0.637368 0.096522
H45   H     H_    0.292859 0.134484 0.583338 0.094434
H46   H     H_    0.125589 0.241858 0.747498 0.086032
H47   H     H_    0.018984 0.745221 0.386777 0.086605
H48   H     H_    0.984319 0.611622 0.352568 0.116187
N1    N     N_R   0.052570 0.055840 0.395080 -0.036675
N2    N     N_2   0.463547 0.627170 0.996725 -0.106624
N3    N     N_2   0.173415 0.037303 0.057789 -0.105214
N4    N     N_R   0.834730 0.954500 0.499860 -0.038573
N5    N     N_2   0.141880 0.965234 0.004771 -0.106101
N6    N     N_R   0.890190 0.849120 0.355200 -0.039191
N7    N     N_R   0.997110 0.161210 0.539740 -0.041017
N8    N     N_R   0.841940 0.845190 0.395070 -0.039288
N9    N     N_R   0.045360 0.165140 0.499870 -0.040773
N10   N     N_R   0.877490 0.041590 0.539730 -0.038371
N11   N     N_R   0.009810 0.968740 0.355210 -0.037105
N12   N     N_R   0.954640 0.834860 0.500130 -0.038541
N13   N     N_R   0.158060 0.154810 0.604930 -0.036564
N14   N     N_R   0.122510 0.958410 0.460270 -0.041150
N15   N     N_R   0.990190 0.031260 0.644790 -0.039153
N16   N     N_R   0.947430 0.944160 0.604920 -0.039312
N17   N     N_R   0.165270 0.045500 0.500140 -0.040759
N18   N     N_R   0.109810 0.150880 0.644800 -0.036956
N19   N     N_R   0.002890 0.838790 0.460260 -0.038262
N20   N     N_2   0.480262 0.602106 0.942114 -0.105692
Ni1   Ni    Ni4+2 0.104370 0.104380 0.500010 0.212900
Ni2   Ni    Ni4+2 0.895630 0.895620 0.499990 0.210865
Ni3   Ni    Ni4+2 0.006290 0.904630 0.408560 0.210723
Ni4   Ni    Ni4+2 0.993710 0.095370 0.591440 0.211179

loop_
_geom_bond_atom_site_label_1
_geom_bond_atom_site_label_2
_ccdc_geom_bond_type
C66   C68   A    
C63   C65   A    
C59   N2    S    
C5    N19   A    
C6    C45   A    
C27   C29   A    
C28   N7    A    
N4    Ni2   S    
C41   C42   A    
C14   C18   A    
C35   C36   A    
C43   H18   S    
C30   H10   S    
C3    C6    A    
C16   N6    A    
C3    H46   S    
C67   H23   S    
C39   C41   A    
C63   C79   S    
C53   C54   A    
C45   H43   S    
C2    N17   A    
C7    C11   S    
C48   H17   S    
C40   N8    A    
C26   C27   A    
C66   H36   S    
C25   H9    S    
C22   C29   A    
C1    N1    A    
C69   C70   A    
C30   C31   A    
C56   N12   A    
C69   H32   S    
C57   C59   A    
C32   H11   S    
C10   C17   A    
N4    N10   A    
C64   H41   S    
C11   C13   A    
C15   C17   A    
C18   C19   A    
N16   Ni2   S    
C33   C35   A    
C54   C55   A    
C46   H15   S    
C47   C48   A    
C68   C69   A    
C80   N16   A    
C71   H31   S    
C23   C40   A    
C65   H38   S    
C76   C79   A    
C4    C12   A    
C61   H25   S    
C28   C34   A    
C70   H33   S    
C13   C14   A    
C45   N13   A    
N14   N17   A    
C5    H47   S    
C78   H34   S    
C7    C56   A    
C12   C47   S    
C10   H48   S    
N12   N19   A    
C50   C51   A    
C27   C34   S    
C23   C60   S    
C72   H30   S    
C16   H16   S    
C74   C75   A    
N2    N20   D    
C58   H20   S    
C24   C25   A    
C72   C74   A    
C5    C7    A    
N6    N8    A    
C62   H27   S    
N10   Ni4   S    
C49   C55   A    
C13   H2    S    
C50   H29   S    
C33   C37   A    
C60   C61   A    
C51   C53   A    
C9    C80   A    
N14   Ni3   S    
C68   N3    S    
N19   Ni3   S    
C43   C44   A    
N1    Ni1   S    
C37   C38   A    
C75   C77   A    
C31   C32   A    
C4    H4    S    
C63   C70   A    
C15   C21   A    
C26   H6    S    
C38   H14   S    
N3    N5    D    
C18   H3    S    
C1    H1    S    
C37   H13   S    
C42   C48   A    
C24   H8    S    
N13   N18   A    
C8    C67   A    
C39   C46   A    
N18   Ni4   S    
C52   H40   S    
N15   Ni4   S    
N9    Ni1   S    
C73   N5    S    
C65   C66   A    
C16   C23   A    
C1    C79   A    
C22   C24   A    
C52   N9    A    
C36   C44   A    
C75   H35   S    
C42   C43   A    
N12   Ni2   S    
C64   N10   A    
C71   C73   A    
C80   H44   S    
C76   N11   A    
N7    N9    A    
C46   C47   A    
C59   C62   A    
C8    C31   S    
C34   C52   A    
C54   H22   S    
C2    C8    A    
C19   H5    S    
N8    Ni2   S    
C57   H21   S    
N13   Ni1   S    
C77   H37   S    
C30   C36   A    
C17   C25   A    
C32   C33   A    
C19   C20   A    
C76   H42   S    
C71   C72   A    
C78   N15   A    
C4    N4    A    
C57   C58   A    
C38   C39   A    
C20   C26   A    
C28   H28   S    
C51   H26   S    
C12   C64   A    
N6    Ni3   S    
C55   H24   S    
N11   Ni3   S    
C44   H19   S    
C9    C78   A    
C53   N20   S    
C6    C49   S    
C61   C62   A    
C35   C41   A    
C29   H7    S    
C10   C11   A    
N1    N11   A    
C2    H45   S    
C56   H12   S    
C40   H39   S    
C20   C21   A    
C3    N18   A    
C49   C50   A    
C9    C74   S    
C73   C77   A    
C14   C15   A    
N7    Ni4   S    
C21   C22   A    
C67   N14   A    
C58   C60   A    
N17   Ni1   S    
N15   N16   A    
