data_mof_unit_10390.cif
_audit_creation_date              2012-10-26T20:33:58-0400
_audit_creation_method            fapswitch 2.2
_symmetry_space_group_name_H-M    P1
_symmetry_Int_Tables_number       1
_space_group_crystal_system       triclinic
_cell_length_a                    15.862221
_cell_length_b                    9.070812
_cell_length_c                    7.856482
_cell_angle_alpha                 89.970422
_cell_angle_beta                  87.117526
_cell_angle_gamma                 89.961271
_cell_volume                      1128.98535666

loop_
_atom_site_label
_atom_site_type_symbol
_atom_type_description
_atom_site_fract_x
_atom_site_fract_y
_atom_site_fract_z
_atom_type_partial_charge
C1    C     C_R   0.499981 0.220335 0.500027 0.543638
C2    C     C_3   0.060282 0.325477 0.365478 0.580384
C3    C     C_3   0.941357 0.456110 0.683200 0.566644
C4    C     C_3   0.957021 0.312401 0.377428 0.559657
C5    C     C_1   0.749875 0.487481 0.484369 -0.070049
C6    C     C_1   0.250152 0.487109 0.514738 -0.058402
C7    C     C_3   0.083521 0.448005 0.504125 0.006428
C8    C     C_3   0.917060 0.450912 0.486287 0.029207
C9    C     C_3   0.956288 0.589420 0.397250 -0.286776
C10   C     C_3   0.050302 0.597819 0.431517 -0.305624
C11   C     C_3   0.847750 0.242732 0.758858 -0.081572
C12   C     C_1   0.825227 0.471805 0.479112 -0.060221
C13   C     C_3   0.943357 0.046727 0.359984 -0.064870
C14   C     C_3   0.049391 0.184214 0.852725 -0.040153
C15   C     C_3   0.164192 0.142696 0.475203 -0.098014
C16   C     C_3   0.171221 0.387171 0.156540 -0.081354
C17   C     C_3   0.083589 0.608085 0.871675 -0.058349
C18   C     C_3   0.843856 0.269637 0.189686 -0.094048
C19   C     C_3   0.862681 0.646638 0.834096 -0.099245
C20   C     C_1   0.174962 0.470621 0.516393 -0.057004
C21   C     C_R   0.339776 0.499612 0.504312 0.532891
C22   C     C_R   0.660223 0.499513 0.495633 0.533086
C23   C     C_1   0.499969 0.934531 0.499963 -0.060267
C24   C     C_1   0.499967 0.065490 0.500036 -0.062431
C25   C     C_R   0.499985 0.779677 0.499974 0.548271
C26   C     C_3   0.037605 0.406729 0.685230 0.549594
Cu1   Cu    Cu3+1 0.500000 0.500010 0.669080 1.002220
Cu2   Cu    Cu3+1 0.500000 0.500010 0.330920 0.995558
H1    H     H_    0.061274 0.693650 0.513029 0.132472
H2    H     H_    0.880917 0.994948 0.343923 0.074018
H3    H     H_    0.029088 0.067304 0.849679 0.082028
H4    H     H_    0.012251 0.238653 0.957207 0.257667
H5    H     H_    0.117659 0.183983 0.875957 0.125578
H6    H     H_    0.153837 0.030921 0.529632 0.128123
H7    H     H_    0.175658 0.212438 0.585551 0.148836
H8    H     H_    0.221908 0.132192 0.391002 0.092608
H9    H     H_    0.185164 0.357753 0.021855 0.167328
H10   H     H_    0.211283 0.314743 0.229037 0.120146
H11   H     H_    0.192387 0.502502 0.171915 0.107203
H12   H     H_    0.084985 0.628537 0.310418 0.141138
H13   H     H_    0.030973 0.629537 0.966766 0.174033
H14   H     H_    0.083387 0.685096 0.764888 0.115742
H15   H     H_    0.142490 0.633090 0.935771 0.101073
H16   H     H_    0.808947 0.236115 0.309339 0.122034
H17   H     H_    0.845869 0.171420 0.106095 0.104467
H18   H     H_    0.807292 0.357711 0.128794 0.156359
H19   H     H_    0.804018 0.603483 0.781723 0.155350
H20   H     H_    0.857670 0.768582 0.837443 0.096942
H21   H     H_    0.868110 0.607897 0.967299 0.159231
H22   H     H_    0.924666 0.693238 0.441680 0.147484
H23   H     H_    0.948114 0.586113 0.257468 0.163383
H24   H     H_    0.887886 0.143275 0.764865 0.175271
H25   H     H_    0.816474 0.248034 0.638113 0.143399
H26   H     H_    0.794146 0.225805 0.852339 0.087885
H27   H     H_    0.981420 0.966741 0.430621 0.153422
H28   H     H_    0.975072 0.064019 0.232010 0.157131
N1    N     N_1   0.500000 0.499970 0.076820 -0.085222
N2    N     N_1   0.500000 0.499970 0.923180 -0.085006
O1    O     O_R   0.500000 0.288400 0.642760 -0.495469
O2    O     O_3   0.932413 0.176845 0.459628 -0.573322
O3    O     O_3   0.035061 0.248933 0.693060 -0.557974
O4    O     O_3   0.092470 0.177108 0.381620 -0.546805
O5    O     O_3   0.083129 0.375492 0.196185 -0.546172
O6    O     O_3   0.085158 0.457818 0.825565 -0.560218
O7    O     O_3   0.927708 0.319640 0.207776 -0.555947
O8    O     O_3   0.935927 0.607854 0.733594 -0.616361
O9    O     O_R   0.500000 0.288400 0.357240 -0.496779
O10   O     O_R   0.379440 0.500020 0.642850 -0.494539
O11   O     O_R   0.379440 0.500020 0.357150 -0.505133
O12   O     O_R   0.620560 0.500020 0.642850 -0.498258
O13   O     O_R   0.620560 0.500020 0.357150 -0.501552
O14   O     O_R   0.500000 0.711620 0.642810 -0.494429
O15   O     O_R   0.500000 0.711620 0.357190 -0.493396
O16   O     O_3   0.891927 0.370366 0.807760 -0.552972

loop_
_geom_bond_atom_site_label_1
_geom_bond_atom_site_label_2
_ccdc_geom_bond_type
C7    C10   S    
C2    C4    S    
C23   C24   T    
C17   H15   S    
C11   H24   S    
C16   O5    S    
C18   H16   S    
C9    H22   S    
C6    C20   T    
C9    C10   S    
C19   H21   S    
C15   H6    S    
Cu2   O11   S    
C11   H25   S    
C11   O16   S    
C4    C8    S    
C16   H9    S    
C8    C12   S    
C13   H28   S    
C19   O8    S    
C4    O2    S    
C14   H5    S    
C23   C25   S    
C17   O6    S    
C13   O2    S    
Cu1   O1    S    
Cu2   N1    S    
C2    O5    S    
C18   O7    S    
C11   H26   S    
C10   H1    S    
N1    N2    T    
Cu1   O12   S    
C7    C26   S    
C5    C12   T    
Cu2   O15   S    
C18   H18   S    
C15   H7    S    
C1    O9    A    
C26   O3    S    
C22   O12   A    
C7    C20   S    
C25   O15   A    
C1    O1    A    
C21   O10   A    
C21   O11   A    
C4    O7    S    
C19   H19   S    
C3    O8    S    
Cu1   O14   S    
C16   H11   S    
Cu2   O13   S    
C18   H17   S    
C2    O4    S    
C22   O13   A    
C14   O3    S    
Cu2   O9    S    
C13   H2    S    
C1    C24   S    
C10   H12   S    
C3    C8    S    
C16   H10   S    
Cu1   Cu2   S    
C25   O14   A    
C3    O16   S    
C26   O6    S    
C19   H20   S    
Cu1   O10   S    
C17   H13   S    
C13   H27   S    
C15   H8    S    
C17   H14   S    
C6    C21   S    
C15   O4    S    
C3    C26   S    
C5    C22   S    
C2    C7    S    
C14   H4    S    
C8    C9    S    
C14   H3    S    
Cu1   N2    S    
C9    H23   S    
