data_mof_unit_13675.cif
_audit_creation_date              2013-03-05T16:48:11-0500
_audit_creation_method            fapswitch 2.2
_symmetry_space_group_name_H-M    P1
_symmetry_Int_Tables_number       1
_space_group_crystal_system       triclinic
_cell_length_a                    10.966232
_cell_length_b                    12.408476
_cell_length_c                    13.179425
_cell_angle_alpha                 116.993038
_cell_angle_beta                  77.026997
_cell_angle_gamma                 99.226467
_cell_volume                      1553.69316772

loop_
_atom_site_label
_atom_site_type_symbol
_atom_site_description
_atom_site_fract_x
_atom_site_fract_y
_atom_site_fract_z
_atom_type_partial_charge
O1    O     O_R   0.536940 0.972510 0.318130 -0.537113
O2    O     O_R   0.487330 0.806530 0.359650 -0.577241
C1    C     C_R   0.510845 0.855120 0.286295 0.772033
O3    O     O_R   0.705160 0.082990 0.479250 -0.563137
O4    O     O_R   0.655550 0.917010 0.520760 -0.587156
C2    C     C_R   0.737146 0.997149 0.499108 0.770737
Cu1   Cu    Cu3+1 0.529370 0.098270 0.475420 1.020677
Cu2   Cu    Cu3+1 0.470630 0.901730 0.524580 0.927185
O5    O     O_R   0.512670 0.193470 0.640350 -0.538323
O6    O     O_R   0.463060 0.027490 0.681870 -0.611933
O7    O     O_R   0.344450 0.082990 0.479240 -0.571683
O8    O     O_R   0.294840 0.917010 0.520750 -0.603599
C3    C     C_R   0.481428 0.144792 0.713713 0.817320
C4    C     C_R   0.263068 0.003830 0.502424 0.806157
C5    C     C_R   0.744467 0.706151 0.654758 -0.287160
H1    H     H_    0.685738 0.713772 0.735146 0.249877
C6    C     C_R   0.773182 0.809585 0.635397 0.105483
C7    C     C_R   0.852404 0.801935 0.532316 0.048575
C8    C     C_R   0.897308 0.688060 0.447680 0.083532
C9    C     C_R   0.879058 0.587810 0.474723 0.115570
C10   C     C_R   0.803492 0.598868 0.580755 0.348496
C11   C     C_R   0.046152 0.924821 0.533073 -0.200881
H2    H     H_    0.080442 0.861734 0.554548 0.166792
C12   C     C_R   0.129326 0.009124 0.505985 -0.055741
C13   C     C_R   0.081331 0.091705 0.481369 0.053337
C14   C     C_R   0.953599 0.084557 0.480649 -0.149479
H3    H     H_    0.919379 0.151961 0.465413 0.187325
C15   C     C_R   0.870808 0.995474 0.501184 -0.116903
C16   C     C_R   0.919749 0.912376 0.525476 0.055441
C17   C     C_R   0.153800 0.310737 0.553859 0.502077
C18   C     C_R   0.190508 0.410018 0.527705 -0.174637
H4    H     H_    0.186673 0.501382 0.595574 0.196298
C19   C     C_R   0.230136 0.392698 0.413290 -0.229779
H5    H     H_    0.256181 0.470260 0.394233 0.159112
C20   C     C_R   0.238015 0.275895 0.323786 -0.119903
H6    H     H_    0.270024 0.262926 0.235352 0.156865
C21   C     C_R   0.199954 0.176044 0.348025 -0.182081
H7    H     H_    0.198881 0.085981 0.277232 0.158172
C22   C     C_R   0.155402 0.192702 0.462377 -0.020505
C23   C     C_R   0.290612 0.301252 0.005460 -0.182766
H8    H     H_    0.271097 0.132978 0.857793 0.155178
H9    H     H_    0.210729 0.492056 0.192880 0.139289
H10   H     H_    0.197143 0.288092 0.049193 0.142123
C24   C     C_R   0.451712 0.226780 0.837487 -0.047932
C25   C     C_R   0.619864 0.796025 0.084236 0.419812
C26   C     C_R   0.700620 0.705102 0.007740 0.107781
C27   C     C_R   0.664279 0.584414 0.987789 -0.194805
C28   C     C_R   0.543687 0.551151 0.035669 0.013874
C29   C     C_R   0.475976 0.647700 0.128728 0.033358
C30   C     C_R   0.484824 0.429449 0.993766 0.085995
C31   C     C_R   0.360859 0.411983 0.050488 0.121022
C32   C     C_R   0.303503 0.506595 0.148871 -0.251880
C33   C     C_R   0.359074 0.622906 0.186314 -0.131004
C34   C     C_R   0.534532 0.326421 0.891820 0.086731
C35   C     C_R   0.333148 0.211869 0.897230 -0.171785
C36   C     C_R   0.524924 0.769555 0.161884 -0.242900
H11   H     H_    0.730735 0.520458 0.930077 0.214152
H12   H     H_    0.306304 0.695136 0.257052 0.148786
C37   C     C_R   0.631465 0.308688 0.285765 0.108393
H13   H     H_    0.530803 0.446139 0.215733 0.175761
N1    N     N_R   0.573890 0.246290 0.438210 -0.188326
C38   C     C_R   0.360707 0.784702 0.669256 0.000539
C39   C     C_R   0.353496 0.711124 0.723946 -0.223023
C40   C     C_R   0.410094 0.600814 0.667232 0.162990
C41   C     C_R   0.460506 0.556101 0.546143 -0.043226
C42   C     C_R   0.473485 0.640262 0.495909 0.211355
C43   C     C_R   0.506575 0.436710 0.472140 -0.062720
C44   C     C_R   0.550245 0.404223 0.352910 0.064841
C45   C     C_R   0.518484 0.475407 0.307681 -0.266965
C46   C     C_R   0.526403 0.598378 0.376305 0.194664
C47   C     C_R   0.502664 0.342611 0.504596 0.065185
C48   C     C_R   0.650813 0.236463 0.337538 0.423537
N2    N     N_R   0.426890 0.754320 0.561170 -0.202409
H14   H     H_    0.437551 0.338482 0.576693 0.149361
H15   H     H_    0.320100 0.871446 0.717288 0.147058
H16   H     H_    0.307827 0.743626 0.813549 0.170296
S1    S     S_3+6 0.803938 0.495005 0.637931 -0.043584
O9    O     O_2   0.712666 0.526890 0.748404 -0.346459
O10   O     O_2   0.772295 0.367288 0.555510 -0.294235
O11   O     O_3   0.947648 0.504580 0.665790 -0.479184
H17   H     H_    0.974699 0.592054 0.697121 0.328871
C49   C     C_3   0.672585 0.306015 0.850026 -0.755125
H18   H     H_    0.688396 0.207863 0.806897 0.208885
H19   H     H_    0.712082 0.341525 0.785216 0.317503
H20   H     H_    0.723763 0.343711 0.924027 0.216361
S2    S     S_3+6 0.606219 0.916557 0.051035 -0.053416
O12   O     O_2   0.517422 0.006829 0.142927 -0.309410
O13   O     O_2   0.732470 0.979539 0.033672 -0.360893
O14   O     O_3   0.549120 0.855204 0.926913 -0.567963
H21   H     H_    0.504651 0.920166 0.929621 0.361407
C50   C     C_3   0.825947 0.735842 0.948130 -0.698074
H22   H     H_    0.877783 0.809359 0.013183 0.210060
H23   H     H_    0.884912 0.656984 0.902792 0.242483
H24   H     H_    0.813192 0.765738 0.883904 0.270803
C51   C     C_3   0.759147 0.155338 0.289171 -0.677596
H25   H     H_    0.824048 0.190503 0.351915 0.204151
H26   H     H_    0.728867 0.060786 0.271939 0.257171
H27   H     H_    0.816291 0.152242 0.207782 0.216358
C52   C     C_3   0.702758 0.288000 0.165547 -0.830874
H28   H     H_    0.690578 0.354264 0.135175 0.210152
H29   H     H_    0.805204 0.295304 0.162790 0.213228
H30   H     H_    0.673851 0.197198 0.101353 0.302888
C53   C     C_3   0.417247 0.541324 0.742928 -0.746076
H31   H     H_    0.339863 0.471311 0.737246 0.266223
H32   H     H_    0.507523 0.501333 0.718826 0.274533
H33   H     H_    0.410689 0.607788 0.835317 0.256234
C54   C     C_3   0.650179 0.650420 0.334205 -0.766895
H34   H     H_    0.723830 0.584741 0.300649 0.211818
H35   H     H_    0.647014 0.669880 0.261106 0.218510
H36   H     H_    0.685339 0.727649 0.403696 0.263167
C55   C     C_3   0.727061 0.927498 0.731973 -0.702345
H37   H     H_    0.762187 0.006885 0.714172 0.214776
H38   H     H_    0.623078 0.922411 0.746887 0.246149
H39   H     H_    0.758941 0.943707 0.812175 0.266754
C56   C     C_3   0.974993 0.677037 0.332632 -0.874560
H40   H     H_    0.961787 0.752024 0.313045 0.235053
H41   H     H_    0.075838 0.677553 0.334043 0.231906
H42   H     H_    0.947000 0.592094 0.260261 0.236727
C57   C     C_3   0.947420 0.474774 0.392502 -0.787417
H43   H     H_    0.048171 0.499962 0.371071 0.216904
H44   H     H_    0.944085 0.407998 0.426709 0.285688
H45   H     H_    0.907524 0.429068 0.311942 0.215709
S3    S     S_3+6 0.101678 0.335071 0.699931 -0.011415
O15   O     O_2   0.968125 0.285260 0.715014 -0.261660
O16   O     O_2   0.182695 0.270138 0.729432 -0.351106
O17   O     O_3   0.109737 0.483655 0.790684 -0.559370
H46   H     H_    0.079851 0.487494 0.868902 0.371034

loop_
_geom_bond_atom_site_label_1
_geom_bond_atom_site_label_2
_geom_bond_distance
_ccdc_geom_bond_type
C40   C53   1.506168 S    
O17   H46   0.990517 S    
C11   C16   1.391023 A    
C51   H25   1.103565 S    
C37   C52   1.525281 S    
C8    C9    1.416010 A    
C51   H27   1.101493 S    
S3    O15   1.502350 D    
C42   C46   1.426172 A    
S1    O9    1.492643 D    
Cu1   O7    1.997572 S    
C14   H3    1.080557 S    
C30   C34   1.439492 A    
C15   C16   1.417057 A    
C20   C21   1.394628 A    
C21   H7    1.083398 S    
C46   C54   1.507750 S    
O4    C2    1.314742 A    
O7    C4    1.312853 A    
S2    O13   1.501021 D    
S3    O16   1.502901 D    
C27   H11   1.062104 S    
C39   H16   1.083935 S    
C5    H1    1.080936 S    
C5    C6    1.393980 A    
C7    C8    1.424457 A    
C4    C12   1.467911 S    
O5    C3    1.316105 A    
H8    C35   1.083868 S    
C47   H14   1.069200 S    
C19   C20   1.393543 A    
C48   C51   1.513942 S    
C53   H32   1.095668 S    
C23   H10   1.084446 S    
C2    C15   1.475790 S    
C18   H4    1.079342 S    
C25   C36   1.398635 A    
C44   C45   1.388042 A    
C41   C43   1.452018 A    
C54   H34   1.111597 S    
C18   C19   1.396577 A    
C38   N2    1.354307 A    
C53   H33   1.111796 S    
C33   H12   1.083010 S    
C37   C48   1.412391 A    
C23   C35   1.383253 A    
N1    C47   1.359176 A    
C28   C30   1.446566 A    
C54   H35   1.102955 S    
O3    Cu1   1.980990 S    
C6    C55   1.508084 S    
C19   H5    1.081667 S    
C57   H44   1.101418 S    
C43   C44   1.417786 A    
C27   C28   1.415671 A    
Cu1   Cu2   2.743258 S    
C12   C13   1.408428 A    
O3    C2    1.319154 A    
C50   H22   1.110368 S    
S2    O12   1.502823 D    
S3    O17   1.682573 S    
C26   C50   1.506882 S    
C30   C31   1.431849 A    
C13   C14   1.391189 A    
C25   C26   1.400207 A    
C42   N2    1.390495 A    
O6    C3    1.313284 A    
C31   C32   1.394244 A    
O1    C1    1.321047 A    
C20   H6    1.082448 S    
C38   C39   1.381300 A    
C37   C44   1.419193 A    
C50   H23   1.109633 S    
C1    C36   1.482637 S    
C52   H28   1.100973 S    
C8    C56   1.520746 S    
Cu2   O8    1.980988 S    
C56   H42   1.109074 S    
C6    C7    1.410279 A    
S1    O10   1.497361 D    
C55   H38   1.109263 S    
C7    C16   1.479614 S    
C17   S3    1.776976 S    
N1    C48   1.367649 A    
C28   C29   1.425977 A    
C52   H29   1.106193 S    
O8    C4    1.317058 A    
C41   C42   1.444578 A    
C49   H19   1.107111 S    
C54   H36   1.071973 S    
C11   C12   1.393018 A    
C38   H15   1.079904 S    
C49   H20   1.110141 S    
C34   C49   1.510425 S    
C32   C33   1.379963 A    
S1    O11   1.671142 S    
Cu1   O5    1.927072 S    
C56   H41   1.109167 S    
C26   C27   1.403161 A    
C55   H37   1.105135 S    
O1    Cu1   1.940897 S    
O2    Cu2   1.927073 S    
O11   H17   0.990718 S    
S2    O14   1.680533 S    
O4    Cu2   1.997573 S    
C57   H43   1.107907 S    
C51   H26   1.097905 S    
C23   C31   1.399687 A    
C14   C15   1.399582 A    
C40   C41   1.434833 A    
O2    C1    1.316056 A    
C21   C22   1.404197 A    
C29   C36   1.417954 A    
C13   C22   1.469700 S    
C50   H24   1.108394 S    
C24   C35   1.392910 A    
C17   C18   1.400944 A    
H13   C45   1.077665 S    
C29   C33   1.400988 A    
Cu2   N2    2.055206 S    
C57   H45   1.105766 S    
C17   C22   1.412402 A    
C25   S2    1.773692 S    
C55   H39   1.109202 S    
C43   C47   1.406141 A    
C3    C24   1.470844 S    
C45   C46   1.376179 A    
C39   C40   1.397446 A    
C24   C34   1.412273 A    
C5    C10   1.398791 A    
C52   H30   1.107394 S    
C9    C10   1.414511 A    
Cu2   O6    1.940895 S    
C49   H18   1.109729 S    
C10   S1    1.764667 S    
C53   H31   1.101612 S    
C11   H2    1.085179 S    
O14   H21   0.990442 S    
C9    C57   1.515359 S    
Cu1   N1    2.067590 S    
C56   H40   1.109694 S    
H9    C32   1.084073 S    
