data_mof_unit_34901.cif
_audit_creation_date              2012-12-11T15:55:05-0500
_audit_creation_method            fapswitch 2.2
_symmetry_space_group_name_H-M    P1
_symmetry_Int_Tables_number       1
_space_group_crystal_system       triclinic
_cell_length_a                    17.577872
_cell_length_b                    24.272379
_cell_length_c                    15.056644
_cell_angle_alpha                 89.877435
_cell_angle_beta                  126.17375
_cell_angle_gamma                 90.020893
_cell_volume                      5185.65109764

loop_
_atom_site_label
_atom_site_type_symbol
_atom_type_description
_atom_site_fract_x
_atom_site_fract_y
_atom_site_fract_z
_atom_type_partial_charge
C1    C     C_R   0.903936 0.874628 0.092569 -0.078348
C2    C     C_R   0.903939 0.124839 0.092926 -0.077952
C3    C     C_R   0.403936 0.374629 0.092569 -0.078349
C4    C     C_R   0.403940 0.624840 0.092926 -0.077951
C5    C     C_R   0.054390 0.847096 0.908578 -0.166473
C6    C     C_R   0.054016 0.153005 0.908323 -0.169705
C7    C     C_R   0.554392 0.347096 0.908578 -0.166472
C8    C     C_R   0.554015 0.653005 0.908323 -0.169707
C9    C     C_R   0.145932 0.153036 0.091201 -0.123147
C10   C     C_R   0.146054 0.846864 0.091418 -0.125745
C11   C     C_R   0.645931 0.653036 0.091201 -0.123147
C12   C     C_R   0.646056 0.346864 0.091418 -0.125747
C13   C     C_R   0.325404 0.999559 0.283782 0.038382
C14   C     C_R   0.825404 0.499559 0.283783 0.038383
C15   C     C_R   0.041268 0.001164 0.716721 0.039571
C16   C     C_R   0.541267 0.501164 0.716721 0.039571
C17   C     C_R   0.113569 0.814901 0.999945 0.066743
C18   C     C_R   0.113142 0.185097 0.999524 0.065237
C19   C     C_R   0.613573 0.314902 0.999944 0.066737
C20   C     C_R   0.613140 0.685097 0.999524 0.065238
C21   C     C_3   0.153225 0.031852 0.560073 -0.466915
C22   C     C_3   0.975004 0.028212 0.428400 -0.459858
C23   C     C_3   0.653222 0.531844 0.560070 -0.466913
C24   C     C_3   0.474998 0.528216 0.428398 -0.459858
C25   C     C_3   0.144736 0.037612 0.657636 0.579332
C26   C     C_3   0.954989 0.021459 0.514037 0.602525
C27   C     C_3   0.644736 0.537606 0.657635 0.579324
C28   C     C_3   0.454986 0.521467 0.514039 0.602534
C29   C     C_3   0.074377 0.940075 0.507216 -0.416836
C30   C     C_3   0.574352 0.440073 0.507198 -0.416845
C31   C     C_3   0.068400 0.999339 0.465070 0.251958
C32   C     C_3   0.568389 0.499338 0.465063 0.251958
C33   C     C_3   0.053266 0.002435 0.626950 0.226494
C34   C     C_3   0.553261 0.502435 0.626947 0.226499
C35   C     C_R   0.810157 0.124303 0.908413 -0.160408
C36   C     C_R   0.810503 0.875183 0.907807 -0.156130
C37   C     C_R   0.310157 0.624304 0.908413 -0.160408
C38   C     C_R   0.310502 0.375184 0.907807 -0.156129
C39   C     C_3   0.071585 0.941723 0.606331 -0.498678
C40   C     C_3   0.571565 0.441721 0.606317 -0.498674
C41   C     C_3   0.653087 0.181299 0.896330 0.127335
C42   C     C_3   0.653201 0.818625 0.895636 0.128821
C43   C     C_3   0.153086 0.681298 0.896332 0.127332
C44   C     C_3   0.153202 0.318624 0.895636 0.128819
C45   C     C_3   0.095391 0.727602 0.901296 -0.431262
C46   C     C_3   0.095384 0.272224 0.900172 -0.431610
C47   C     C_3   0.595393 0.227604 0.901293 -0.431264
C48   C     C_3   0.595383 0.772224 0.900171 -0.431608
C49   C     C_3   0.304354 0.742400 0.001783 0.450166
C50   C     C_3   0.304005 0.256941 0.000555 0.447550
C51   C     C_3   0.804357 0.242399 0.001786 0.450165
C52   C     C_3   0.804001 0.756940 0.000547 0.447550
C53   C     C_3   0.759599 0.181795 0.104218 -0.439696
C54   C     C_3   0.760005 0.817473 0.103543 -0.439889
C55   C     C_3   0.259601 0.681796 0.104221 -0.439694
C56   C     C_3   0.260002 0.317475 0.103543 -0.439884
C57   C     C_3   0.759437 0.184852 0.000492 0.241310
C58   C     C_3   0.759555 0.814561 0.999649 0.241429
C59   C     C_3   0.259437 0.684853 0.000492 0.241310
C60   C     C_3   0.259555 0.314562 0.999650 0.241428
C61   C     C_3   0.162469 0.766185 0.999548 0.268484
C62   C     C_3   0.162211 0.233588 0.998850 0.268103
C63   C     C_3   0.662472 0.266185 0.999546 0.268485
C64   C     C_3   0.662210 0.733588 0.998848 0.268104
C65   C     C_3   0.238577 0.788657 0.988004 -0.471455
C66   C     C_3   0.238476 0.210825 0.987896 -0.468957
C67   C     C_3   0.738582 0.288656 0.988006 -0.471455
C68   C     C_3   0.738473 0.710824 0.987892 -0.468953
C69   C     C_3   0.208806 0.732257 0.107424 -0.394961
C70   C     C_3   0.208342 0.267446 0.106436 -0.395178
C71   C     C_3   0.708805 0.232256 0.107421 -0.394960
C72   C     C_3   0.708342 0.767445 0.106435 -0.395179
C73   C     C_3   0.470556 0.942333 0.367649 -0.437974
C74   C     C_3   0.475925 0.043785 0.338206 -0.427057
C75   C     C_3   0.970554 0.442330 0.367658 -0.437982
C76   C     C_3   0.975926 0.543782 0.338201 -0.427059
C77   C     C_R   0.755857 0.953626 0.689949 0.242075
C78   C     C_R   0.754712 0.045223 0.688828 0.259257
C79   C     C_R   0.255858 0.453626 0.689949 0.242070
C80   C     C_R   0.254712 0.545223 0.688828 0.259263
C81   C     C_3   0.578955 0.943271 0.450953 0.177263
C82   C     C_3   0.582035 0.048471 0.435199 0.196461
C83   C     C_3   0.078954 0.443269 0.450959 0.177265
C84   C     C_3   0.082036 0.548469 0.435196 0.196459
C85   C     C_3   0.449801 0.010421 0.477634 -0.407363
C86   C     C_3   0.949801 0.510426 0.477634 -0.407363
C87   C     C_3   0.428658 0.999104 0.364396 0.292431
C88   C     C_3   0.928658 0.499104 0.364398 0.292436
C89   C     C_3   0.611725 0.998931 0.517834 0.285579
C90   C     C_3   0.111724 0.498931 0.517836 0.285583
C91   C     C_3   0.555029 0.005084 0.567364 -0.563527
C92   C     C_3   0.055029 0.505087 0.567365 -0.563529
C93   C     C_R   0.052728 0.045235 0.305928 -0.166995
C94   C     C_R   0.051228 0.953564 0.304451 -0.160644
C95   C     C_R   0.552723 0.545234 0.305925 -0.166998
C96   C     C_R   0.551222 0.453563 0.304448 -0.160647
C97   C     C_R   0.816301 0.859429 0.000314 0.036618
C98   C     C_R   0.816016 0.139839 0.001014 0.037196
C99   C     C_R   0.316300 0.359430 0.000315 0.036618
C100  C     C_R   0.316017 0.639841 0.001014 0.037197
C101  C     C_R   0.713348 0.999198 0.619099 -0.063128
C102  C     C_R   0.213348 0.499198 0.619099 -0.063129
C103  C     C_R   0.067338 0.998986 0.367311 0.063869
C104  C     C_R   0.567327 0.498986 0.367305 0.063875
C105  C     C_R   0.268588 0.953414 0.253658 -0.145653
C106  C     C_R   0.269409 0.046126 0.255218 -0.141323
C107  C     C_R   0.768587 0.453414 0.253658 -0.145653
C108  C     C_R   0.769409 0.546126 0.255219 -0.141324
C109  C     C_R   0.017484 0.046782 0.750510 -0.122829
C110  C     C_R   0.017277 0.954319 0.749322 -0.137162
C111  C     C_R   0.517486 0.546781 0.750512 -0.122831
C112  C     C_R   0.517277 0.454319 0.749323 -0.137159
H1    H     H_    0.934027 0.867269 0.177935 0.111111
H2    H     H_    0.934237 0.131923 0.178392 0.112350
H3    H     H_    0.434026 0.367270 0.177934 0.111113
H4    H     H_    0.434239 0.631924 0.178393 0.112349
H5    H     H_    0.157160 0.072714 0.529281 0.159156
H6    H     H_    0.980688 0.072815 0.415343 0.157853
H7    H     H_    0.657166 0.572706 0.529284 0.159157
H8    H     H_    0.480688 0.572819 0.415343 0.157852
H9    H     H_    0.140714 0.919667 0.531023 0.168252
H10   H     H_    0.014494 0.914718 0.441521 0.169456
H11   H     H_    0.640684 0.419660 0.530999 0.168254
H12   H     H_    0.514462 0.414722 0.441500 0.169462
H13   H     H_    0.136615 0.923592 0.679481 0.181138
H14   H     H_    0.016594 0.912184 0.589685 0.181171
H15   H     H_    0.636594 0.423585 0.679461 0.181134
H16   H     H_    0.516570 0.412186 0.589670 0.181170
H17   H     H_    0.649331 0.188559 0.821078 0.114658
H18   H     H_    0.649247 0.811862 0.820190 0.114711
H19   H     H_    0.149328 0.688558 0.821079 0.114658
H20   H     H_    0.149251 0.311859 0.820191 0.114711
H21   H     H_    0.541346 0.210912 0.910490 0.194288
H22   H     H_    0.540803 0.788796 0.908505 0.193499
H23   H     H_    0.041347 0.710909 0.910497 0.194291
H24   H     H_    0.040804 0.288797 0.908505 0.193499
H25   H     H_    0.056723 0.750079 0.821673 0.131277
H26   H     H_    0.057383 0.249776 0.820747 0.133093
H27   H     H_    0.556728 0.250081 0.821671 0.131277
H28   H     H_    0.557381 0.749777 0.820744 0.133091
H29   H     H_    0.752370 0.131317 0.823735 0.131133
H30   H     H_    0.753436 0.868027 0.822779 0.127473
H31   H     H_    0.252370 0.631317 0.823735 0.131134
H32   H     H_    0.253436 0.368027 0.822779 0.127473
H33   H     H_    0.202589 0.808775 0.905781 0.168151
H34   H     H_    0.202662 0.190336 0.906219 0.171634
H35   H     H_    0.702596 0.308776 0.905784 0.168151
H36   H     H_    0.702658 0.690334 0.906216 0.171634
H37   H     H_    0.831616 0.180810 0.182130 0.181869
H38   H     H_    0.832115 0.817736 0.181336 0.180933
H39   H     H_    0.331619 0.680813 0.182132 0.181868
H40   H     H_    0.332110 0.317741 0.181337 0.180931
H41   H     H_    0.725557 0.143398 0.104657 0.183866
H42   H     H_    0.726887 0.856136 0.104587 0.184163
H43   H     H_    0.225561 0.643399 0.104662 0.183865
H44   H     H_    0.226879 0.356138 0.104582 0.184163
H45   H     H_    0.654575 0.218858 0.118922 0.188444
H46   H     H_    0.653889 0.781250 0.117224 0.188343
H47   H     H_    0.154579 0.718857 0.118927 0.188446
H48   H     H_    0.153888 0.281250 0.117225 0.188342
H49   H     H_    0.261710 0.757608 0.179734 0.179374
H50   H     H_    0.260742 0.241970 0.179105 0.177609
H51   H     H_    0.761708 0.257607 0.179732 0.179375
H52   H     H_    0.760741 0.741969 0.179103 0.177604
H53   H     H_    0.279845 0.821951 0.048956 0.190871
H54   H     H_    0.279901 0.177749 0.049715 0.191433
H55   H     H_    0.779850 0.321950 0.048960 0.190871
H56   H     H_    0.779900 0.677749 0.049713 0.191432
H57   H     H_    0.443304 0.909941 0.394568 0.138202
H58   H     H_    0.442462 0.084751 0.324857 0.146119
H59   H     H_    0.943303 0.409942 0.394583 0.138203
H60   H     H_    0.942462 0.584748 0.324844 0.146121
H61   H     H_    0.446853 0.930718 0.283397 0.182393
H62   H     H_    0.464984 0.032844 0.259697 0.180655
H63   H     H_    0.946850 0.430711 0.283407 0.182392
H64   H     H_    0.964988 0.532836 0.259695 0.180657
H65   H     H_    0.595022 0.909181 0.508061 0.132250
H66   H     H_    0.587731 0.086817 0.478341 0.139017
H67   H     H_    0.095021 0.409180 0.508071 0.132245
H68   H     H_    0.087730 0.586816 0.478334 0.139020
H69   H     H_    0.411129 0.980916 0.494482 0.173412
H70   H     H_    0.426059 0.052690 0.479411 0.167256
H71   H     H_    0.911127 0.480924 0.494485 0.173413
H72   H     H_    0.926062 0.552697 0.479406 0.167254
H73   H     H_    0.567656 0.968702 0.619766 0.182249
H74   H     H_    0.577957 0.042022 0.621201 0.185777
H75   H     H_    0.067654 0.468707 0.619769 0.182249
H76   H     H_    0.077959 0.542027 0.621199 0.185779
H77   H     H_    0.066019 0.087607 0.333214 0.102911
H78   H     H_    0.065594 0.910914 0.330147 0.102265
H79   H     H_    0.566014 0.587606 0.333213 0.102910
H80   H     H_    0.565588 0.410914 0.330143 0.102268
H81   H     H_    0.288574 0.910542 0.267108 0.100523
H82   H     H_    0.291207 0.088712 0.272091 0.095676
H83   H     H_    0.788574 0.410542 0.267108 0.100523
H84   H     H_    0.791208 0.588712 0.272091 0.095675
H85   H     H_    0.020123 0.089611 0.734979 0.118889
H86   H     H_    0.025390 0.911497 0.737900 0.100288
H87   H     H_    0.520129 0.589611 0.734986 0.118888
H88   H     H_    0.525390 0.411496 0.737900 0.100288
H89   H     H_    0.011927 0.834659 0.823363 0.093475
H90   H     H_    0.011239 0.165619 0.823089 0.097371
H91   H     H_    0.511929 0.334660 0.823362 0.093475
H92   H     H_    0.511237 0.665619 0.823088 0.097372
H93   H     H_    0.188223 0.165867 0.176217 0.097189
H94   H     H_    0.188081 0.833781 0.176403 0.097769
H95   H     H_    0.688222 0.665867 0.176217 0.097188
H96   H     H_    0.688084 0.333781 0.176403 0.097770
H97   H     H_    0.219439 0.010386 0.586136 0.168080
H98   H     H_    0.914652 0.012578 0.346574 0.175660
H99   H     H_    0.719430 0.510373 0.586129 0.168082
H100  H     H_    0.414642 0.512584 0.346573 0.175659
N1    N     N_R   0.950530 0.896220 0.057200 -0.035534
N2    N     N_R   0.950530 0.103780 0.057200 -0.035178
N3    N     N_R   0.450530 0.396220 0.057200 -0.035534
N4    N     N_R   0.450530 0.603780 0.057200 -0.035178
N5    N     N_R   0.893330 0.103780 0.942800 -0.036983
N6    N     N_R   0.893330 0.896220 0.942800 -0.036527
N7    N     N_R   0.393330 0.603780 0.942800 -0.036983
N8    N     N_R   0.393330 0.396220 0.942800 -0.036528
N9    N     N_R   0.818150 0.971400 0.792440 -0.066917
N10   N     N_R   0.818150 0.028600 0.792440 -0.067135
N11   N     N_R   0.318150 0.471400 0.792440 -0.066917
N12   N     N_R   0.318150 0.528600 0.792440 -0.067135
N13   N     N_R   0.025710 0.028600 0.207560 -0.038452
N14   N     N_R   0.025710 0.971400 0.207560 -0.039236
N15   N     N_R   0.525710 0.528600 0.207560 -0.038451
N16   N     N_R   0.525710 0.471400 0.207560 -0.039235
N17   N     N_R   0.181850 0.971400 0.207560 -0.037713
N18   N     N_R   0.181850 0.028600 0.207560 -0.037076
N19   N     N_R   0.681850 0.471400 0.207560 -0.037714
N20   N     N_R   0.681850 0.528600 0.207560 -0.037076
N21   N     N_R   0.974290 0.028600 0.792440 -0.036958
N22   N     N_R   0.974290 0.971400 0.792440 -0.034316
N23   N     N_R   0.474290 0.528600 0.792440 -0.036958
N24   N     N_R   0.474290 0.471400 0.792440 -0.034317
N25   N     N_R   0.049470 0.896220 0.942800 -0.036215
N26   N     N_R   0.049470 0.103780 0.942800 -0.036444
N27   N     N_R   0.549470 0.396220 0.942800 -0.036214
N28   N     N_R   0.549470 0.603780 0.942800 -0.036444
N29   N     N_R   0.106670 0.103780 0.057200 -0.037898
N30   N     N_R   0.106670 0.896220 0.057200 -0.038171
N31   N     N_R   0.606670 0.603780 0.057200 -0.037898
N32   N     N_R   0.606670 0.396220 0.057200 -0.038170
Ni1   Ni    Ni4+2 0.065600 0.934400 0.131190 0.220804
Ni2   Ni    Ni4+2 0.065600 0.065600 0.131190 0.221794
Ni3   Ni    Ni4+2 0.565600 0.434400 0.131190 0.220804
Ni4   Ni    Ni4+2 0.565600 0.565600 0.131190 0.221794
Ni5   Ni    Ni4+2 0.934400 0.065600 0.868810 0.203608
Ni6   Ni    Ni4+2 0.934400 0.934400 0.868810 0.202376
Ni7   Ni    Ni4+2 0.434400 0.565600 0.868810 0.203609
Ni8   Ni    Ni4+2 0.434400 0.434400 0.868810 0.202375
C113  C     C_3   0.144457 0.100330 0.678057 -1.050707
H101  H     H_    0.143101 0.109441 0.748832 0.252405
H102  H     H_    0.211305 0.119176 0.700329 0.256132
H103  H     H_    0.090289 0.123096 0.603163 0.239307
C114  C     C_3   0.908313 0.075716 0.516187 -1.058276
H104  H     H_    0.873851 0.069444 0.557662 0.265534
H105  H     H_    0.955539 0.111090 0.554861 0.243084
H106  H     H_    0.851078 0.088899 0.430848 0.260226
C115  C     C_3   0.644468 0.600323 0.678062 -1.050705
H107  H     H_    0.643108 0.609435 0.748834 0.252405
H108  H     H_    0.711321 0.619165 0.700342 0.256134
H109  H     H_    0.590307 0.623093 0.603170 0.239308
C116  C     C_3   0.408324 0.575728 0.516197 -1.058272
H110  H     H_    0.373858 0.569460 0.557670 0.265532
H111  H     H_    0.455558 0.611098 0.554876 0.243084
H112  H     H_    0.351091 0.588915 0.430860 0.260224
C117  C     C_3   0.236934 0.015313 0.765040 -0.977657
H113  H     H_    0.258066 0.974347 0.754174 0.229659
H114  H     H_    0.297965 0.042512 0.792291 0.254016
H115  H     H_    0.229570 0.012991 0.833293 0.250449
C118  C     C_3   0.874943 0.977579 0.470314 -1.012085
H116  H     H_    0.886217 0.939816 0.438394 0.240469
H117  H     H_    0.865885 0.966029 0.534846 0.251088
H118  H     H_    0.806234 0.993921 0.398978 0.257937
C119  C     C_3   0.736930 0.515302 0.765035 -0.977667
H119  H     H_    0.758052 0.474333 0.754167 0.229661
H120  H     H_    0.797967 0.542494 0.792283 0.254016
H121  H     H_    0.729570 0.512985 0.833290 0.250454
C120  C     C_3   0.374930 0.477593 0.470316 -1.012104
H122  H     H_    0.386195 0.439827 0.438397 0.240471
H123  H     H_    0.365870 0.466049 0.534848 0.251093
H124  H     H_    0.306225 0.493939 0.398979 0.257940
C121  C     C_3   0.605514 0.124854 0.879244 -1.016610
H125  H     H_    0.534481 0.124958 0.799246 0.251643
H126  H     H_    0.646251 0.090855 0.876644 0.253784
H127  H     H_    0.596251 0.115892 0.944570 0.263752
C122  C     C_3   0.605993 0.875127 0.879381 -1.017727
H128  H     H_    0.534996 0.875495 0.799340 0.250927
H129  H     H_    0.596708 0.883617 0.944785 0.264264
H130  H     H_    0.647024 0.909176 0.877387 0.253518
C123  C     C_3   0.105517 0.624852 0.879249 -1.016608
H131  H     H_    0.034482 0.624956 0.799253 0.251643
H132  H     H_    0.146253 0.590854 0.876648 0.253784
H133  H     H_    0.096256 0.615890 0.944578 0.263752
C124  C     C_3   0.105991 0.375126 0.879374 -1.017730
H134  H     H_    0.034995 0.375492 0.799332 0.250927
H135  H     H_    0.096704 0.383618 0.944776 0.264264
H136  H     H_    0.147022 0.409175 0.877379 0.253518
C125  C     C_3   0.320735 0.749086 0.911787 -1.035993
H137  H     H_    0.256467 0.740192 0.828345 0.228642
H138  H     H_    0.342142 0.792104 0.911144 0.270004
H139  H     H_    0.379205 0.722448 0.928709 0.279004
C126  C     C_3   0.319232 0.250218 0.909636 -1.031681
H140  H     H_    0.254473 0.259042 0.826430 0.229553
H141  H     H_    0.377324 0.276833 0.925459 0.277581
H142  H     H_    0.340598 0.207184 0.909089 0.271947
C127  C     C_3   0.820742 0.249085 0.911793 -1.035991
H143  H     H_    0.756474 0.240191 0.828349 0.228642
H144  H     H_    0.842150 0.292102 0.911152 0.270004
H145  H     H_    0.879211 0.222446 0.928715 0.279004
C128  C     C_3   0.819221 0.750217 0.909622 -1.031682
H146  H     H_    0.754460 0.759041 0.826419 0.229553
H147  H     H_    0.877313 0.776832 0.925442 0.277580
H148  H     H_    0.840587 0.707183 0.909073 0.271948
I1    I     I_    0.443023 0.758373 0.155378 -0.556885
I2    I     I_    0.443274 0.240756 0.153270 -0.555060
I3    I     I_    0.943026 0.258370 0.155385 -0.556886
I4    I     I_    0.943274 0.740753 0.153256 -0.555060
C129  C     C_3   0.625598 0.929429 0.393186 -0.968700
H149  H     H_    0.629338 0.884010 0.387498 0.261706
H150  H     H_    0.584788 0.945867 0.308065 0.258489
H151  H     H_    0.697675 0.946263 0.438202 0.255799
C130  C     C_3   0.642840 0.057027 0.393119 -1.015687
H152  H     H_    0.645020 0.101538 0.377417 0.264282
H153  H     H_    0.715805 0.042565 0.454058 0.260669
H154  H     H_    0.614783 0.035346 0.314860 0.263576
C131  C     C_3   0.125594 0.429424 0.393191 -0.968691
H155  H     H_    0.129339 0.384005 0.387513 0.261706
H156  H     H_    0.084781 0.445856 0.308067 0.258485
H157  H     H_    0.197669 0.446260 0.438200 0.255804
C132  C     C_3   0.142842 0.557021 0.393118 -1.015708
H158  H     H_    0.145015 0.601531 0.377402 0.264285
H159  H     H_    0.215809 0.542566 0.454065 0.260672
H160  H     H_    0.114791 0.535334 0.314866 0.263580
C133  C     C_3   0.770934 0.897478 0.659860 -1.043836
H161  H     H_    0.715661 0.868058 0.642819 0.236446
H162  H     H_    0.776999 0.899592 0.591159 0.262437
H163  H     H_    0.838587 0.879570 0.729421 0.255125
C134  C     C_3   0.756394 0.103418 0.655674 -1.067975
H164  H     H_    0.761412 0.104922 0.586167 0.268156
H165  H     H_    0.693698 0.126396 0.636040 0.238509
H166  H     H_    0.819831 0.125197 0.724147 0.258870
C135  C     C_3   0.270939 0.397479 0.659861 -1.043832
H167  H     H_    0.215666 0.368058 0.642816 0.236448
H168  H     H_    0.277008 0.399594 0.591163 0.262436
H169  H     H_    0.338590 0.379570 0.729423 0.255124
C136  C     C_3   0.256390 0.603418 0.655673 -1.067984
H170  H     H_    0.261406 0.604923 0.586164 0.268155
H171  H     H_    0.193692 0.626395 0.636039 0.238509
H172  H     H_    0.319826 0.625198 0.724145 0.258871

loop_
_geom_bond_atom_site_label_1
_geom_bond_atom_site_label_2
_ccdc_geom_bond_type
N3    Ni3   S    
C85   H70   S    
C39   H13   S    
C55   C59   S    
C131  H156  S    
C15   C109  A    
C109  H85   S    
N11   N12   A    
N4    N7    A    
C77   C133  S    
C42   C58   S    
C133  H161  S    
C92   H75   S    
C27   C119  S    
N16   Ni3   S    
C125  H137  S    
C120  H124  S    
C6    N26   A    
C71   H51   S    
N25   N30   A    
C46   C62   S    
C107  N19   A    
C86   C88   S    
C125  H139  S    
C3    N3    A    
C40   H16   S    
C118  H118  S    
C62   C70   S    
C82   C130  S    
C24   C32   S    
C84   H68   S    
C36   H30   S    
C7    H91   S    
N12   Ni7   S    
C17   C61   S    
N15   Ni4   S    
C77   C101  A    
C19   C63   S    
C32   C104  S    
C79   C102  A    
C36   C97   A    
C51   C57   S    
N18   Ni2   S    
C119  H120  S    
C8    N28   A    
C78   C101  A    
N6    Ni6   S    
N22   Ni6   S    
C1    H1    S    
C41   C121  S    
C70   H50   S    
C73   C81   S    
C44   C46   S    
C71   H45   S    
C11   C20   A    
C79   C135  S    
N30   Ni1   S    
C52   C128  S    
C8    H92   S    
C48   H28   S    
C132  H158  S    
C106  N18   A    
C94   H78   S    
N17   N18   A    
C90   C92   S    
N15   N16   A    
C29   H10   S    
C82   H66   S    
C135  H169  S    
C52   C58   S    
C14   C107  A    
C91   H74   S    
C63   C71   S    
C2    N2    A    
C7    C19   A    
C43   C123  S    
C67   H35   S    
C86   H71   S    
N4    Ni4   S    
C53   C71   S    
C133  H163  S    
N14   Ni1   S    
C113  H102  S    
C132  H160  S    
C67   H55   S    
C22   H6    S    
C89   C101  S    
N19   Ni3   S    
C13   C106  A    
C54   H42   S    
C55   H39   S    
C44   H20   S    
N32   Ni3   S    
C83   C131  S    
C43   H19   S    
C120  H122  S    
C14   C88   S    
C121  H126  S    
N3    N8    A    
C2    H2    S    
C26   C114  S    
C22   H98   S    
C95   N15   A    
C66   H34   S    
C49   I1    S    
C61   C65   S    
N9    Ni6   S    
N28   Ni7   S    
N31   Ni4   S    
C81   C129  S    
C112  H88   S    
C25   C117  S    
C16   C111  A    
C109  N21   A    
N11   Ni8   S    
C53   H41   S    
C136  H170  S    
C4    N4    A    
C11   N31   A    
C56   H44   S    
C9    N29   A    
C93   C103  A    
C54   H38   S    
C55   H43   S    
C21   C31   S    
N9    N10   A    
C82   C89   S    
C96   N16   A    
C48   H22   S    
C74   H62   S    
C23   H7    S    
C113  H101  S    
C50   I2    S    
C128  H147  S    
C114  H104  S    
C130  H153  S    
C90   C102  S    
C16   C34   S    
C12   N32   A    
C21   H5    S    
C74   C87   S    
C89   C91   S    
N21   N22   A    
C68   H36   S    
C43   C59   S    
N17   Ni1   S    
C119  H119  S    
C53   H37   S    
C59   C100  S    
C124  H135  S    
C84   C90   S    
N24   Ni8   S    
C35   N5    A    
N13   N14   A    
C134  H165  S    
C45   H23   S    
C62   C66   S    
N2    Ni2   S    
C25   C113  S    
C18   C62   S    
C51   C67   S    
C84   C132  S    
C28   C116  S    
C80   C102  A    
N20   Ni4   S    
C123  H131  S    
C93   N13   A    
C116  H111  S    
C26   C33   S    
C129  H151  S    
C50   C126  S    
C13   C87   S    
C122  H128  S    
C41   C47   S    
C42   C48   S    
N1    Ni1   S    
C43   C45   S    
C55   C69   S    
C78   N10   A    
C68   H56   S    
C129  H149  S    
C136  H172  S    
N25   Ni6   S    
C108  H84   S    
C108  N20   A    
N13   Ni2   S    
C21   C25   S    
C85   H69   S    
N27   Ni8   S    
C24   C28   S    
C7    N27   A    
C115  H109  S    
N1    N6    A    
C92   H76   S    
C79   N11   A    
C93   H77   S    
C120  H123  S    
C49   C59   S    
C83   H67   S    
C114  H106  S    
C50   C60   S    
C96   H80   S    
C49   C125  S    
C10   H94   S    
C81   H65   S    
C14   C108  A    
C118  H117  S    
C70   H48   S    
C3    C99   A    
C9    C18   A    
C30   H11   S    
C119  H121  S    
N5    Ni5   S    
C37   C100  A    
C25   C33   S    
C110  H86   S    
C76   C84   S    
N21   Ni5   S    
N26   N29   A    
C5    N25   A    
C123  H133  S    
C47   C63   S    
C48   C64   S    
C5    C17   A    
C65   H53   S    
C122  H130  S    
C131  H155  S    
C73   C87   S    
C29   H9    S    
C111  N23   A    
N23   N24   A    
C56   H40   S    
C35   C98   A    
C81   C89   S    
C132  H159  S    
C91   H73   S    
C42   C122  S    
C28   C34   S    
C39   H14   S    
N7    Ni7   S    
C117  H113  S    
C47   H21   S    
C86   H72   S    
C15   C110  A    
C74   C82   S    
C133  H162  S    
C125  H138  S    
C24   H100  S    
C28   C120  S    
C24   H8    S    
C75   H63   S    
N29   Ni2   S    
C76   H64   S    
C13   C105  A    
C36   N6    A    
C117  H114  S    
C53   C57   S    
C112  N24   A    
C40   H15   S    
N28   N31   A    
C56   C60   S    
C105  N17   A    
C121  H125  S    
C80   N12   A    
C72   H52   S    
C8    C20   A    
C94   C103  A    
C1    N1    A    
C37   N7    A    
C73   H57   S    
C64   C68   S    
C16   C112  A    
C37   H31   S    
C38   H32   S    
C4    H4    S    
C38   C99   A    
C23   C32   S    
C113  H103  S    
C41   C57   S    
C3    H3    S    
C5    H89   S    
C131  H157  S    
C51   I3    S    
C75   C83   S    
C128  H146  S    
C115  H107  S    
C23   H99   S    
C44   C60   S    
C57   C98   S    
C12   C19   A    
C45   C61   S    
C21   H97   S    
C130  H152  S    
C94   N14   A    
C123  H132  S    
C126  H140  S    
C22   C26   S    
C117  H115  S    
C47   H27   S    
C44   C124  S    
C9    H93   S    
C110  N22   A    
C51   C127  S    
C41   H17   S    
C124  H134  S    
C10   N30   A    
N23   Ni7   S    
C60   C99   S    
C107  H83   S    
C85   C91   S    
C127  H143  S    
C105  H81   S    
C33   C39   S    
C49   C65   S    
C34   C40   S    
C12   H96   S    
C78   C134  S    
C127  H145  S    
C69   H49   S    
C6    H90   S    
C121  H127  S    
C69   H47   S    
C10   C17   A    
C27   C115  S    
C72   H46   S    
C76   H60   S    
C111  H87   S    
C129  H150  S    
N27   N32   A    
C23   C27   S    
C116  H110  S    
C76   C88   S    
C52   C68   S    
C95   H79   S    
C46   H26   S    
C136  H171  S    
C58   C97   S    
C85   C87   S    
C27   C34   S    
C6    C18   A    
C63   C67   S    
C22   C31   S    
C66   H54   S    
C38   N8    A    
C1    C97   A    
C115  H108  S    
C128  H148  S    
C126  H141  S    
C80   C136  S    
C106  H82   S    
C114  H105  S    
C31   C103  S    
C20   C64   S    
C130  H154  S    
C11   H95   S    
C126  H142  S    
C29   C39   S    
C26   C118  S    
C45   H25   S    
C118  H116  S    
C30   C40   S    
C42   H18   S    
N8    Ni8   S    
C50   C66   S    
C35   H29   S    
C77   N9    A    
C30   H12   S    
C56   C70   S    
C4    C100  A    
N26   Ni5   S    
C75   H59   S    
C124  H136  S    
C65   H33   S    
C95   C104  A    
C54   C58   S    
C134  H166  S    
C61   C69   S    
C83   C90   S    
N2    N5    A    
C96   C104  A    
C29   C31   S    
C86   C92   S    
C30   C32   S    
C135  H168  S    
C127  H144  S    
C122  H129  S    
C64   C72   S    
C73   H61   S    
C116  H112  S    
C74   H58   S    
C46   H24   S    
N10   Ni5   S    
C75   C88   S    
C54   C72   S    
C2    C98   A    
C52   I4    S    
N19   N20   A    
C134  H164  S    
C135  H167  S    
C15   C33   S    
