data_mof_unit_22058.cif
_audit_creation_date              2012-10-26T20:06:09-0400
_audit_creation_method            fapswitch 2.2
_symmetry_space_group_name_H-M    P1
_symmetry_Int_Tables_number       1
_space_group_crystal_system       triclinic
_cell_length_a                    9.522748
_cell_length_b                    10.833623
_cell_length_c                    13.472304
_cell_angle_alpha                 90.103998
_cell_angle_beta                  73.165393
_cell_angle_gamma                 90.012861
_cell_volume                      1330.31585482

loop_
_atom_site_label
_atom_site_type_symbol
_atom_type_description
_atom_site_fract_x
_atom_site_fract_y
_atom_site_fract_z
_atom_type_partial_charge
C1    C     C_R   0.499979 0.737916 0.500155 0.557377
C2    C     C_R   0.384392 0.451762 0.810392 -0.001331
C3    C     C_R   0.627169 0.936202 0.501119 -0.138152
C4    C     C_R   0.423766 0.485014 0.698892 0.544366
C5    C     C_R   0.627183 0.063910 0.501027 -0.139426
C6    C     C_R   0.499940 0.128235 0.500103 0.020738
C7    C     C_R   0.372653 0.063824 0.499354 -0.138727
C8    C     C_R   0.372633 0.936119 0.499460 -0.138438
C9    C     C_R   0.499922 0.871783 0.500267 0.019933
C10   C     C_R   0.897845 0.572336 0.567942 0.000854
C11   C     C_R   0.046596 0.572153 0.568032 0.004847
C12   C     C_R   0.446489 0.438727 0.974827 0.035814
C13   C     C_R   0.102139 0.427628 0.432060 0.009556
C14   C     C_R   0.953317 0.427634 0.432110 0.006383
C15   C     C_R   0.499979 0.262082 0.499958 0.546190
C16   C     C_R   0.577810 0.500355 0.300253 0.550658
C17   C     C_R   0.808297 0.500123 0.021927 -0.137734
C18   C     C_R   0.622020 0.495089 0.187033 0.000118
C19   C     C_R   0.236307 0.432795 0.864530 -0.137481
C20   C     C_R   0.194870 0.408850 0.970419 -0.145174
C21   C     C_R   0.296675 0.416938 0.025990 -0.117961
C22   C     C_R   0.492289 0.439489 0.864838 0.028856
C23   C     C_R   0.553080 0.458459 0.028657 0.030633
C24   C     C_R   0.703250 0.469559 0.971918 0.053011
C25   C     C_R   0.747722 0.446627 0.866078 -0.150189
C26   C     C_R   0.644135 0.426020 0.814206 -0.125061
C27   C     C_R   0.515015 0.472425 0.136624 -0.133274
C28   C     C_R   0.768631 0.510987 0.129207 -0.139440
Cu1   Cu    Cu3+1 0.359340 0.499980 0.500000 0.932587
Cu2   Cu    Cu3+1 0.640660 0.500020 0.500000 0.925662
H1    H     H_    0.852259 0.531924 0.166701 0.128558
H2    H     H_    0.255280 0.401593 0.108335 0.093806
H3    H     H_    0.082479 0.386182 0.010893 0.115296
H4    H     H_    0.726650 0.888212 0.501850 0.129048
H5    H     H_    0.080378 0.630023 0.622506 0.109436
H6    H     H_    0.919452 0.369579 0.377783 0.106962
H7    H     H_    0.402446 0.466852 0.183258 0.118539
H8    H     H_    0.687145 0.394913 0.735282 0.159627
H9    H     H_    0.726682 0.111971 0.501674 0.127119
H10   H     H_    0.273171 0.111815 0.498626 0.127771
H11   H     H_    0.273119 0.888066 0.498838 0.129172
H12   H     H_    0.819603 0.630352 0.622381 0.116131
H13   H     H_    0.180353 0.369501 0.377698 0.103949
H14   H     H_    0.863222 0.443402 0.823222 0.100708
H15   H     H_    0.920779 0.516480 0.977400 0.105129
H16   H     H_    0.152520 0.434200 0.824689 0.122550
N1    N     N_R   0.147940 0.499970 0.499970 -0.223985
N2    N     N_R   0.852060 0.500060 0.499990 -0.229240
O1    O     O_R   0.381250 0.680340 0.500010 -0.503551
O2    O     O_R   0.618820 0.680370 0.500010 -0.502959
O3    O     O_R   0.323240 0.499950 0.650980 -0.504998
O4    O     O_R   0.560810 0.499980 0.650980 -0.517805
O5    O     O_R   0.381180 0.319630 0.499990 -0.509910
O6    O     O_R   0.618750 0.319660 0.499990 -0.514373
O7    O     O_R   0.439190 0.500020 0.349020 -0.508507
O8    O     O_R   0.676760 0.500050 0.349020 -0.503667

loop_
_geom_bond_atom_site_label_1
_geom_bond_atom_site_label_2
_ccdc_geom_bond_type
C2    C22   A    
C2    C4    S    
C23   C24   A    
C16   O8    A    
C6    C7    A    
C3    C9    A    
C23   C27   A    
C10   H12   S    
C1    O2    A    
C11   N1    A    
C19   C20   A    
C7    H10   S    
C11   H5    S    
C6    C15   S    
C19   H16   S    
C1    C9    S    
C7    C8    A    
Cu1   O1    S    
C13   C14   A    
C20   C21   A    
C10   N2    A    
Cu2   O6    S    
C12   C23   A    
Cu1   Cu2   S    
Cu1   O5    S    
C4    O4    A    
C20   H3    S    
C15   O5    A    
C25   H14   S    
Cu2   N2    S    
C25   C26   A    
Cu1   N1    S    
C5    H9    S    
C14   H6    S    
C5    C6    A    
Cu2   O2    S    
C21   H2    S    
C16   O7    A    
C17   C24   A    
C10   C11   A    
C4    O3    A    
Cu1   O3    S    
C15   O6    A    
C12   C22   A    
C13   H13   S    
C18   C28   A    
C24   C25   A    
C16   C18   S    
C22   C26   A    
C13   N1    A    
Cu2   O4    S    
C26   H8    S    
C14   N2    A    
Cu1   O7    S    
C3    H4    S    
C8    H11   S    
C2    C19   A    
C17   C28   A    
Cu2   O8    S    
C12   C21   A    
C28   H1    S    
C18   C27   A    
C27   H7    S    
C17   H15   S    
C8    C9    A    
C3    C5    A    
C1    O1    A    
