data_mof_unit_47471.cif
_audit_creation_date              2012-12-10T16:45:23-0500
_audit_creation_method            fapswitch 2.2
_symmetry_space_group_name_H-M    P1
_symmetry_Int_Tables_number       1
_space_group_crystal_system       triclinic
_cell_length_a                    7.566128
_cell_length_b                    8.68402
_cell_length_c                    15.863201
_cell_angle_alpha                 95.944285
_cell_angle_beta                  77.528826
_cell_angle_gamma                 102.440784
_cell_volume                      992.013295005

loop_
_atom_site_label
_atom_site_type_symbol
_atom_type_description
_atom_site_fract_x
_atom_site_fract_y
_atom_site_fract_z
_atom_type_partial_charge
C1    C     C_R   0.542356 0.799262 0.504603 0.824399
C2    C     C_R   0.457644 0.200738 0.495397 0.824445
C3    C     C_R   0.300170 0.383709 0.072214 -0.219811
C4    C     C_R   0.699755 0.616582 0.927828 -0.219818
C5    C     C_R   0.171227 0.341981 0.019161 -0.208596
C6    C     C_R   0.828696 0.658320 0.980882 -0.208609
C7    C     C_2   0.555005 0.965931 0.516616 0.251450
C8    C     C_2   0.444995 0.034069 0.483384 0.251435
C9    C     C_R   0.388159 0.472567 0.663942 0.800794
C10   C     C_R   0.611840 0.527462 0.336064 0.800794
C11   C     C_R   0.328065 0.430136 0.755549 -0.076560
C12   C     C_R   0.671922 0.569979 0.244471 -0.076569
C13   C     C_R   0.094554 0.324961 0.877727 -0.192100
C14   C     C_R   0.905390 0.675287 0.122312 -0.192080
C15   C     C_R   0.147081 0.348677 0.788955 0.101759
C16   C     C_R   0.852885 0.651490 0.211077 0.101754
C17   C     C_R   0.461203 0.452359 0.808494 0.063469
C18   C     C_R   0.538767 0.547831 0.191541 0.063447
C19   C     C_R   0.402814 0.455490 0.898971 0.064358
C20   C     C_R   0.597133 0.544761 0.101065 0.064354
C21   C     C_R   0.219957 0.379272 0.932749 0.085991
C22   C     C_R   0.779981 0.621000 0.067289 0.085993
C23   C     C_R   0.526435 0.517658 0.956010 0.069511
C24   C     C_R   0.473498 0.482620 0.044030 0.069509
Cu1   Cu    Cu3+1 0.322120 0.483240 0.490330 0.963448
Cu2   Cu    Cu3+1 0.677880 0.516760 0.509670 0.963452
H1    H     H_    0.036077 0.273118 0.044706 0.147085
H2    H     H_    0.963839 0.727195 0.955341 0.147090
H3    H     H_    0.957663 0.259297 0.903573 0.143181
H4    H     H_    0.042266 0.740985 0.096474 0.143182
H5    H     H_    0.261950 0.337628 0.135629 0.163090
H6    H     H_    0.737978 0.662661 0.864410 0.163095
N1    N     N_2   0.945180 0.542040 0.524240 -0.063198
N2    N     N_2   0.054820 0.457960 0.475760 -0.063201
O1    O     O_R   0.384450 0.714270 0.493720 -0.578554
O2    O     O_R   0.615550 0.285730 0.506280 -0.578540
O3    O     O_R   0.684880 0.742590 0.510050 -0.566490
O4    O     O_R   0.315120 0.257410 0.489950 -0.566480
O5    O     O_R   0.265540 0.477900 0.617090 -0.604675
O6    O     O_R   0.734460 0.522100 0.382910 -0.604684
O7    O     O_R   0.565970 0.506210 0.633420 -0.575525
O8    O     O_R   0.434030 0.493790 0.366580 -0.575539
C25   C     C_3   0.353157 0.591822 0.229397 -0.805915
H7    H     H_    0.297643 0.637208 0.179766 0.227764
H8    H     H_    0.251121 0.489306 0.258030 0.235015
H9    H     H_    0.368151 0.690554 0.279514 0.271478
C26   C     C_3   0.646850 0.408412 0.770663 -0.805990
H10   H     H_    0.748855 0.510928 0.742008 0.235023
H11   H     H_    0.702387 0.363105 0.820310 0.227777
H12   H     H_    0.631892 0.309628 0.720571 0.271428
C27   C     C_3   0.977335 0.738894 0.270379 -0.777182
H13   H     H_    0.901024 0.814774 0.319286 0.235938
H14   H     H_    0.024837 0.655129 0.304105 0.262068
H15   H     H_    0.100273 0.817827 0.234756 0.221453
C28   C     C_3   0.022608 0.261251 0.729668 -0.777163
H16   H     H_    0.098888 0.185324 0.680777 0.235950
H17   H     H_    0.899649 0.182360 0.765307 0.221439
H18   H     H_    0.975124 0.345005 0.695923 0.262061
F1    F     F_    0.668374 0.047753 0.569050 -0.703650
F2    F     F_    0.331626 0.952247 0.430949 -0.703676
C29   C     C_3   0.018679 0.689679 0.566353 -0.341434
H19   H     H_    0.115054 0.677404 0.606878 0.174985
H20   H     H_    0.077710 0.779619 0.518118 0.242925
H21   H     H_    0.903362 0.732283 0.611710 0.163584
C30   C     C_3   0.981322 0.310322 0.433646 -0.341430
H22   H     H_    0.884945 0.322596 0.393122 0.174986
H23   H     H_    0.096639 0.267719 0.388289 0.163588
H24   H     H_    0.922291 0.220381 0.481881 0.242924

loop_
_geom_bond_atom_site_label_1
_geom_bond_atom_site_label_2
_ccdc_geom_bond_type
Cu1   O8    S    
C8    F2    S    
C29   H21   S    
C19   C23   A    
C25   H7    S    
Cu2   O3    S    
Cu1   O4    S    
C10   O8    A    
C9    C11   S    
C2    O4    A    
Cu2   N1    S    
C9    O7    A    
C26   H10   S    
C16   C27   S    
C1    O3    A    
Cu1   N2    S    
C28   H16   S    
C27   H15   S    
Cu2   O6    S    
C30   H24   S    
C13   C15   A    
N1    N2    D    
C3    C5    A    
C13   C21   A    
C7    C8    D    
C26   H11   S    
C15   C28   S    
C1    C7    S    
C18   C25   S    
Cu1   O5    S    
C3    H5    S    
C25   H8    S    
C14   C22   A    
C3    C24   A    
C4    H6    S    
C10   C12   S    
Cu1   O1    S    
C2    C8    S    
N2    C30   S    
C7    F1    S    
C19   C21   A    
C14   H4    S    
C26   H12   S    
C18   C20   A    
C28   H17   S    
C29   H19   S    
C25   H9    S    
C14   C16   A    
C4    C6    A    
Cu2   O7    S    
C23   C24   A    
C2    O2    A    
C27   H13   S    
C6    C22   A    
C17   C19   A    
C20   C24   A    
C9    O5    A    
C5    C21   A    
C1    O1    A    
N1    C29   S    
C30   H22   S    
C28   H18   S    
C13   H3    S    
C29   H20   S    
C4    C23   A    
Cu2   O2    S    
C11   C17   A    
C10   O6    A    
C30   H23   S    
Cu1   Cu2   S    
C5    H1    S    
C11   C15   A    
C6    H2    S    
C12   C16   A    
C17   C26   S    
C20   C22   A    
C27   H14   S    
C12   C18   A    
