data_mof_unit_7636.cif
_audit_creation_date              2012-12-10T18:10:56-0500
_audit_creation_method            fapswitch 2.2
_symmetry_space_group_name_H-M    P1
_symmetry_Int_Tables_number       1
_space_group_crystal_system       triclinic
_cell_length_a                    12.707402
_cell_length_b                    13.120074
_cell_length_c                    15.727265
_cell_angle_alpha                 93.368448
_cell_angle_beta                  103.472878
_cell_angle_gamma                 81.879908
_cell_volume                      2523.44802129

loop_
_atom_site_label
_atom_site_type_symbol
_atom_type_description
_atom_site_fract_x
_atom_site_fract_y
_atom_site_fract_z
_atom_type_partial_charge
Br1   Br    Br    0.575427 0.300515 0.105657 -0.481374
Br2   Br    Br    0.701400 0.696954 0.670830 -0.521114
Br3   Br    Br    0.741539 0.341868 0.388714 -0.535612
Br4   Br    Br    0.727299 0.484755 0.128622 -0.551625
C1    C     C_R   0.439483 0.690033 0.482192 0.874899
C2    C     C_R   0.595613 0.197849 0.512171 -0.047922
C3    C     C_R   0.292285 0.836744 0.447689 -0.255945
C4    C     C_R   0.501125 0.503147 0.661582 0.910269
C5    C     C_R   0.258387 0.941980 0.436452 0.068039
C6    C     C_R   0.337334 0.008066 0.442494 -0.243641
C7    C     C_R   0.449337 0.968769 0.454060 0.066087
C8    C     C_R   0.478263 0.862022 0.446484 0.082549
C9    C     C_R   0.534081 0.031479 0.473921 0.094680
C10   C     C_R   0.643118 0.988966 0.474059 0.175273
C11   C     C_R   0.665338 0.886649 0.448113 -0.235918
C12   C     C_3   0.383925 0.596213 0.029119 -0.265009
C13   C     C_R   0.582943 0.824400 0.432043 -0.172238
C14   C     C_R   0.513932 0.134367 0.498213 -0.258424
C15   C     C_R   0.704145 0.154801 0.517366 -0.158248
C16   C     C_R   0.560728 0.308569 0.511658 0.899853
C17   C     C_R   0.402462 0.796772 0.456044 -0.132208
C18   C     C_R   0.080118 0.389525 0.343219 -0.064504
C19   C     C_R   0.807129 0.620228 0.614118 0.351912
C20   C     C_R   0.915319 0.640328 0.641881 -0.084227
C21   C     C_R   0.991023 0.598236 0.594778 -0.282954
C22   C     C_R   0.961634 0.534902 0.520401 -0.022433
C23   C     C_3   0.488723 0.528409 0.082656 0.122317
C24   C     C_R   0.851485 0.513187 0.494536 0.085277
C25   C     C_R   0.039591 0.490053 0.472204 -0.000397
C26   C     C_R   0.003761 0.441246 0.389632 0.047781
C27   C     C_R   0.892668 0.442086 0.357035 -0.256487
C28   C     C_R   0.497151 0.501333 0.338294 0.921496
C29   C     C_R   0.823017 0.456190 0.413738 0.297903
C30   C     C_R   0.152425 0.491496 0.502886 -0.050010
C31   C     C_R   0.190197 0.393427 0.379265 -0.040397
C32   C     C_3   0.383665 0.586112 0.929606 -0.435978
C33   C     C_3   0.592498 0.584548 0.974022 -0.216019
C34   C     C_3   0.487481 0.417393 0.039276 0.189342
C35   C     C_3   0.595091 0.578027 0.075351 0.187508
C36   C     C_1   0.489103 0.509901 0.248567 -0.102863
C37   C     C_3   0.495851 0.531056 0.917401 0.193003
C38   C     C_R   0.274642 0.582252 0.050221 0.169039
C39   C     C_R   0.209069 0.507429 0.007765 -0.141839
C40   C     C_R   0.106991 0.502764 0.025428 -0.165458
C41   C     C_R   0.069638 0.570236 0.087136 -0.141634
C42   C     C_R   0.133870 0.643431 0.130806 -0.143017
C43   C     C_R   0.234960 0.650004 0.112161 -0.163816
C44   C     C_R   0.140909 0.983035 0.420398 0.129084
C45   C     C_3   0.508718 0.418435 0.947313 -0.472477
C46   C     C_R   0.063860 0.933480 0.359033 -0.152857
C47   C     C_R   0.953610 0.974245 0.341064 -0.155888
C48   C     C_R   0.919137 0.064199 0.384262 -0.141330
C49   C     C_R   0.994471 0.112676 0.446991 -0.153511
C50   C     C_R   0.105071 0.072899 0.464594 -0.159719
C51   C     C_R   0.050844 0.326116 0.261230 0.089341
C52   C     C_R   0.982901 0.249055 0.255896 -0.108177
C53   C     C_R   0.961087 0.185551 0.181128 -0.059642
C54   C     C_R   0.008760 0.196736 0.111329 -0.112477
C55   C     C_R   0.078295 0.271395 0.116348 -0.127108
C56   C     C_1   0.485840 0.519120 0.173319 0.008594
C57   C     C_R   0.099250 0.335847 0.190732 -0.139627
C58   C     C_R   0.952511 0.704824 0.720633 0.169042
C59   C     C_R   0.955315 0.670278 0.804112 -0.142486
C60   C     C_R   0.995600 0.728908 0.878709 -0.160743
C61   C     C_R   0.033583 0.821928 0.870546 -0.120003
C62   C     C_R   0.031516 0.856500 0.787691 -0.142651
C63   C     C_R   0.991486 0.798073 0.712884 -0.138106
C64   C     C_R   0.601189 0.690680 0.940241 0.117586
C65   C     C_R   0.526740 0.779646 0.948042 -0.119593
C66   C     C_R   0.540928 0.874998 0.920391 -0.128367
C67   C     C_1   0.499330 0.525597 0.825975 -0.046510
C68   C     C_R   0.629862 0.884032 0.885062 -0.096867
C69   C     C_R   0.704725 0.797628 0.877199 -0.082421
C70   C     C_R   0.690367 0.701602 0.903679 -0.142672
C71   C     C_R   0.615041 0.681920 0.126151 0.139853
C72   C     C_R   0.543437 0.738318 0.174149 -0.204796
C73   C     C_R   0.565336 0.832978 0.215118 -0.129327
C74   C     C_R   0.660179 0.872723 0.211649 -0.094250
C75   C     C_R   0.733779 0.817656 0.167290 -0.152752
C76   C     C_R   0.712260 0.723334 0.125959 -0.072006
C77   C     C_1   0.501539 0.515643 0.750851 -0.158449
C78   C     C_R   0.727897 0.049851 0.499543 -0.217409
H1    H     H_    0.392920 0.677397 0.046258 0.141066
H2    H     H_    0.602384 0.746853 0.407849 0.182001
H3    H     H_    0.251766 0.357573 0.345693 0.145438
H4    H     H_    0.862888 0.411123 0.292186 0.239859
H5    H     H_    0.187922 0.529511 0.563010 0.133022
H6    H     H_    0.072143 0.619175 0.616885 0.153238
H7    H     H_    0.666773 0.534391 0.963324 0.166642
H8    H     H_    0.450194 0.373559 0.901542 0.163356
H9    H     H_    0.592186 0.379257 0.946847 0.226023
H10   H     H_    0.404809 0.395559 0.032118 0.122819
H11   H     H_    0.234568 0.452896 0.960022 0.108790
H12   H     H_    0.319171 0.541804 0.892119 0.180405
H13   H     H_    0.056527 0.446683 0.990979 0.137905
H14   H     H_    0.990816 0.565904 0.100923 0.158904
H15   H     H_    0.104841 0.695977 0.178571 0.129234
H16   H     H_    0.281850 0.708887 0.146024 0.107072
H17   H     H_    0.089324 0.864590 0.323668 0.119338
H18   H     H_    0.895000 0.936672 0.293055 0.126859
H19   H     H_    0.834024 0.096695 0.368658 0.177139
H20   H     H_    0.967410 0.182210 0.480730 0.154351
H21   H     H_    0.162452 0.111993 0.512837 0.126686
H22   H     H_    0.946661 0.238284 0.309661 0.164843
H23   H     H_    0.769687 0.202038 0.532963 0.176280
H24   H     H_    0.907976 0.127060 0.177692 0.141079
H25   H     H_    0.992574 0.147002 0.053686 0.121560
H26   H     H_    0.116737 0.278676 0.062833 0.128015
H27   H     H_    0.154193 0.392615 0.193745 0.148303
H28   H     H_    0.926847 0.597924 0.811341 0.134955
H29   H     H_    0.996568 0.702698 0.942791 0.155431
H30   H     H_    0.064605 0.867178 0.928411 0.126691
H31   H     H_    0.061252 0.928416 0.781438 0.130382
H32   H     H_    0.990967 0.825252 0.649028 0.130675
H33   H     H_    0.459806 0.778288 0.978461 0.116808
H34   H     H_    0.746505 0.854349 0.441516 0.154605
H35   H     H_    0.483535 0.942412 0.927633 0.136462
H36   H     H_    0.641193 0.958127 0.864291 0.135797
H37   H     H_    0.773850 0.805313 0.850175 0.171961
H38   H     H_    0.750263 0.636098 0.896746 0.129515
H39   H     H_    0.469828 0.712014 0.181180 0.109820
H40   H     H_    0.508278 0.875678 0.249855 0.143172
H41   H     H_    0.676752 0.945984 0.243630 0.139315
H42   H     H_    0.807509 0.848159 0.164143 0.117964
H43   H     H_    0.771355 0.683184 0.091836 0.138802
H44   H     H_    0.811842 0.016483 0.504095 0.150521
H45   H     H_    0.433894 0.167035 0.505815 0.159648
H46   H     H_    0.232781 0.786503 0.451297 0.164780
H47   H     H_    0.309004 0.089118 0.433899 0.135052
H48   H     H_    0.363755 0.662646 0.899138 0.178992
N1    N     N_R   0.222200 0.444690 0.455710 -0.114630
N2    N     N_R   0.776960 0.554780 0.543830 -0.145212
O1    O     O_R   0.366740 0.627160 0.478850 -0.621803
O2    O     O_R   0.544830 0.662520 0.507140 -0.579409
O3    O     O_R   0.410920 0.482310 0.608710 -0.626738
O4    O     O_R   0.589010 0.517670 0.637000 -0.569034
O5    O     O_R   0.455170 0.337480 0.492860 -0.625494
O6    O     O_R   0.633260 0.372840 0.521150 -0.577773
O7    O     O_R   0.410990 0.482330 0.363000 -0.629397
O8    O     O_R   0.589080 0.517690 0.391290 -0.583401
Zn1   Zn    Zn3+2 0.381090 0.476390 0.481110 0.939409
Zn2   Zn    Zn3+2 0.618910 0.523610 0.518890 1.004708

loop_
_geom_bond_atom_site_label_1
_geom_bond_atom_site_label_2
_ccdc_geom_bond_type
C51   C52   A    
C69   H37   S    
C62   H31   S    
C31   N1    A    
C4    O4    A    
O7    Zn1   S    
C69   C70   A    
C45   H8    S    
C71   C72   A    
C57   H27   S    
C34   C45   S    
C41   C42   A    
C48   C49   A    
C44   C50   A    
C2    C15   A    
C46   H17   S    
C25   C26   A    
C43   H16   S    
C9    C14   A    
C36   C56   T    
C72   H39   S    
C63   H32   S    
O8    Zn2   S    
C28   O8    A    
C23   C56   S    
C26   C27   A    
C76   H43   S    
Br3   C29   S    
C23   C34   S    
C64   C70   A    
C33   C64   S    
C34   H10   S    
C7    C9    A    
C52   C53   A    
C11   C13   A    
C54   H25   S    
C21   H6    S    
C16   O6    A    
C78   H44   S    
O4    Zn2   S    
C73   H40   S    
C23   C35   S    
C64   C65   A    
C8    C13   A    
C19   C20   A    
C27   C29   A    
C35   C71   S    
C3    H46   S    
C15   C78   A    
C5    C6    A    
N1    Zn1   S    
C73   C74   A    
C37   C67   S    
C12   C23   S    
C44   C46   A    
C62   C63   A    
C27   H4    S    
C9    C10   A    
C4    O3    A    
C30   H5    S    
C32   C37   S    
C45   H9    S    
C37   C45   S    
N2    Zn2   S    
C1    O2    A    
C2    C14   A    
C48   H19   S    
C55   C57   A    
C4    C77   S    
C50   H21   S    
C20   C21   A    
C52   H22   S    
C28   O7    A    
O6    Zn2   S    
C74   C75   A    
C60   H29   S    
C21   C22   A    
C49   C50   A    
C25   C30   A    
C12   H1    S    
C47   C48   A    
C24   N2    A    
C16   O5    A    
C1    O1    A    
C39   C40   A    
C61   H30   S    
C58   C59   A    
C18   C31   A    
C32   H48   S    
C14   H45   S    
O2    Zn2   S    
Br4   C35   S    
C49   H20   S    
C46   C47   A    
C72   C73   A    
C74   H41   S    
Br1   C34   S    
C5    C44   S    
C58   C63   A    
C42   H15   S    
C30   N1    A    
C75   C76   A    
C38   C39   A    
C10   C78   A    
C12   C38   S    
C70   H38   S    
C40   C41   A    
C71   C76   A    
C47   H18   S    
C3    C5    A    
O5    Zn1   S    
C42   C43   A    
C65   H33   S    
C20   C58   S    
C18   C26   A    
C11   H34   S    
O1    Zn1   S    
C68   C69   A    
C24   C29   A    
C7    C8    A    
C18   C51   S    
C2    C16   S    
C75   H42   S    
C22   C24   A    
C55   H26   S    
C33   H7    S    
C13   H2    S    
C60   C61   A    
C59   H28   S    
C54   C55   A    
C6    H47   S    
C33   C35   S    
C40   H13   S    
C3    C17   A    
C12   C32   S    
C31   H3    S    
C53   C54   A    
C51   C57   A    
C39   H11   S    
C19   N2    A    
C53   H24   S    
C38   C43   A    
C28   C36   S    
C33   C37   S    
C65   C66   A    
C6    C7    A    
C59   C60   A    
C8    C17   A    
C32   H12   S    
O3    Zn1   S    
C1    C17   S    
C15   H23   S    
C22   C25   A    
C61   C62   A    
C68   H36   S    
Br2   C19   S    
C10   C11   A    
C66   C68   A    
C66   H35   S    
C41   H14   S    
C67   C77   T    
