data_mof_unit_8483.cif
_audit_creation_date              2012-10-26T19:25:51-0400
_audit_creation_method            fapswitch 2.2
_symmetry_space_group_name_H-M    P1
_symmetry_Int_Tables_number       1
_space_group_crystal_system       triclinic
_cell_length_a                    15.050354
_cell_length_b                    13.918217
_cell_length_c                    11.720716
_cell_angle_alpha                 90.013005
_cell_angle_beta                  86.948944
_cell_angle_gamma                 90.043979
_cell_volume                      2451.70536554

loop_
_atom_site_label
_atom_site_type_symbol
_atom_type_description
_atom_site_fract_x
_atom_site_fract_y
_atom_site_fract_z
_atom_type_partial_charge
C1    C     C_R   0.329008 0.499681 0.503690 0.598600
C2    C     C_R   0.556208 0.205728 0.424858 0.177505
C3    C     C_R   0.552153 0.795177 0.420941 0.191832
C4    C     C_R   0.443690 0.205482 0.574825 0.179358
C5    C     C_R   0.562932 0.897117 0.431269 -0.033832
C6    C     C_R   0.435430 0.102902 0.567038 -0.046921
C7    C     C_R   0.437364 0.897117 0.568579 -0.045410
C8    C     C_R   0.564317 0.103056 0.431870 -0.045190
C9    C     C_R   0.500026 0.948875 0.499693 0.002066
C10   C     C_R   0.499931 0.051622 0.499518 0.012107
C11   C     C_R   0.634299 0.948186 0.374922 0.019455
C12   C     C_R   0.670990 0.499752 0.496159 0.601347
C13   C     C_R   0.364647 0.049925 0.623803 0.029494
C14   C     C_R   0.366011 0.948010 0.625021 0.035099
C15   C     C_R   0.634973 0.050117 0.374769 -0.045463
C16   C     C_R   0.500500 0.500022 0.284200 0.609046
C17   C     C_R   0.499200 0.500035 0.715817 0.611881
C18   C     C_1   0.500413 0.500097 0.162394 0.085665
C19   C     C_1   0.499006 0.500129 0.837649 0.087416
C20   C     C_1   0.499970 0.500139 0.059941 0.014461
C21   C     C_1   0.499320 0.500156 0.940112 0.015288
C22   C     C_R   0.819329 0.486989 0.392531 0.067931
C23   C     C_R   0.911342 0.466250 0.394952 -0.009013
C24   C     C_R   0.180524 0.489600 0.607327 0.069198
C25   C     C_R   0.768250 0.496356 0.496281 -0.015821
C26   C     C_R   0.231727 0.496078 0.503421 -0.015851
C27   C     C_R   0.808362 0.491044 0.601765 0.038844
C28   C     C_R   0.191788 0.487518 0.398097 0.039039
C29   C     C_R   0.901092 0.472825 0.604807 -0.020101
C30   C     C_R   0.098826 0.469877 0.395536 -0.020665
C31   C     C_R   0.952978 0.469279 0.500097 -0.002324
C32   C     C_R   0.046887 0.469199 0.500355 -0.002466
C33   C     C_2   0.780029 0.512741 0.282464 0.602415
C34   C     C_R   0.088434 0.468922 0.605641 -0.008747
C35   C     C_2   0.220114 0.517285 0.716483 0.607467
C36   C     C_2   0.753275 0.515316 0.706480 0.578567
C37   C     C_2   0.247704 0.507491 0.292740 0.576153
C38   C     C_2   0.890705 0.421827 0.812230 0.639009
C39   C     C_2   0.108370 0.415630 0.189184 0.640289
C40   C     C_2   0.080017 0.393279 0.801051 0.619231
C41   C     C_2   0.919413 0.384614 0.203023 0.618550
C42   C     C_2   0.418667 0.750586 0.688357 0.631945
C43   C     C_2   0.599434 0.256223 0.326521 0.628719
C44   C     C_2   0.583225 0.749926 0.312612 0.630880
C45   C     C_R   0.943316 0.450921 0.707490 0.045857
C46   C     C_2   0.401332 0.255179 0.674477 0.636779
C47   C     C_2   0.715738 0.895768 0.332832 0.608442
C48   C     C_2   0.281697 0.098426 0.666546 0.617769
C49   C     C_2   0.285230 0.895061 0.668434 0.610230
C50   C     C_2   0.717416 0.098968 0.329648 0.638368
C51   C     C_R   0.056277 0.445816 0.293655 0.047551
C52   C     C_R   0.036937 0.443315 0.705918 0.056668
C53   C     C_R   0.962652 0.437995 0.295674 0.058212
C54   C     C_R   0.448278 0.795296 0.579236 0.190480
Cu1   Cu    Cu3+1 0.500000 0.597420 0.500000 1.122824
Cu2   Cu    Cu3+1 0.500000 0.402580 0.500000 1.157388
H1    H     H_    0.796666 0.581596 0.131116 0.364287
H2    H     H_    0.599090 0.284764 0.157932 0.353433
H3    H     H_    0.672191 0.667196 0.226774 0.351245
H4    H     H_    0.402147 0.280516 0.843766 0.354285
H5    H     H_    0.814029 0.804243 0.369696 0.377102
H6    H     H_    0.198384 0.130160 0.801555 0.367977
H7    H     H_    0.186220 0.803864 0.632868 0.376144
H8    H     H_    0.687170 0.082126 0.165320 0.338853
H9    H     H_    0.203826 0.589029 0.866001 0.363401
H10   H     H_    0.726357 0.610311 0.833366 0.358344
H11   H     H_    0.278733 0.599257 0.163742 0.356446
H12   H     H_    0.813202 0.321458 0.891584 0.365220
H13   H     H_    0.182484 0.312928 0.109077 0.362245
H14   H     H_    0.171715 0.297516 0.847241 0.350384
H15   H     H_    0.830123 0.283854 0.162122 0.378743
H16   H     H_    0.331235 0.667823 0.776515 0.350862
N1    N     N_R   0.500000 0.743810 0.500000 -0.291543
N2    N     N_R   0.500000 0.256190 0.500000 -0.296274
O1    O     O_R   0.370260 0.582280 0.500020 -0.468040
O2    O     O_R   0.827846 0.572151 0.204862 -0.648815
O3    O     O_2   0.291826 0.484799 0.741773 -0.498128
O4    O     O_R   0.173265 0.579410 0.791822 -0.649844
O5    O     O_2   0.695832 0.459534 0.743001 -0.503935
O6    O     O_R   0.767892 0.601780 0.763119 -0.630031
O7    O     O_2   0.303040 0.448700 0.257939 -0.498250
O8    O     O_R   0.236764 0.593670 0.234022 -0.629878
O9    O     O_2   0.884880 0.476022 0.894371 -0.394297
O10   O     O_R   0.847217 0.333066 0.815833 -0.632189
O11   O     O_2   0.116495 0.470417 0.107834 -0.394704
O12   O     O_R   0.629740 0.417720 0.499980 -0.453008
O13   O     O_R   0.148550 0.325150 0.184741 -0.628086
O14   O     O_2   0.059823 0.413455 0.900371 -0.383511
O15   O     O_R   0.145044 0.323675 0.775966 -0.636195
O16   O     O_2   0.938759 0.402110 0.102696 -0.391387
O17   O     O_R   0.855687 0.314338 0.231789 -0.600670
O18   O     O_2   0.456734 0.771284 0.774679 -0.477381
O19   O     O_R   0.345627 0.689098 0.695015 -0.638076
O20   O     O_2   0.669057 0.299516 0.336640 -0.417267
O21   O     O_R   0.562911 0.248864 0.219705 -0.674779
O22   O     O_2   0.546446 0.770232 0.225224 -0.482735
O23   O     O_R   0.629740 0.582280 0.499980 -0.466634
O24   O     O_R   0.656317 0.688541 0.307899 -0.637710
O25   O     O_2   0.332879 0.300750 0.665425 -0.424041
O26   O     O_R   0.437487 0.244741 0.781145 -0.656087
O27   O     O_2   0.743533 0.903819 0.233370 -0.438856
O28   O     O_R   0.760005 0.836771 0.407864 -0.630971
O29   O     O_2   0.233757 0.136881 0.598997 -0.426030
O30   O     O_R   0.258177 0.098759 0.783498 -0.610697
O31   O     O_2   0.259748 0.901090 0.768973 -0.409891
O32   O     O_R   0.239421 0.837209 0.593665 -0.639253
O33   O     O_2   0.769813 0.130621 0.396256 -0.370117
O34   O     O_R   0.370260 0.417720 0.500020 -0.451090
O35   O     O_R   0.736297 0.108636 0.212169 -0.599608
O36   O     O_R   0.500010 0.582270 0.337200 -0.492991
O37   O     O_R   0.499990 0.417730 0.662800 -0.473222
O38   O     O_R   0.499990 0.582270 0.662800 -0.491949
O39   O     O_R   0.500010 0.417730 0.337200 -0.468609
O40   O     O_2   0.707353 0.481693 0.258804 -0.499811

loop_
_geom_bond_atom_site_label_1
_geom_bond_atom_site_label_2
_ccdc_geom_bond_type
C39   C51   S    
C46   O25   D    
C47   O27   D    
C38   O9    D    
C27   C29   A    
C42   O19   S    
C11   C47   S    
C39   O13   S    
Cu1   Cu2   S    
C16   O39   A    
C16   O36   A    
C4    C46   S    
C33   O40   D    
H1    O2    S    
C19   C21   T    
C30   C51   A    
C24   C26   A    
C5    C11   A    
Cu1   O38   S    
C14   C49   S    
C48   O30   S    
C43   O20   D    
C15   C50   S    
Cu2   O34   S    
C38   C45   S    
C32   C34   A    
C44   O24   S    
C7    C14   A    
C22   C25   A    
C43   O21   S    
Cu2   O39   S    
C40   O15   S    
C9    C10   A    
Cu2   O37   S    
C4    N2    A    
H13   O13   S    
Cu1   O1    S    
C41   O16   D    
C47   O28   S    
C13   C14   A    
C37   O7    D    
C11   C15   A    
C17   O37   A    
C23   C53   A    
H6    O30   S    
C3    C44   S    
C24   C35   S    
Cu2   N2    S    
C1    O1    A    
C4    C6    A    
C36   O6    S    
C49   O31   D    
C45   C52   A    
H4    O26   S    
C40   C52   S    
C48   O29   D    
C35   O3    D    
C50   O35   S    
C24   C34   A    
C29   C45   A    
C51   C53   A    
H12   O10   S    
H2    O21   S    
C5    C9    A    
C44   O22   D    
C54   N1    A    
C33   O2    S    
Cu2   O12   S    
C31   C32   A    
C2    C43   S    
Cu1   O23   S    
H7    O32   S    
C41   C53   S    
C12   O23   A    
H16   O19   S    
C16   C18   S    
C41   O17   S    
C8    C15   A    
Cu1   O36   S    
C50   O33   D    
C37   O8    S    
H14   O15   S    
C39   O11   D    
C17   O38   A    
C7    C9    A    
C22   C33   S    
C46   O26   S    
H9    O4    S    
C42   O18   D    
C38   O10   S    
C34   C52   A    
C2    C8    A    
C3    C5    A    
C36   O5    D    
C2    N2    A    
C6    C10   A    
C13   C48   S    
C49   O32   S    
C27   C36   S    
C25   C27   A    
H10   O6    S    
C35   O4    S    
C26   C28   A    
C12   O12   A    
C12   C25   S    
C40   O14   D    
C28   C30   A    
H5    O28   S    
C29   C31   A    
C42   C54   S    
C6    C13   A    
C30   C32   A    
H8    O35   S    
C1    C26   S    
C28   C37   S    
C17   C19   S    
C18   C20   T    
C3    N1    A    
C1    O34   A    
Cu1   N1    S    
H15   O17   S    
C20   C21   S    
H11   O8    S    
C8    C10   A    
H3    O24   S    
C22   C23   A    
C7    C54   A    
C23   C31   A    
