data_mof_unit_8061.cif
_audit_creation_date              2012-10-26T21:03:53-0400
_audit_creation_method            fapswitch 2.2
_symmetry_space_group_name_H-M    P1
_symmetry_Int_Tables_number       1
_space_group_crystal_system       triclinic
_cell_length_a                    15.135071
_cell_length_b                    13.896696
_cell_length_c                    10.792698
_cell_angle_alpha                 90.511474
_cell_angle_beta                  92.004208
_cell_angle_gamma                 89.666895
_cell_volume                      2268.48756415

loop_
_atom_site_label
_atom_site_type_symbol
_atom_type_description
_atom_site_fract_x
_atom_site_fract_y
_atom_site_fract_z
_atom_type_partial_charge
C1    C     C_R   0.330074 0.500296 0.500991 0.574372
C2    C     C_R   0.424623 0.109277 0.453336 -0.145570
C3    C     C_R   0.570383 0.208372 0.548522 0.031572
C4    C     C_R   0.428319 0.210374 0.451557 0.044812
C5    C     C_R   0.496414 0.054928 0.502199 0.032116
C6    C     C_R   0.445180 0.891869 0.415168 -0.171460
C7    C     C_R   0.547184 0.893570 0.589046 -0.168250
C8    C     C_R   0.448871 0.789622 0.413085 0.357666
C9    C     C_R   0.555120 0.791319 0.581561 0.394530
C10   C     C_R   0.495121 0.945536 0.502915 -0.059481
C11   C     C_R   0.496562 0.499610 0.262536 0.567552
C12   C     C_R   0.670276 0.499525 0.498093 0.555379
C13   C     C_R   0.496613 0.500265 0.737545 0.566803
C14   C     C_R   0.525378 0.574517 0.066275 -0.057345
C15   C     C_R   0.522699 0.577254 0.939859 -0.035029
C16   C     C_R   0.487678 0.499973 0.129407 -0.025486
C17   C     C_R   0.486747 0.501464 0.870418 -0.023529
C18   C     C_R   0.433843 0.433758 0.062303 0.227904
C19   C     C_R   0.436963 0.431020 0.931175 0.224975
C20   C     C_3   0.611291 0.623518 0.938525 -0.255480
C21   C     C_3   0.614629 0.618121 0.078962 -0.281715
C22   C     C_R   0.090111 0.549362 0.424412 0.252829
C23   C     C_R   0.193802 0.434581 0.583937 -0.211314
C24   C     C_R   0.907573 0.579446 0.525963 0.256289
C25   C     C_R   0.181502 0.564055 0.434753 0.232264
C26   C     C_R   0.816360 0.583235 0.502457 0.245706
C27   C     C_R   0.233910 0.500037 0.505997 -0.081526
C28   C     C_R   0.767397 0.497468 0.498792 -0.087381
C29   C     C_3   0.295803 0.413946 0.132215 0.003317
C30   C     C_3   0.235590 0.346860 0.200586 -0.376458
C31   C     C_3   0.423725 0.274135 0.869438 0.017754
C32   C     C_3   0.368816 0.205435 0.788323 -0.369732
C33   C     C_3   0.401956 0.769963 0.205599 -0.002510
C34   C     C_R   0.812292 0.408660 0.497362 -0.203963
C35   C     C_3   0.312274 0.808834 0.160686 -0.398311
C36   C     C_3   0.678351 0.792572 0.727468 -0.009342
C37   C     C_3   0.747293 0.850728 0.659489 -0.378325
C38   C     C_3   0.051807 0.560856 0.219067 -0.008396
C39   C     C_3   0.989876 0.610870 0.125881 -0.391540
C40   C     C_3   0.964061 0.675270 0.679300 -0.016356
C41   C     C_3   0.006391 0.772167 0.708628 -0.387456
C42   C     C_3   0.207066 0.725480 0.452258 0.051273
C43   C     C_3   0.136080 0.791977 0.396030 -0.368764
C44   C     C_3   0.780967 0.692554 0.354841 0.019130
C45   C     C_R   0.101730 0.435287 0.595061 0.240468
C46   C     C_3   0.732058 0.786155 0.326909 -0.368392
C47   C     C_3   0.096700 0.401921 0.803457 -0.011974
C48   C     C_3   0.031165 0.372128 0.899441 -0.376161
C49   C     C_3   0.943611 0.288279 0.362042 -0.009982
C50   C     C_3   0.012845 0.210462 0.342043 -0.368791
C51   C     C_R   0.904612 0.405294 0.498742 0.243969
C52   C     C_R   0.049662 0.490085 0.510830 0.045773
C53   C     C_R   0.952652 0.490857 0.516048 0.046896
C54   C     C_R   0.570502 0.107144 0.548846 -0.145189
Cu1   Cu    Cu3+1 0.500000 0.596430 0.500000 1.066961
Cu2   Cu    Cu3+1 0.500000 0.403570 0.500000 0.950543
H1    H     H_    0.627289 0.246465 0.586732 0.117651
H2    H     H_    0.362846 0.233125 0.692287 0.177749
H3    H     H_    0.400864 0.133357 0.786802 0.094116
H4    H     H_    0.301582 0.198665 0.825299 0.143929
H5    H     H_    0.404143 0.929049 0.347156 0.103194
H6    H     H_    0.582608 0.934144 0.659855 0.095609
H7    H     H_    0.417386 0.707883 0.145282 0.164014
H8    H     H_    0.454882 0.823772 0.190965 0.091652
H9    H     H_    0.289731 0.867657 0.222297 0.133319
H10   H     H_    0.317036 0.837029 0.065231 0.092695
H11   H     H_    0.262817 0.750086 0.159175 0.176930
H12   H     H_    0.372691 0.250012 0.412499 0.131757
H13   H     H_    0.716777 0.740562 0.785526 0.135071
H14   H     H_    0.641679 0.837794 0.794049 0.085719
H15   H     H_    0.718681 0.889159 0.578134 0.143057
H16   H     H_    0.777290 0.904722 0.724411 0.077907
H17   H     H_    0.801177 0.803256 0.628407 0.208749
H18   H     H_    0.661996 0.578480 0.893027 0.133608
H19   H     H_    0.613031 0.689797 0.125325 0.134007
H20   H     H_    0.604422 0.698575 0.906707 0.146804
H21   H     H_    0.665381 0.566832 0.116122 0.120675
H22   H     H_    0.036598 0.482575 0.216252 0.100263
H23   H     H_    0.265355 0.426879 0.038263 0.142090
H24   H     H_    0.120910 0.572072 0.190377 0.156795
H25   H     H_    0.920071 0.598458 0.149689 0.134973
H26   H     H_    0.000504 0.581798 0.031334 0.085443
H27   H     H_    0.002933 0.689448 0.126647 0.151074
H28   H     H_    0.008061 0.617842 0.718613 0.120169
H29   H     H_    0.899266 0.673220 0.725367 0.125870
H30   H     H_    0.964763 0.831124 0.668970 0.153536
H31   H     H_    0.013213 0.782477 0.810659 0.089552
H32   H     H_    0.072919 0.775329 0.669019 0.141273
H33   H     H_    0.269803 0.765772 0.456678 0.183135
H34   H     H_    0.299734 0.483408 0.184627 0.140007
H35   H     H_    0.192395 0.710546 0.550976 0.092251
H36   H     H_    0.143741 0.865386 0.436335 0.069624
H37   H     H_    0.141685 0.796038 0.294019 0.156113
H38   H     H_    0.069286 0.766166 0.417429 0.224609
H39   H     H_    0.749831 0.634744 0.296290 0.103478
H40   H     H_    0.851054 0.701351 0.328874 0.166798
H41   H     H_    0.765274 0.846770 0.376825 0.141978
H42   H     H_    0.732424 0.800499 0.225888 0.073131
H43   H     H_    0.662486 0.781191 0.355498 0.173478
H44   H     H_    0.234439 0.386618 0.640660 0.156132
H45   H     H_    0.260948 0.337061 0.297318 0.156292
H46   H     H_    0.776148 0.341644 0.491364 0.148315
H47   H     H_    0.109642 0.480409 0.816804 0.103673
H48   H     H_    0.159100 0.360834 0.820891 0.149327
H49   H     H_    0.017607 0.293850 0.890902 0.164888
H50   H     H_    0.058926 0.387714 0.994080 0.076736
H51   H     H_    0.968280 0.412843 0.885442 0.148503
H52   H     H_    0.957132 0.348377 0.297673 0.106431
H53   H     H_    0.877140 0.258103 0.338443 0.124417
H54   H     H_    0.000690 0.148053 0.402597 0.160940
H55   H     H_    0.009698 0.186038 0.243743 0.082866
H56   H     H_    0.168053 0.378092 0.202898 0.071125
H57   H     H_    0.079885 0.239381 0.364327 0.155967
H58   H     H_    0.629379 0.070788 0.584090 0.084016
H59   H     H_    0.365071 0.074680 0.417706 0.083452
H60   H     H_    0.232107 0.275807 0.152794 0.152645
H61   H     H_    0.425147 0.246411 0.965839 0.168184
H62   H     H_    0.492353 0.274479 0.835307 0.136168
N1    N     N_R   0.500000 0.258690 0.500000 -0.225022
N2    N     N_R   0.500000 0.741330 0.500000 -0.210258
O1    O     O_R   0.371460 0.581430 0.500010 -0.446184
O2    O     O_3   0.385152 0.366800 0.862543 -0.558995
O3    O     O_3   0.397434 0.736156 0.328795 -0.505965
O4    O     O_3   0.620196 0.738613 0.647532 -0.493571
O5    O     O_3   0.038793 0.599970 0.338234 -0.539785
O6    O     O_3   0.952925 0.664103 0.549518 -0.534247
O7    O     O_3   0.218520 0.641914 0.377231 -0.530414
O8    O     O_3   0.775822 0.671222 0.482209 -0.509809
O9    O     O_3   0.061083 0.380432 0.683438 -0.509385
O10   O     O_3   0.948322 0.318174 0.487478 -0.507344
O11   O     O_R   0.628540 0.581430 0.499990 -0.409495
O12   O     O_R   0.371470 0.418560 0.500010 -0.526122
O13   O     O_R   0.628530 0.418560 0.499990 -0.539758
O14   O     O_R   0.499990 0.581450 0.319660 -0.478757
O15   O     O_R   0.500010 0.581450 0.680340 -0.481852
O16   O     O_R   0.500010 0.418580 0.319660 -0.471132
O17   O     O_R   0.499990 0.418580 0.680340 -0.491869
O18   O     O_3   0.380292 0.371052 0.123792 -0.549607

loop_
_geom_bond_atom_site_label_1
_geom_bond_atom_site_label_2
_ccdc_geom_bond_type
C7    C10   A    
C46   H43   S    
Cu1   O1    S    
C19   O2    S    
C45   O9    S    
C23   C45   A    
C12   O11   A    
C40   H28   S    
C32   H2    S    
Cu1   Cu2   S    
C1    O12   A    
C9    O4    S    
Cu2   O13   S    
C7    H6    S    
C30   H60   S    
C52   C53   S    
C29   O18   S    
C34   C51   A    
C34   H46   S    
C12   C28   S    
C6    H5    S    
C22   C52   A    
C36   C37   S    
C36   O4    S    
C24   C26   A    
C42   H35   S    
C38   C39   S    
C33   C35   S    
C3    C54   A    
C48   H51   S    
C35   H9    S    
C50   H54   S    
C43   H38   S    
C20   H20   S    
C15   C17   A    
C18   C19   A    
C2    H59   S    
C18   O18   S    
C31   H61   S    
C43   H37   S    
C48   H50   S    
C48   H49   S    
C44   C46   S    
C22   C25   A    
C4    N1    A    
C23   C27   A    
C23   H44   S    
C46   H42   S    
C28   C34   A    
C24   O6    S    
C13   O15   A    
C29   H34   S    
Cu2   O16   S    
C51   O10   S    
C36   H14   S    
C49   H52   S    
Cu1   N2    S    
C15   C20   S    
C41   H31   S    
C47   H47   S    
C5    C54   A    
C39   H25   S    
C11   O14   A    
C4    H12   S    
C22   O5    S    
C6    C8    A    
C38   H22   S    
C45   C52   A    
C24   C53   A    
C30   H56   S    
C51   C53   A    
C13   O17   A    
C40   H29   S    
C2    C4    A    
C31   H62   S    
C29   C30   S    
C44   H40   S    
C11   C16   S    
C47   C48   S    
C29   H23   S    
C35   H11   S    
C33   H7    S    
C40   O6    S    
C20   H18   S    
C26   O8    S    
Cu2   O12   S    
C3    N1    A    
C42   O7    S    
C3    H1    S    
C40   C41   S    
C46   H41   S    
C47   O9    S    
Cu1   O11   S    
C12   O13   A    
C37   H15   S    
Cu2   N1    S    
C14   C16   A    
C2    C5    A    
C42   C43   S    
C32   H4    S    
C38   O5    S    
C33   O3    S    
C36   H13   S    
C8    N2    A    
C49   H53   S    
C7    C9    A    
C41   H32   S    
C37   H17   S    
C44   O8    S    
C47   H48   S    
C39   H26   S    
C31   C32   S    
C31   O2    S    
C6    C10   A    
C8    O3    S    
C25   C27   A    
Cu1   O14   S    
C49   O10   S    
C21   H19   S    
C26   C28   A    
C43   H36   S    
C35   H10   S    
C13   C17   S    
C50   H57   S    
C42   H33   S    
C25   O7    S    
C39   H27   S    
C5    C10   S    
C44   H39   S    
C11   O16   A    
Cu2   O17   S    
C38   H24   S    
C33   H8    S    
Cu1   O15   S    
C54   H58   S    
C30   H45   S    
C50   H55   S    
C17   C19   A    
C1    O1    A    
C41   H30   S    
C14   C21   S    
C20   C21   S    
C16   C18   A    
C49   C50   S    
C37   H16   S    
C21   H21   S    
C1    C27   S    
C9    N2    A    
C14   C15   A    
C32   H3    S    
