data_mof_unit_55716.cif
_audit_creation_date              2012-12-11T20:57:22-0500
_audit_creation_method            fapswitch 2.2
_symmetry_space_group_name_H-M    P1
_symmetry_Int_Tables_number       1
_space_group_crystal_system       triclinic
_cell_length_a                    8.302406
_cell_length_b                    18.812618
_cell_length_c                    22.921082
_cell_angle_alpha                 99.796617
_cell_angle_beta                  90.991359
_cell_angle_gamma                 91.429757
_cell_volume                      3525.89717303

loop_
_atom_site_label
_atom_site_type_symbol
_atom_type_description
_atom_site_fract_x
_atom_site_fract_y
_atom_site_fract_z
_atom_type_partial_charge
Ba1   Ba    Ba6+2 0.157800 0.534120 0.474430 1.672187
Ba2   Ba    Ba6+2 0.652390 0.465870 0.525520 1.669603
C1    C     C_3   0.321754 0.708613 0.264392 -0.264531
C2    C     C_3   0.372316 0.689125 0.323743 0.294374
C3    C     C_3   0.548396 0.693682 0.649616 0.335483
C4    C     C_3   0.644237 0.721814 0.707325 -0.267579
C5    C     C_3   0.860759 0.277198 0.643177 0.350535
C6    C     C_3   0.846286 0.203007 0.660823 -0.384636
C7    C     C_3   0.356099 0.269299 0.671532 0.309880
C8    C     C_3   0.385502 0.231194 0.723959 -0.371818
C9    C     C_R   0.990894 0.952459 0.530664 0.004434
C10   C     C_R   0.069946 0.904803 0.562365 -0.087750
C11   C     C_R   0.207547 0.047593 0.552517 -0.096409
C12   C     C_3   0.903241 0.726479 0.357118 0.312426
C13   C     C_R   0.053467 0.023480 0.528798 0.023171
C14   C     C_R   0.265685 0.117455 0.552035 -0.100637
C15   C     C_R   0.173472 0.166994 0.527926 -0.029916
C16   C     C_R   0.021761 0.143663 0.500833 0.024670
C17   C     C_R   0.962099 0.071488 0.500730 0.031274
C18   C     C_R   0.229102 0.239032 0.529312 0.030039
C19   C     C_R   0.132676 0.286684 0.504874 -0.227616
C20   C     C_R   0.984641 0.265268 0.477357 0.012072
C21   C     C_R   0.930876 0.192136 0.473011 -0.034808
C22   C     C_R   0.841681 0.928648 0.501748 0.030715
C23   C     C_3   0.910832 0.802249 0.341638 -0.234796
C24   C     C_R   0.783868 0.855958 0.500516 0.007759
C25   C     C_R   0.875655 0.807267 0.527580 -0.055155
C26   C     C_R   0.012577 0.834491 0.561240 -0.024947
C27   C     C_R   0.791350 0.165398 0.440649 0.003667
C28   C     C_R   0.732518 0.095533 0.440668 -0.076619
C29   C     C_R   0.812114 0.047868 0.472244 0.002561
C30   C     C_R   0.749649 0.976806 0.474127 0.019622
C31   C     C_R   0.595626 0.952516 0.450472 -0.101163
C32   C     C_R   0.633291 0.832235 0.472942 -0.034135
C33   C     C_R   0.539219 0.882143 0.449963 -0.091340
C34   C     C_3   0.815082 0.372898 0.341590 0.262125
C35   C     C_R   0.581350 0.759319 0.469478 0.017729
C36   C     C_R   0.681024 0.710728 0.491297 -0.289785
C37   C     C_R   0.825752 0.733347 0.521120 0.013251
C38   C     C_R   0.635357 0.526408 0.334010 -0.297665
C39   C     C_R   0.299683 0.552945 0.955457 -0.024848
C40   C     C_R   0.239709 0.548825 0.897055 0.564367
C41   C     C_R   0.318474 0.425315 0.872819 0.582774
C42   C     C_R   0.375372 0.426897 0.931547 -0.029294
C43   C     C_R   0.368532 0.491629 0.972666 -0.054649
C44   C     C_R   0.297095 0.617618 0.996436 -0.076575
C45   C     C_3   0.739071 0.347387 0.279433 -0.251897
C46   C     C_R   0.362986 0.621725 0.053324 -0.071539
C47   C     C_R   0.429920 0.560811 0.071378 -0.025126
C48   C     C_R   0.431656 0.495301 0.031155 -0.054958
C49   C     C_R   0.443270 0.366147 0.949718 -0.076570
C50   C     C_R   0.503226 0.369502 0.007612 -0.074996
C51   C     C_R   0.498073 0.433837 0.049023 -0.028035
C52   C     C_R   0.553697 0.438001 0.108317 0.574266
C53   C     C_R   0.492143 0.563626 0.129228 0.573054
C54   C     C_2   0.069712 0.467518 0.772369 -0.063530
C55   C     C_3   0.018128 0.481858 0.712098 -0.071372
C56   C     C_3   0.004504 0.633825 0.659247 0.317864
C57   C     C_1   0.301669 0.516842 0.697742 -0.032671
C58   C     C_2   0.341592 0.517951 0.755326 0.001461
C59   C     C_2   0.219489 0.487839 0.794145 0.250884
C60   C     C_R   0.714146 0.540719 0.235659 -0.096785
C61   C     C_R   0.746900 0.549979 0.296135 -0.021255
C62   C     C_R   0.497021 0.485998 0.311719 0.029287
C63   C     C_R   0.463182 0.474614 0.248772 -0.045177
C64   C     C_R   0.573595 0.504144 0.211206 0.236719
C65   C     C_2   0.165842 0.484523 0.673801 -0.267267
C66   C     C_3   0.064021 0.667040 0.721649 -0.373961
C67   C     C_3   0.264321 0.306110 0.363787 0.292475
C68   C     C_3   0.169466 0.274756 0.307285 -0.240257
H1    H     H_    0.302744 0.639889 0.329536 0.108843
H2    H     H_    0.611705 0.331145 0.282955 0.137524
H3    H     H_    0.741138 0.392524 0.254262 -0.009592
H4    H     H_    0.105875 0.608087 0.633993 0.034881
H5    H     H_    0.907368 0.593001 0.661854 -0.000683
H6    H     H_    0.159476 0.708727 0.719340 0.161318
H7    H     H_    0.112761 0.625678 0.745452 0.074206
H8    H     H_    0.964829 0.693297 0.748095 0.103151
H9    H     H_    0.186518 0.339292 0.395751 -0.036357
H10   H     H_    0.214870 0.743151 0.268981 0.162868
H11   H     H_    0.115551 0.319338 0.288835 0.032671
H12   H     H_    0.072731 0.236621 0.316378 0.150146
H13   H     H_    0.250368 0.245588 0.273756 0.130222
H14   H     H_    0.503124 0.677776 0.323433 -0.035560
H15   H     H_    0.288370 0.658828 0.232783 0.122837
H16   H     H_    0.625887 0.659792 0.617827 -0.021784
H17   H     H_    0.700009 0.675238 0.722591 0.089572
H18   H     H_    0.742958 0.759337 0.698542 0.095242
H19   H     H_    0.421315 0.738339 0.246475 0.128602
H20   H     H_    0.862668 0.841160 0.378589 0.010016
H21   H     H_    0.754001 0.285461 0.616059 0.117086
H22   H     H_    0.967672 0.277527 0.615335 0.040786
H23   H     H_    0.740719 0.200114 0.689431 0.149034
H24   H     H_    0.830720 0.161094 0.620541 0.078960
H25   H     H_    0.957071 0.192114 0.685313 0.110137
H26   H     H_    0.236274 0.250137 0.651850 0.023026
H27   H     H_    0.358282 0.328289 0.688377 0.116974
H28   H     H_    0.284915 0.241413 0.755322 0.134792
H29   H     H_    0.500032 0.251680 0.747337 0.149289
H30   H     H_    0.970440 0.728199 0.399738 0.077232
H31   H     H_    0.392385 0.172112 0.708502 0.102147
H32   H     H_    0.177264 0.341142 0.504967 0.060973
H33   H     H_    0.384821 0.131776 0.570681 0.103913
H34   H     H_    0.077474 0.801964 0.587524 0.161763
H35   H     H_    0.725078 0.197883 0.414515 0.122246
H36   H     H_    0.420463 0.867648 0.431052 0.119524
H37   H     H_    0.641295 0.654916 0.487724 0.078824
H38   H     H_    0.289003 0.013096 0.570838 0.071935
H39   H     H_    0.175892 0.920538 0.589740 0.082490
H40   H     H_    0.624996 0.080082 0.414130 0.096855
H41   H     H_    0.774895 0.710909 0.362748 -0.100788
H42   H     H_    0.513264 0.987106 0.432704 0.089656
H43   H     H_    0.553370 0.321391 0.019892 0.124459
H44   H     H_    0.450538 0.315716 0.919127 0.118643
H45   H     H_    0.359234 0.672656 0.083485 0.128826
H46   H     H_    0.799107 0.561667 0.207043 0.092554
H47   H     H_    0.246076 0.665679 0.984369 0.124049
H48   H     H_    0.981093 0.448001 0.800590 0.072516
H49   H     H_    0.663029 0.534851 0.381033 0.077647
H50   H     H_    0.038324 0.818516 0.335725 0.134904
H51   H     H_    0.726815 0.405883 0.369114 0.025016
H52   H     H_    0.924182 0.406854 0.337811 0.027915
N1    N     N_R   0.256263 0.486566 0.855993 -0.429714
N2    N     N_R   0.540693 0.501487 0.148441 -0.426498
O1    O     O_2   0.110690 0.676100 0.539200 -0.411238
O2    O     O_3   0.396085 0.345458 0.347764 -0.667443
O3    O     O_3   0.975236 0.677893 0.312227 -0.600730
O4    O     O_2   0.699610 0.323860 0.460780 -0.458790
O5    O     O_3   0.947090 0.413280 0.465240 -0.498700
O6    O     O_3   0.442000 0.370930 0.567190 -0.440542
O7    O     O_3   0.857468 0.313122 0.366863 -0.631585
O8    O     O_3   0.359410 0.538600 0.570730 -0.473205
O9    O     O_3   0.850780 0.407910 0.598320 -0.486020
O10   O     O_2   0.681438 0.436944 0.696104 -0.484116
O11   O     O_3   0.876355 0.330345 0.694371 -0.586632
O12   O     O_3   0.863220 0.586720 0.534720 -0.497641
O13   O     O_3   0.450900 0.461390 0.429220 -0.464479
O14   O     O_2   0.599830 0.538970 0.641850 -0.481122
O15   O     O_3   0.407626 0.656678 0.662737 -0.637178
O16   O     O_2   0.562317 0.244240 0.522186 -0.511365
O17   O     O_3   0.479688 0.252863 0.630912 -0.619441
O18   O     O_2   0.176361 0.601142 0.882200 -0.613131
O19   O     O_2   0.327458 0.370128 0.836369 -0.608762
O20   O     O_2   0.611429 0.385247 0.124401 -0.606082
O21   O     O_2   0.501951 0.621363 0.162836 -0.615627
O22   O     O_3   0.368310 0.629070 0.432760 -0.487854
O23   O     O_2   0.247739 0.755982 0.477384 -0.454613
O24   O     O_3   0.942812 0.688994 0.632795 -0.652711
O25   O     O_3   0.338350 0.746760 0.368793 -0.622620
O26   O     O_2   0.210480 0.460990 0.358130 -0.479392
O27   O     O_3   0.959520 0.592090 0.401630 -0.479387
O28   O     O_2   0.082815 0.547018 0.297883 -0.507010
P1    P     P_3+3 0.935930 0.665430 0.555670 0.984074
P2    P     P_3+3 0.382700 0.439650 0.365620 0.974601
P3    P     P_3+3 0.940448 0.590347 0.326102 0.940335
P4    P     P_3+3 0.874370 0.334570 0.444280 0.981261
P5    P     P_3+3 0.853370 0.416541 0.675788 1.007666
P6    P     P_3+3 0.384224 0.722847 0.437574 0.966094
P7    P     P_3+3 0.418396 0.562255 0.645172 0.934287
P8    P     P_3+3 0.426026 0.276458 0.562412 0.978772
C69   C     C_2   0.820485 0.284744 0.243738 0.600987
H53   H     H_    0.917165 0.293831 0.214539 -0.038879
O29   O     O_2   0.778125 0.223007 0.247171 -0.540699
C70   C     C_2   0.331435 0.246670 0.392566 0.429538
H54   H     H_    0.421395 0.260507 0.427447 0.042728
O30   O     O_2   0.288344 0.183507 0.377549 -0.596620
C71   C     C_2   0.503098 0.756653 0.620731 0.493684
H55   H     H_    0.596592 0.792592 0.608925 -0.106696
O31   O     O_2   0.362458 0.768631 0.610885 -0.568272
C72   C     C_3   0.539876 0.760938 0.756918 -0.189229
C73   C     C_3   0.642326 0.788641 0.812776 -0.224500
C74   C     C_3   0.537675 0.822075 0.863737 -0.403575
H56   H     H_    0.471115 0.868063 0.851481 0.137845
H57   H     H_    0.450154 0.781121 0.875017 0.145497
H58   H     H_    0.615132 0.842193 0.903374 0.140184
H59   H     H_    0.708629 0.743421 0.826458 0.127298
H60   H     H_    0.731926 0.829902 0.803370 0.130799
H61   H     H_    0.481178 0.807302 0.741825 0.121968
H62   H     H_    0.444157 0.723288 0.767756 0.138115
C75   C     C_3   0.479863 0.566932 0.785352 -0.182490
C76   C     C_3   0.597905 0.530400 0.822744 -0.200669
C77   C     C_3   0.757236 0.573316 0.834029 -0.399591
H63   H     H_    0.816642 0.577182 0.791619 0.120715
H64   H     H_    0.735873 0.628456 0.858205 0.139659
H65   H     H_    0.838785 0.546256 0.861696 0.151015
H66   H     H_    0.548280 0.527978 0.866715 0.105697
H67   H     H_    0.621182 0.474504 0.800964 0.167326
H68   H     H_    0.551738 0.588483 0.752221 0.104668
H69   H     H_    0.428700 0.614447 0.813663 0.117250
C78   C     C_3   0.320408 0.427312 0.220995 -0.173296
C79   C     C_3   0.206166 0.464728 0.182558 -0.182677
C80   C     C_3   0.037326 0.430221 0.177459 -0.378993
H70   H     H_    0.042210 0.372822 0.155967 0.135629
H71   H     H_    0.984756 0.433568 0.221876 0.128388
H72   H     H_    0.958737 0.458845 0.149934 0.137986
H73   H     H_    0.199703 0.523201 0.200243 0.156210
H74   H     H_    0.249836 0.459292 0.136822 0.098074
H75   H     H_    0.366246 0.377875 0.193595 0.127693
H76   H     H_    0.249226 0.408101 0.255362 0.118558
C81   C     C_2   0.170870 0.433467 0.618609 0.513041
H77   H     H_    0.161857 0.450651 0.576102 0.036364
O32   O     O_2   0.167270 0.369712 0.620835 -0.680514
C82   C     C_2   0.812179 0.805491 0.286833 0.584631
H78   H     H_    0.683100 0.794945 0.286463 -0.022855
O33   O     O_2   0.875870 0.820219 0.242635 -0.545624

loop_
_geom_bond_atom_site_label_1
_geom_bond_atom_site_label_2
_ccdc_geom_bond_type
C49   H44   S    
C52   O20   D    
C82   H78   S    
C78   C79   S    
O11   P5    S    
C78   H76   S    
C1    H15   S    
C32   C35   A    
C39   C40   A    
C41   O19   D    
C67   C70   S    
C73   C74   S    
Ba1   O8    S    
C17   C29   A    
C15   C18   A    
C69   H53   S    
C76   H67   S    
C5    C6    S    
C71   O31   D    
C20   P4    S    
C51   C52   A    
C50   C51   A    
C13   C17   A    
C2    O25   S    
C82   O33   D    
C78   H75   S    
C23   H20   S    
C48   C51   A    
C38   C61   A    
C10   C26   A    
C21   C27   A    
C70   H54   S    
C35   C36   A    
C22   C24   A    
Ba1   Ba2   S    
Ba1   O5    S    
C75   H69   S    
C3    C4    S    
C56   O24   S    
C53   O21   D    
C72   C73   S    
C62   P2    S    
C9    C22   A    
Ba2   O5    S    
C4    H18   S    
C54   C55   S    
C34   C45   S    
O6    P8    S    
C32   C33   A    
C36   H37   S    
C8    H28   S    
C68   H11   S    
C77   H63   S    
C55   P5    S    
C75   H68   S    
C57   C65   D    
C79   H73   S    
C57   P7    S    
O14   P7    D    
C24   C32   A    
O25   P6    S    
C25   C37   A    
C14   C15   A    
O4    P4    D    
C74   H57   S    
C40   O18   D    
Ba2   O8    S    
C39   C44   A    
C80   H70   S    
O27   P3    S    
Ba1   O12   S    
C7    C8    S    
C74   H58   S    
Ba2   P4    S    
O15   P7    S    
C57   C58   D    
C19   C20   A    
Ba2   O13   S    
C27   H35   S    
Ba1   O22   S    
C8    H29   S    
C6    H25   S    
C9    C13   A    
C55   C65   S    
C11   H38   S    
C1    H10   S    
C10   H39   S    
C69   O29   D    
O1    P1    D    
C40   N1    Am   
C3    O15   S    
C77   H64   S    
C66   H8    S    
C12   H41   S    
C44   C46   A    
O8    P7    S    
C60   C64   A    
C49   C50   A    
Ba2   O9    S    
C80   H72   S    
C6    H24   S    
C45   H3    S    
C65   C81   S    
C34   O7    S    
O3    P3    S    
C71   H55   S    
C7    O17   S    
C16   C17   A    
C76   C77   S    
Ba2   O12   S    
C4    H17   S    
C79   C80   S    
C44   H47   S    
C58   C59   S    
C77   H65   S    
Ba2   O14   S    
C35   P6    S    
C34   H52   S    
C41   C42   A    
C22   C30   A    
C5    O11   S    
C60   C61   A    
C26   H34   S    
O17   P8    S    
C29   C30   A    
C2    H14   S    
O28   P3    D    
C28   C29   A    
C76   H66   S    
C5    H21   S    
C38   H49   S    
C15   C16   A    
C24   C25   A    
Ba1   O26   S    
C31   H42   S    
C63   C78   S    
Ba1   P1    S    
C68   H13   S    
C7    H26   S    
C46   H45   S    
C3    H16   S    
O2    P2    S    
C42   C49   A    
C56   C66   S    
C46   C47   A    
C37   P1    S    
C67   O2    S    
C47   C48   A    
C11   C13   A    
O26   P2    D    
C14   H33   S    
C64   N2    S    
C67   H9    S    
C66   H6    S    
O24   P1    S    
C19   H32   S    
C1    C2    S    
C23   H50   S    
C41   N1    Am   
Ba2   O6    S    
Ba1   O13   S    
C42   C43   A    
C56   H4    S    
C4    C72   S    
C66   H7    S    
C52   N2    Am   
C53   N2    Am   
O7    P4    S    
C7    H27   S    
C54   C59   D    
C28   H40   S    
C54   H48   S    
C8    H31   S    
C6    H23   S    
C79   H74   S    
Ba1   O1    S    
C23   C82   S    
O5    P4    S    
C9    C10   A    
C12   H30   S    
O22   P6    S    
C58   C75   S    
C73   H59   S    
C38   C62   A    
C59   N1    S    
C72   H62   S    
C1    H19   S    
C30   C31   A    
C70   O30   D    
C34   H51   S    
C61   P3    S    
C33   H36   S    
C47   C53   A    
C62   C63   A    
O12   P1    S    
C36   C37   A    
C43   C48   A    
C81   H77   S    
C16   C21   A    
C50   H43   S    
C5    H22   S    
C31   C33   A    
O13   P2    S    
Ba1   O27   S    
O9    P5    S    
C3    C71   S    
C12   C23   S    
Ba1   P2    S    
C68   H12   S    
C67   C68   S    
C45   H2    S    
C60   H46   S    
C12   O3    S    
C27   C28   A    
C74   H56   S    
C45   C69   S    
O10   P5    D    
C18   C19   A    
C81   O32   D    
C63   C64   A    
C18   P8    S    
C11   C14   A    
C25   C26   A    
C39   C43   A    
C20   C21   A    
C73   H60   S    
O23   P6    D    
C2    H1    S    
O16   P8    D    
C75   C76   S    
C80   H71   S    
C56   H5    S    
C72   H61   S    
Ba2   O4    S    
