data_mof_unit_26884.cif
_audit_creation_date              2013-03-05T15:39:44-0500
_audit_creation_method            fapswitch 2.2
_symmetry_space_group_name_H-M    P1
_symmetry_Int_Tables_number       1
_space_group_crystal_system       triclinic
_cell_length_a                    19.839492
_cell_length_b                    17.292403
_cell_length_c                    15.489884
_cell_angle_alpha                 89.999607
_cell_angle_beta                  52.422845
_cell_angle_gamma                 89.998559
_cell_volume                      4211.64093239

loop_
_atom_site_label
_atom_site_type_symbol
_atom_site_description
_atom_site_fract_x
_atom_site_fract_y
_atom_site_fract_z
_atom_type_partial_charge
C1    C     C_R   0.370802 0.195026 0.001084 -0.090933
C2    C     C_R   0.627284 0.804132 0.003007 -0.111176
C3    C     C_R   0.629202 0.195022 0.998907 -0.091075
C4    C     C_R   0.372715 0.804135 0.996999 -0.111218
C5    C     C_R   0.841404 0.676873 0.045670 -0.086973
C6    C     C_R   0.151542 0.316891 0.969278 -0.102558
C7    C     C_R   0.158584 0.676882 0.954351 -0.087129
C8    C     C_R   0.848480 0.316878 0.030687 -0.102607
H1    H     H_    0.376245 0.248752 0.031896 0.084310
H2    H     H_    0.620485 0.749524 0.975274 0.091934
H3    H     H_    0.623757 0.248749 0.968099 0.084306
H4    H     H_    0.379514 0.749526 0.024732 0.091976
H5    H     H_    0.832091 0.726102 0.094484 0.090878
H6    H     H_    0.153970 0.261261 0.936364 0.091698
H7    H     H_    0.167891 0.726119 0.905553 0.090838
H8    H     H_    0.846064 0.261244 0.063586 0.091744
N1    N     N_R   0.408680 0.130810 0.995780 -0.046962
N2    N     N_R   0.591320 0.869190 0.004220 -0.044537
N3    N     N_R   0.591320 0.130810 0.004220 -0.046967
N4    N     N_R   0.408680 0.869190 0.995780 -0.044533
N5    N     N_R   0.908680 0.630810 0.995780 -0.051524
N6    N     N_R   0.091320 0.369190 0.004220 -0.046319
N7    N     N_R   0.091320 0.630810 0.004220 -0.051514
N8    N     N_R   0.908680 0.369190 0.995780 -0.046311
C9    C     C_R   0.350009 0.827258 0.220654 -0.104846
C10   C     C_R   0.610695 0.196685 0.787188 -0.089337
C11   C     C_R   0.649982 0.827243 0.779347 -0.104684
C12   C     C_R   0.389384 0.196712 0.212766 -0.089113
C13   C     C_R   0.853432 0.323927 0.222750 -0.110107
C14   C     C_R   0.108906 0.697095 0.787003 -0.104277
C15   C     C_R   0.146537 0.323894 0.777246 -0.109978
C16   C     C_R   0.891162 0.697118 0.212955 -0.104050
H9    H     H_    0.331695 0.776404 0.199142 0.102267
H10   H     H_    0.614822 0.252054 0.816102 0.091180
H11   H     H_    0.668296 0.776395 0.800870 0.102175
H12   H     H_    0.385267 0.252078 0.183839 0.091096
H13   H     H_    0.839194 0.268974 0.204763 0.100212
H14   H     H_    0.110817 0.753211 0.816182 0.094061
H15   H     H_    0.160764 0.268940 0.795246 0.100129
H16   H     H_    0.889260 0.753230 0.183760 0.093933
N9    N     N_R   0.421410 0.867210 0.153620 -0.049851
N10   N     N_R   0.578590 0.132790 0.846380 -0.045555
N11   N     N_R   0.578590 0.867210 0.846380 -0.049842
N12   N     N_R   0.421410 0.132790 0.153620 -0.045527
N13   N     N_R   0.921410 0.367210 0.153620 -0.048075
N14   N     N_R   0.078590 0.632790 0.846380 -0.044950
N15   N     N_R   0.078590 0.367210 0.846380 -0.048074
N16   N     N_R   0.921410 0.632790 0.153620 -0.044933
C17   C     C_R   0.363120 0.891426 0.900098 -0.127096
C18   C     C_R   0.637617 0.108778 0.098602 -0.138319
C19   C     C_R   0.636877 0.891424 0.099907 -0.127061
C20   C     C_R   0.362393 0.108784 0.901385 -0.138349
C21   C     C_R   0.837536 0.406670 0.937123 -0.134215
C22   C     C_R   0.166734 0.591046 0.054889 -0.145159
C23   C     C_R   0.162483 0.406683 0.062843 -0.134197
C24   C     C_R   0.833256 0.591038 0.945132 -0.145184
H17   H     H_    0.357896 0.918049 0.841185 0.099256
H18   H     H_    0.643118 0.082880 0.157648 0.099340
H19   H     H_    0.642097 0.918047 0.158822 0.099275
H20   H     H_    0.356899 0.082887 0.842332 0.099316
H21   H     H_    0.821285 0.435917 0.890562 0.097108
H22   H     H_    0.184514 0.562275 0.100062 0.099407
H23   H     H_    0.178742 0.435932 0.109393 0.097148
H24   H     H_    0.815469 0.562263 0.899969 0.099374
N17   N     N_R   0.403840 0.921910 0.935760 -0.042295
N18   N     N_R   0.596160 0.078090 0.064240 -0.043738
N19   N     N_R   0.596160 0.921910 0.064240 -0.042302
N20   N     N_R   0.403840 0.078090 0.935760 -0.043728
N21   N     N_R   0.903840 0.421910 0.935760 -0.045182
N22   N     N_R   0.096160 0.578090 0.064240 -0.047697
N23   N     N_R   0.096160 0.421910 0.064240 -0.045194
N24   N     N_R   0.903840 0.578090 0.935760 -0.047696
C25   C     C_R   0.399255 0.106425 0.308468 -0.090522
C26   C     C_R   0.642978 0.919737 0.683143 -0.105321
C27   C     C_R   0.600811 0.106398 0.691493 -0.090601
C28   C     C_R   0.357016 0.919750 0.316854 -0.105266
C29   C     C_R   0.899560 0.606147 0.308654 -0.083744
C30   C     C_R   0.141464 0.418829 0.682553 -0.101556
C31   C     C_R   0.100488 0.606125 0.691318 -0.083727
C32   C     C_R   0.858511 0.418857 0.317439 -0.101548
H25   H     H_    0.403947 0.079415 0.367611 0.098582
H26   H     H_    0.655097 0.953934 0.616592 0.131205
H27   H     H_    0.596116 0.079395 0.632350 0.098677
H28   H     H_    0.344900 0.953947 0.383404 0.131085
H29   H     H_    0.904315 0.578678 0.367489 0.098535
H30   H     H_    0.153381 0.453426 0.616425 0.129589
H31   H     H_    0.095729 0.578660 0.632485 0.098670
H32   H     H_    0.846591 0.453455 0.383566 0.129433
N25   N     N_R   0.426250 0.076100 0.213650 -0.045069
N26   N     N_R   0.573750 0.923900 0.786350 -0.055511
N27   N     N_R   0.573750 0.076100 0.786350 -0.045109
N28   N     N_R   0.426250 0.923900 0.213650 -0.055524
N29   N     N_R   0.926250 0.576100 0.213650 -0.045058
N30   N     N_R   0.073750 0.423900 0.786350 -0.054756
N31   N     N_R   0.073750 0.576100 0.786350 -0.045094
N32   N     N_R   0.926250 0.423900 0.213650 -0.054754
C33   C     C_R   0.341610 0.182917 0.941447 0.148907
C34   C     C_R   0.656500 0.816548 0.062735 0.143495
C35   C     C_R   0.658405 0.182908 0.058530 0.148985
C36   C     C_R   0.343494 0.816552 0.937276 0.143525
C37   C     C_R   0.791669 0.651996 0.016617 0.157239
C38   C     C_R   0.200649 0.342650 0.998525 0.159100
C39   C     C_R   0.208315 0.652008 0.983414 0.157240
C40   C     C_R   0.799383 0.342629 0.001420 0.159119
C41   C     C_R   0.308696 0.859468 0.322748 0.140986
C42   C     C_R   0.624339 0.180989 0.691091 0.109057
C43   C     C_R   0.691289 0.859441 0.677249 0.140831
C44   C     C_R   0.375794 0.181037 0.308831 0.108866
C45   C     C_R   0.811926 0.357019 0.324027 0.137555
C46   C     C_R   0.123129 0.681121 0.690446 0.111388
C47   C     C_R   0.188025 0.356969 0.675965 0.137487
C48   C     C_R   0.876982 0.681163 0.309487 0.111297
Ni1   Ni    Ni4+2 0.500000 0.131570 0.000000 0.221664
Ni2   Ni    Ni4+2 0.500000 0.868430 0.000000 0.231016
Ni3   Ni    Ni4+2 0.000000 0.631570 0.000000 0.224365
Ni4   Ni    Ni4+2 1.000000 0.368430 0.000000 0.239198
Ni5   Ni    Ni4+2 0.488900 0.000000 0.862310 0.221336
Ni6   Ni    Ni4+2 0.511100 0.000000 0.137690 0.221334
Ni7   Ni    Ni4+2 0.988900 0.500000 0.862310 0.224348
Ni8   Ni    Ni4+2 0.011100 0.500000 0.137690 0.224341
C49   C     C_3   0.254463 0.208324 0.506748 0.432853
C50   C     C_3   0.835214 0.841527 0.470531 0.435246
C51   C     C_3   0.745521 0.208244 0.493034 0.432838
C52   C     C_3   0.164992 0.841620 0.529633 0.435117
C53   C     C_3   0.756294 0.709798 0.508504 0.430795
C54   C     C_3   0.331542 0.340978 0.470053 0.434678
C55   C     C_3   0.243635 0.709655 0.491251 0.430776
C56   C     C_3   0.668566 0.341030 0.530081 0.434562
C57   C     C_3   0.718064 0.788311 0.516592 -0.285621
C58   C     C_3   0.371814 0.261825 0.459884 -0.282088
C59   C     C_3   0.282133 0.788034 0.483064 -0.285681
C60   C     C_3   0.628144 0.261959 0.540299 -0.281774
C61   C     C_3   0.215218 0.286304 0.515093 -0.281398
C62   C     C_3   0.874476 0.761776 0.460653 -0.282443
C63   C     C_3   0.784920 0.286144 0.484635 -0.281439
C64   C     C_3   0.125461 0.762009 0.539599 -0.281980
H33   H     H_    0.653132 0.797780 0.541100 0.167700
H34   H     H_    0.437177 0.252097 0.433648 0.163151
H35   H     H_    0.347168 0.797300 0.458302 0.167814
H36   H     H_    0.562711 0.252350 0.566725 0.163201
H37   H     H_    0.150182 0.295169 0.539691 0.169346
H38   H     H_    0.939720 0.751335 0.434462 0.164271
H39   H     H_    0.850027 0.294888 0.459848 0.169401
H40   H     H_    0.060116 0.751776 0.566038 0.164358
C65   C     C_3   0.752047 0.817390 0.577822 -0.020255
C66   C     C_3   0.337326 0.232857 0.399540 -0.031267
C67   C     C_3   0.247970 0.817402 0.422164 -0.020490
C68   C     C_3   0.662790 0.232808 0.600382 -0.031145
C69   C     C_3   0.248583 0.315810 0.576673 -0.021797
C70   C     C_3   0.839368 0.733331 0.400691 -0.030908
C71   C     C_3   0.751397 0.315840 0.423314 -0.021904
C72   C     C_3   0.160748 0.733279 0.599233 -0.030717
C73   C     C_3   0.286825 0.236215 0.569203 -0.271240
C74   C     C_3   0.802602 0.813608 0.407664 -0.258798
C75   C     C_3   0.713003 0.236321 0.430830 -0.271251
C76   C     C_3   0.197790 0.813419 0.592167 -0.258981
C77   C     C_3   0.789209 0.737190 0.570588 -0.268760
C78   C     C_3   0.299584 0.312569 0.406668 -0.259836
C79   C     C_3   0.210539 0.737333 0.429482 -0.268797
C80   C     C_3   0.700687 0.312439 0.593203 -0.260020
H41   H     H_    0.281013 0.204832 0.635971 0.158813
H42   H     H_    0.809193 0.845156 0.340473 0.167854
H43   H     H_    0.718635 0.205048 0.364115 0.158800
H44   H     H_    0.191478 0.844839 0.659252 0.167693
H45   H     H_    0.783002 0.705732 0.637576 0.161379
H46   H     H_    0.306175 0.343973 0.339388 0.167405
H47   H     H_    0.216488 0.706023 0.362574 0.161389
H48   H     H_    0.694291 0.343751 0.660410 0.167268
C81   C     C_2   0.280233 0.692114 0.963179 -0.158696
C82   C     C_2   0.729596 0.302753 0.018311 -0.161515
C83   C     C_2   0.719743 0.692101 0.036863 -0.158723
C84   C     C_2   0.270455 0.302784 0.981608 -0.161374
C85   C     C_2   0.699650 0.239171 0.079150 -0.188870
C86   C     C_2   0.303580 0.760499 0.912957 -0.173415
C87   C     C_2   0.300384 0.239185 0.920800 -0.188866
C88   C     C_2   0.696407 0.760493 0.087066 -0.173390
H49   H     H_    0.303225 0.671192 0.006880 0.126288
H50   H     H_    0.711848 0.320676 0.967646 0.125084
H51   H     H_    0.696743 0.671174 0.993175 0.126258
H52   H     H_    0.288222 0.320720 0.032248 0.125091
H53   H     H_    0.716234 0.222758 0.131691 0.127905
H54   H     H_    0.282045 0.780796 0.867306 0.129822
H55   H     H_    0.283787 0.222761 0.868276 0.127906
H56   H     H_    0.717949 0.780795 0.132707 0.129866
N33   N     N_R   0.212127 0.134484 0.525677 0.237931
O1    O     O_R   0.202448 0.086336 0.596941 -0.378479
O2    O     O_R   0.184318 0.116302 0.470982 -0.330256
N34   N     N_R   0.878277 0.914537 0.453084 0.251738
O3    O     O_R   0.903056 0.957333 0.369493 -0.317879
O4    O     O_R   0.898203 0.934077 0.516015 -0.314737
N35   N     N_R   0.787785 0.134329 0.473918 0.237927
O5    O     O_R   0.797245 0.086263 0.402712 -0.379014
O6    O     O_R   0.815734 0.115991 0.528407 -0.330098
N36   N     N_R   0.122043 0.914757 0.547386 0.251926
O7    O     O_R   0.096750 0.957008 0.631635 -0.318578
O8    O     O_R   0.102369 0.934769 0.484334 -0.313944
N37   N     N_R   0.712677 0.636588 0.528478 0.237781
O9    O     O_R   0.701970 0.588717 0.600635 -0.377095
O10   O     O_R   0.684448 0.618812 0.474149 -0.332749
N38   N     N_R   0.373315 0.414586 0.453706 0.250823
O11   O     O_R   0.398445 0.457246 0.369873 -0.320856
O12   O     O_R   0.392209 0.434641 0.517545 -0.319362
N39   N     N_R   0.287092 0.636311 0.471072 0.237750
O13   O     O_R   0.297421 0.588518 0.399073 -0.377863
O14   O     O_R   0.315510 0.618316 0.525119 -0.332419
N40   N     N_R   0.626820 0.414701 0.546681 0.250891
O15   O     O_R   0.601464 0.457051 0.630855 -0.321340
O16   O     O_R   0.607948 0.435001 0.482895 -0.318890

loop_
_geom_bond_atom_site_label_1
_geom_bond_atom_site_label_2
_geom_bond_distance
_ccdc_geom_bond_type
N36   O8    1.300349 A    
N39   O13   1.300025 A    
C28   C41   1.381058 A    
C33   C87   1.427242 S    
C2    N2    1.326150 A    
C16   N16   1.330236 A    
N9    Ni2   1.889088 S    
N5    Ni3   1.852378 S    
C67   C79   1.542340 S    
C30   H30   1.080563 S    
C10   C42   1.367944 A    
C31   H31   1.081627 S    
N1    Ni1   1.852378 S    
C51   C75   1.529226 S    
C80   H48   1.109924 S    
N39   O14   1.300482 A    
C23   C38   1.368165 A    
C56   C80   1.538338 S    
C18   C35   1.373463 A    
C17   N17   1.334167 A    
N23   Ni8   1.903659 S    
C14   C46   1.370463 A    
C13   C45   1.375136 A    
C59   C76   1.549091 S    
C45   C71   1.435931 S    
C30   N30   1.327812 A    
C24   C37   1.379742 A    
N10   N27   1.394195 A    
C46   C72   1.442438 S    
N11   Ni2   1.889087 S    
C57   C74   1.549117 S    
C43   C65   1.445491 S    
C54   C69   1.520063 S    
C53   C77   1.530229 S    
N33   O2    1.300431 A    
C58   C66   1.540397 S    
C54   C58   1.543718 S    
C21   C40   1.368151 A    
C6    N6    1.322714 A    
C3    C35   1.372993 A    
C56   C60   1.543697 S    
C20   C33   1.373463 A    
C60   C75   1.557027 S    
C17   H17   1.082022 S    
C14   H14   1.080861 S    
N3    N18   1.346680 A    
N34   O4    1.300263 A    
C61   C78   1.549176 S    
C68   C80   1.540098 S    
C50   C65   1.521251 S    
C81   H49   1.083401 S    
N37   O10   1.300445 A    
N28   Ni6   1.879960 S    
C50   C62   1.544872 S    
C69   C73   1.541544 S    
C20   H20   1.081992 S    
C26   C43   1.381076 A    
C64   C79   1.558526 S    
C21   H21   1.078647 S    
C10   H10   1.081072 S    
N14   N31   1.394196 A    
C72   C76   1.540940 S    
N22   Ni8   1.903707 S    
N38   O11   1.299774 A    
C24   N24   1.335758 A    
C23   H23   1.078643 S    
C32   C45   1.375890 A    
C81   C86   1.333648 D    
C24   H24   1.078247 S    
C3    N3    1.314983 A    
C30   C47   1.375866 A    
N29   Ni8   1.879911 S    
C71   C75   1.541581 S    
C4    H4    1.079410 S    
C5    H5    1.077113 S    
C20   N20   1.332437 A    
C84   C87   1.329333 D    
C27   N27   1.326466 A    
N31   Ni7   1.879958 S    
C84   H52   1.083038 S    
C19   C34   1.373370 A    
N6    Ni4   1.852376 S    
N36   O7    1.299974 A    
C62   C70   1.542359 S    
C29   H29   1.081628 S    
C8    H8    1.075979 S    
C7    C39   1.379415 A    
C50   C74   1.538984 S    
N7    N22   1.346680 A    
C86   H54   1.083632 S    
C56   N40   1.454373 S    
C4    N4    1.326137 A    
C26   H26   1.080680 S    
C47   C69   1.435891 S    
C25   H25   1.081715 S    
C64   C72   1.542382 S    
C14   N14   1.330230 A    
N8    N21   1.346682 A    
C19   H19   1.082024 S    
C44   C66   1.432394 S    
C54   C78   1.538372 S    
C38   C84   1.421004 S    
N15   Ni4   1.889087 S    
C52   C67   1.521253 S    
C5    C37   1.379425 A    
C28   H28   1.080687 S    
N11   N26   1.394184 A    
N16   N29   1.394181 A    
C52   C64   1.544845 S    
N5    N24   1.346694 A    
C9    C41   1.379136 A    
N35   O5    1.300052 A    
C18   H18   1.081991 S    
N26   Ni5   1.879911 S    
C22   C39   1.379733 A    
C61   C69   1.542241 S    
C77   H45   1.109923 S    
C35   C85   1.427217 S    
C59   H35   1.110839 S    
N40   O15   1.299777 A    
C25   C44   1.370457 A    
C7    H7    1.077106 S    
C22   H22   1.078248 S    
C75   H43   1.109971 S    
N2    N19   1.346692 A    
C70   C74   1.540996 S    
C49   N33   1.456543 S    
C12   N12   1.324728 A    
C13   N13   1.328302 A    
N34   O3    1.299812 A    
C5    N5    1.324790 A    
C60   C68   1.540421 S    
C29   C48   1.369860 A    
N35   O6    1.300457 A    
C31   N31   1.328708 A    
C53   C57   1.522592 S    
N20   Ni5   1.903659 S    
C62   H38   1.110035 S    
C65   C77   1.542304 S    
N30   Ni7   1.879912 S    
N4    N17   1.346682 A    
C56   C71   1.520073 S    
C50   N34   1.454423 S    
C22   N22   1.335757 A    
C11   C43   1.379118 A    
N9    N28   1.394193 A    
N27   Ni5   1.879959 S    
C42   C68   1.432420 S    
C1    H1    1.079557 S    
C19   N19   1.334167 A    
N25   Ni6   1.879911 S    
C51   N35   1.456559 S    
C59   C67   1.544968 S    
C8    C40   1.375178 A    
C76   H44   1.109932 S    
C49   C73   1.529156 S    
C28   N28   1.330143 A    
N16   Ni3   1.889087 S    
N14   Ni3   1.889088 S    
N38   O12   1.300268 A    
C21   N21   1.329066 A    
C82   H50   1.083035 S    
N12   Ni1   1.889087 S    
N8    Ni4   1.852377 S    
C4    C36   1.375539 A    
C36   C86   1.439568 S    
C13   H13   1.075367 S    
C48   C70   1.442447 S    
C32   N32   1.327841 A    
C1    C33   1.373003 A    
C58   H34   1.110093 S    
C55   C79   1.530316 S    
N6    N23   1.346692 A    
C27   H27   1.081714 S    
C16   H16   1.080861 S    
N2    Ni2   1.852376 S    
C78   H46   1.109902 S    
C39   C81   1.438633 S    
C40   C82   1.420962 S    
C54   N38   1.454379 S    
C88   H56   1.083630 S    
C2    C34   1.375543 A    
N1    N20   1.346694 A    
C15   C47   1.375106 A    
C63   C80   1.549159 S    
C16   C48   1.370405 A    
C31   C46   1.369835 A    
C34   C88   1.439575 S    
C87   H55   1.085241 S    
C61   H37   1.110805 S    
N32   Ni8   1.879961 S    
C74   H42   1.109921 S    
C18   N18   1.332438 A    
N3    Ni1   1.852375 S    
C66   C78   1.540135 S    
N10   Ni1   1.889088 S    
C60   H36   1.110087 S    
C83   C88   1.333648 D    
C1    N1    1.315005 A    
C11   H11   1.078906 S    
C79   H47   1.109948 S    
C83   H51   1.083401 S    
C52   C76   1.538903 S    
C25   N25   1.326487 A    
C6    H6    1.075968 S    
C64   H40   1.110032 S    
C55   C72   1.521181 S    
C17   C36   1.373375 A    
N4    Ni2   1.852377 S    
N13   Ni4   1.889088 S    
C26   N26   1.330144 A    
N33   O1    1.300038 A    
C7    N7    1.324785 A    
C51   C63   1.522678 S    
C41   C67   1.445431 S    
C12   C44   1.367876 A    
C63   C71   1.542305 S    
N24   Ni7   1.903659 S    
C29   N29   1.328743 A    
C63   H39   1.110799 S    
C8    N8    1.322703 A    
N15   N30   1.394183 A    
N21   Ni7   1.903709 S    
C37   C83   1.438648 S    
C58   C73   1.556996 S    
N40   O16   1.300311 A    
C57   C65   1.544940 S    
C6    C38   1.375190 A    
C10   N10   1.324734 A    
C85   H53   1.085242 S    
N37   O9    1.300028 A    
N19   Ni6   1.903659 S    
C55   C59   1.522624 S    
C3    H3    1.079557 S    
C53   C70   1.521161 S    
N7    Ni3   1.852375 S    
C53   N37   1.456288 S    
C11   N11   1.329725 A    
C62   C77   1.558475 S    
C57   H33   1.110849 S    
C51   C68   1.520067 S    
C12   H12   1.081069 S    
C27   C42   1.370443 A    
C32   H32   1.080565 S    
C9    N9    1.329729 A    
N18   Ni6   1.903707 S    
C52   N36   1.454425 S    
C15   H15   1.075358 S    
N17   Ni5   1.903709 S    
C49   C66   1.520076 S    
C15   N15   1.328280 A    
C49   C61   1.522663 S    
N13   N32   1.394192 A    
C55   N39   1.456331 S    
C73   H41   1.109946 S    
C23   N23   1.329081 A    
N12   N25   1.394181 A    
C9    H9    1.078911 S    
C82   C85   1.329329 D    
C2    H2    1.079411 S    
