data_mof_unit_10795.cif
_audit_creation_date              2012-12-10T20:31:57-0500
_audit_creation_method            fapswitch 2.2
_symmetry_space_group_name_H-M    P1
_symmetry_Int_Tables_number       1
_space_group_crystal_system       triclinic
_cell_length_a                    9.876918
_cell_length_b                    10.586819
_cell_length_c                    15.555455
_cell_angle_alpha                 90.20774
_cell_angle_beta                  66.994368
_cell_angle_gamma                 89.702445
_cell_volume                      1497.14395287

loop_
_atom_site_label
_atom_site_type_symbol
_atom_type_description
_atom_site_fract_x
_atom_site_fract_y
_atom_site_fract_z
_atom_type_partial_charge
C1    C     C_R   0.499948 0.739504 0.499847 0.894420
C2    C     C_R   0.419704 0.468774 0.909575 0.101087
C3    C     C_R   0.282206 0.412347 0.961146 0.166985
C4    C     C_R   0.528555 0.476796 0.947476 0.052154
C5    C     C_R   0.490525 0.445749 0.042540 0.062791
C6    C     C_R   0.351383 0.390467 0.092852 -0.210529
C7    C     C_R   0.250229 0.372661 0.052091 -0.202263
C8    C     C_R   0.675737 0.510168 0.892254 -0.196343
C9    C     C_R   0.778589 0.525103 0.931549 -0.209878
C10   C     C_R   0.737743 0.510357 0.027081 0.137877
C11   C     C_R   0.593826 0.470382 0.083413 0.100909
C12   C     C_R   0.407488 0.500036 0.676093 0.861796
C13   C     C_R   0.839703 0.536263 0.066755 -0.267644
C14   C     C_R   0.800975 0.525907 0.162922 -0.019706
C15   C     C_R   0.555021 0.463718 0.179674 -0.275446
C16   C     C_R   0.553836 0.934770 0.415873 0.023812
C17   C     C_R   0.501473 0.871265 0.500444 -0.059088
C18   C     C_R   0.472358 0.935235 0.584591 -0.148091
C19   C     C_R   0.472868 0.066030 0.584493 -0.192859
C20   C     C_R   0.503557 0.128777 0.500118 -0.055654
C21   C     C_R   0.555589 0.063842 0.415649 0.057355
C22   C     C_3   0.511215 0.072790 0.334310 -0.542262
C23   C     C_R   0.500771 0.260503 0.499566 0.881388
C24   C     C_3   0.509226 0.928622 0.334314 0.029203
C25   C     C_R   0.891267 0.576248 0.560298 0.218097
C26   C     C_R   0.961130 0.416069 0.447169 -0.072442
C27   C     C_R   0.105165 0.416325 0.446900 -0.117094
C28   C     C_R   0.033774 0.576129 0.560458 0.160086
C29   C     C_3   0.035297 0.717050 0.564211 -0.271771
C30   C     C_3   0.880640 0.716819 0.565075 -0.561375
C31   C     C_R   0.593199 0.498676 0.323442 0.869874
C32   C     C_R   0.349635 0.486875 0.777233 -0.055328
C33   C     C_R   0.654164 0.493923 0.220660 -0.148548
C34   C     C_R   0.179889 0.394021 0.919978 -0.222433
C35   C     C_R   0.214832 0.428844 0.827340 -0.197553
C36   C     C_R   0.444758 0.514890 0.820867 -0.248915
H1    H     H_    0.146269 0.327794 0.092095 0.169513
H2    H     H_    0.950064 0.565562 0.022532 0.171856
H3    H     H_    0.443418 0.884599 0.649733 0.149087
H4    H     H_    0.443848 0.117717 0.649611 0.144884
H5    H     H_    0.401850 0.118873 0.352770 0.205620
H6    H     H_    0.600369 0.112366 0.271734 0.194093
H7    H     H_    0.595064 0.883182 0.272010 0.160669
H8    H     H_    0.934331 0.349755 0.403247 0.175719
H9    H     H_    0.187060 0.350593 0.402414 0.142095
H10   H     H_    0.444106 0.441147 0.225108 0.166681
H11   H     H_    0.117797 0.758586 0.499634 0.169066
H12   H     H_    0.792843 0.750310 0.631418 0.216751
H13   H     H_    0.875304 0.758638 0.500995 0.217040
H14   H     H_    0.890057 0.551017 0.887169 0.176103
H15   H     H_    0.075690 0.348450 0.958185 0.148023
H16   H     H_    0.139757 0.406346 0.794160 0.164987
H17   H     H_    0.540871 0.570066 0.782554 0.153120
H18   H     H_    0.319215 0.354840 0.162795 0.149312
H19   H     H_    0.716341 0.521514 0.817553 0.175456
N1    N     N_R   0.856900 0.500860 0.500610 -0.104862
N2    N     N_R   0.142540 0.500820 0.500610 -0.117660
O1    O     O_R   0.385310 0.683210 0.499990 -0.594236
O2    O     O_R   0.614650 0.683240 0.500000 -0.628892
O3    O     O_R   0.319830 0.499970 0.632240 -0.609903
O4    O     O_R   0.549170 0.500000 0.632250 -0.615452
O5    O     O_R   0.385350 0.316760 0.500000 -0.618474
O6    O     O_R   0.614690 0.316790 0.500010 -0.615465
O7    O     O_R   0.450830 0.500000 0.367750 -0.613582
O8    O     O_R   0.680170 0.500030 0.367760 -0.576568
Zn1   Zn    Zn3+2 0.346870 0.499980 0.499990 0.961036
Zn2   Zn    Zn3+2 0.653130 0.500020 0.500010 0.969948
N3    N     N_2   0.362884 0.876863 0.359264 -0.274933
H20   H     H_    0.281274 0.921178 0.414845 0.250940
C37   C     C_3   0.321570 0.851425 0.281495 -0.759483
H21   H     H_    0.212195 0.805401 0.307251 0.233498
H22   H     H_    0.402670 0.786307 0.230810 0.250532
H23   H     H_    0.315331 0.940979 0.246150 0.241854
C38   C     C_2   0.043379 0.766516 0.652866 0.981503
O9    O     O_2   0.130014 0.850487 0.648886 -0.642465
O10   O     O_R   0.952132 0.717132 0.739264 -0.837655
H24   H     H_    0.968206 0.758633 0.793325 0.337036
C39   C     C_2   0.917067 0.551299 0.198335 0.911834
O11   O     O_2   0.948501 0.471751 0.244341 -0.651087
O12   O     O_R   0.997752 0.662925 0.173347 -0.810110
H25   H     H_    0.076782 0.668267 0.199583 0.339959

loop_
_geom_bond_atom_site_label_1
_geom_bond_atom_site_label_2
_ccdc_geom_bond_type
C16   C21   A    
C19   C20   A    
C25   N1    A    
N2    Zn1   S    
C4    C8    A    
C14   C33   A    
C26   H8    S    
C28   N2    A    
C25   C28   A    
C34   H15   S    
C38   O10   S    
C29   H11   S    
C32   C36   A    
C30   H12   S    
C28   C29   S    
C5    C11   A    
C3    C7    A    
C1    O2    A    
C5    C6    A    
C39   O12   S    
C22   H5    S    
C16   C17   A    
C18   C19   A    
C34   C35   A    
C36   H17   S    
O2    Zn2   S    
C11   C15   A    
O1    Zn1   S    
C23   O5    A    
C8    C9    A    
O8    Zn2   S    
C31   C33   S    
C37   H21   S    
C9    C10   A    
C27   H9    S    
C23   O6    A    
O3    Zn1   S    
C16   C24   S    
C13   C14   A    
C12   C32   S    
C6    H18   S    
C8    H19   S    
O6    Zn2   S    
C38   O9    D    
O5    Zn1   S    
C32   C35   A    
O10   H24   S    
C10   C11   A    
C39   O11   D    
N3    H20   S    
C29   C38   S    
C3    C34   A    
O7    Zn1   S    
C2    C4    A    
C18   H3    S    
C29   C30   S    
O4    Zn2   S    
C20   C23   S    
C37   H23   S    
C17   C18   A    
C7    H1    S    
C27   N2    A    
C13   H2    S    
C30   H13   S    
C26   C27   A    
C22   C24   S    
C2    C36   A    
C25   C30   S    
C31   O8    A    
C31   O7    A    
C9    H14   S    
O12   H25   S    
C10   C13   A    
C26   N1    A    
C6    C7    A    
N1    Zn2   S    
C1    C17   S    
C2    C3    A    
C1    O1    A    
C12   O4    A    
C22   H6    S    
C14   C39   S    
C19   H4    S    
C24   N3    S    
C12   O3    A    
C4    C5    A    
C20   C21   A    
N3    C37   S    
C35   H16   S    
C24   H7    S    
C37   H22   S    
C15   H10   S    
C21   C22   S    
C15   C33   A    
