data_mof_unit_16029.cif
_audit_creation_date              2012-12-10T16:42:55-0500
_audit_creation_method            fapswitch 2.2
_symmetry_space_group_name_H-M    P1
_symmetry_Int_Tables_number       1
_space_group_crystal_system       triclinic
_cell_length_a                    7.463125
_cell_length_b                    8.678646
_cell_length_c                    12.961523
_cell_angle_alpha                 88.068082
_cell_angle_beta                  78.523312
_cell_angle_gamma                 102.6791
_cell_volume                      800.034154482

loop_
_atom_site_label
_atom_site_type_symbol
_atom_type_description
_atom_site_fract_x
_atom_site_fract_y
_atom_site_fract_z
_atom_type_partial_charge
C1    C     C_R   0.452845 0.199704 0.503232 0.886784
C2    C     C_R   0.547155 0.800296 0.496769 0.886677
C3    C     C_R   0.464209 0.491835 0.701770 0.802014
C4    C     C_R   0.535797 0.508157 0.298227 0.801948
C5    C     C_R   0.559593 0.518576 0.183617 -0.139244
C6    C     C_R   0.440432 0.481402 0.816376 -0.139303
C7    C     C_R   0.260976 0.388137 0.993498 -0.198983
C8    C     C_R   0.739015 0.611871 0.006491 -0.198696
C9    C     C_R   0.270616 0.399101 0.885002 -0.017501
C10   C     C_R   0.729428 0.600851 0.114981 -0.017677
C11   C     C_R   0.594706 0.552225 0.857861 -0.227691
C12   C     C_R   0.405293 0.447794 0.142133 -0.227951
C13   C     C_R   0.583847 0.541363 0.965919 0.148308
C14   C     C_R   0.416135 0.458666 0.034076 0.148282
C15   C     C_2   0.426181 0.031923 0.504792 -0.348544
C16   C     C_2   0.573819 0.968077 0.495209 -0.348667
Cu1   Cu    Cu3+1 0.686350 0.517570 0.488220 0.988437
Cu2   Cu    Cu3+1 0.313650 0.482430 0.511780 0.988402
H1    H     H_    0.275895 0.383588 0.194206 0.188465
H2    H     H_    0.724102 0.616438 0.805789 0.188442
H3    H     H_    0.131956 0.324742 0.046326 0.174441
H4    H     H_    0.868038 0.675241 0.953654 0.174600
H5    H     H_    0.933420 0.374698 0.582487 0.228513
H6    H     H_    0.066580 0.625306 0.417516 0.228533
H7    H     H_    0.283769 0.960569 0.513823 0.183167
H8    H     H_    0.716231 0.039431 0.486178 0.183163
N1    N     N_2   0.033570 0.455950 0.529530 -0.203882
N2    N     N_2   0.966430 0.544050 0.470470 -0.203796
O1    O     O_R   0.621060 0.286250 0.492350 -0.585145
O2    O     O_R   0.378940 0.713750 0.507650 -0.585156
O3    O     O_R   0.306310 0.256580 0.512240 -0.583112
O4    O     O_R   0.693690 0.743420 0.487760 -0.583173
O5    O     O_R   0.631800 0.512400 0.642670 -0.594042
O6    O     O_R   0.368200 0.487600 0.357330 -0.594080
O7    O     O_R   0.317060 0.482730 0.662570 -0.551693
O8    O     O_R   0.682940 0.517270 0.337430 -0.551425
C17   C     C_2   0.897768 0.680641 0.152498 0.868201
O9    O     O_2   0.941593 0.825310 0.148253 -0.587486
O10   O     O_R   0.010332 0.590666 0.188510 -0.754448
H9    H     H_    0.123501 0.658814 0.210137 0.323481
C18   C     C_2   0.102401 0.319183 0.847434 0.868413
O11   O     O_2   0.059311 0.174535 0.851135 -0.587488
O12   O     O_R   0.989236 0.408989 0.811882 -0.754621
H10   H     H_    0.876353 0.340732 0.790036 0.323532

loop_
_geom_bond_atom_site_label_1
_geom_bond_atom_site_label_2
_ccdc_geom_bond_type
C8    H4    S    
O12   H10   S    
C4    O8    A    
C8    C13   A    
C1    C15   S    
Cu1   O8    S    
H5    N1    S    
Cu1   O1    S    
C18   O11   D    
C9    C18   S    
C3    O7    A    
C2    O2    A    
C3    C6    S    
C6    C9    A    
C1    O1    A    
Cu1   Cu2   S    
C5    C10   A    
C17   O10   S    
C13   C14   A    
C18   O12   S    
C6    C11   A    
C17   O9    D    
Cu1   O5    S    
C10   C17   S    
Cu2   O2    S    
C12   H1    S    
C8    C10   A    
C12   C14   A    
Cu2   O6    S    
C1    O3    A    
C16   H8    S    
C4    O6    A    
C11   H2    S    
C15   H7    S    
C3    O5    A    
C15   C16   D    
C11   C13   A    
C2    C16   S    
C5    C12   A    
C2    O4    A    
Cu2   O7    S    
O10   H9    S    
C7    C9    A    
Cu1   O4    S    
Cu2   O3    S    
C7    H3    S    
Cu1   N2    S    
C7    C14   A    
Cu2   N1    S    
H6    N2    S    
C4    C5    S    
N1    N2    D    
