data_mof_unit_17590.cif
_audit_creation_date              2012-12-11T15:17:57-0500
_audit_creation_method            fapswitch 2.2
_symmetry_space_group_name_H-M    P1
_symmetry_Int_Tables_number       1
_space_group_crystal_system       triclinic
_cell_length_a                    15.749876
_cell_length_b                    15.751802
_cell_length_c                    34.385778
_cell_angle_alpha                 90.074224
_cell_angle_beta                  89.833593
_cell_angle_gamma                 119.971209
_cell_volume                      7389.9407126

loop_
_atom_site_label
_atom_site_type_symbol
_atom_type_description
_atom_site_fract_x
_atom_site_fract_y
_atom_site_fract_z
_atom_type_partial_charge
C1    C     C_R   0.578522 0.441368 0.555226 0.543064
C2    C     C_R   0.558573 0.137321 0.555212 0.554550
C3    C     C_R   0.862810 0.421457 0.555184 0.536785
C4    C     C_R   0.441504 0.578037 0.054937 0.545111
C5    C     C_R   0.136477 0.558528 0.054902 0.555757
C6    C     C_R   0.421855 0.863681 0.054861 0.545465
C7    C     C_R   0.948108 0.473830 0.717226 0.342681
C8    C     C_R   0.526921 0.473005 0.717480 0.342554
C9    C     C_R   0.524916 0.048734 0.716878 0.344593
C10   C     C_R   0.486000 0.962661 0.214957 0.343361
C11   C     C_R   0.482304 0.503417 0.213835 0.343243
C12   C     C_R   0.005927 0.512433 0.211912 0.343712
C13   C     C_R   0.964700 0.414938 0.862502 0.098138
C14   C     C_R   0.585784 0.548372 0.862696 0.097875
C15   C     C_R   0.451093 0.035179 0.862257 0.097897
C16   C     C_R   0.422660 0.970535 0.359860 0.099483
C17   C     C_R   0.566357 0.577676 0.356697 0.099245
C18   C     C_R   0.994605 0.420905 0.353637 0.094827
C19   C     C_R   0.006544 0.434787 0.900177 0.104848
C20   C     C_R   0.565688 0.571179 0.900258 0.104540
C21   C     C_R   0.428721 0.993428 0.899983 0.104491
C22   C     C_R   0.439651 0.012253 0.397465 0.101089
C23   C     C_R   0.587136 0.563196 0.395194 0.110562
C24   C     C_R   0.966210 0.403829 0.393096 0.114968
C25   C     C_R   0.069149 0.609102 0.889675 0.084959
C26   C     C_R   0.391422 0.459182 0.889870 0.084612
C27   C     C_R   0.540766 0.930976 0.889679 0.084748
C28   C     C_R   0.615874 0.080365 0.387811 0.080651
C29   C     C_R   0.446922 0.396532 0.394023 0.099333
C30   C     C_R   0.950960 0.550510 0.393715 0.092315
C31   C     C_R   0.028637 0.588702 0.852542 -0.157165
C32   C     C_R   0.412084 0.438341 0.852835 -0.157274
C33   C     C_R   0.561063 0.971187 0.852459 -0.157105
C34   C     C_R   0.597719 0.040113 0.350642 -0.157666
C35   C     C_R   0.431920 0.410341 0.354753 -0.132506
C36   C     C_R   0.977309 0.565477 0.354352 -0.154785
C37   C     C_R   0.982119 0.493332 0.837832 0.022663
C38   C     C_R   0.507543 0.486972 0.838110 0.022744
C39   C     C_R   0.512123 0.017443 0.837616 0.022778
C40   C     C_R   0.502737 0.990381 0.335694 0.023916
C41   C     C_R   0.494956 0.497752 0.335390 0.014371
C42   C     C_R   0.991959 0.497370 0.333527 0.023804
C43   C     C_R   0.067049 0.533102 0.912251 0.045069
C44   C     C_R   0.467266 0.533559 0.912319 0.045232
C45   C     C_R   0.466515 0.933010 0.912185 0.045299
C46   C     C_R   0.537155 0.072781 0.410588 0.045662
C47   C     C_R   0.534386 0.468737 0.412274 0.021011
C48   C     C_R   0.932516 0.462184 0.411659 0.042202
C49   C     C_R   0.576479 0.443630 0.446248 0.569319
C50   C     C_R   0.557789 0.135006 0.445621 0.588643
C51   C     C_R   0.866870 0.422975 0.446154 0.570463
C52   C     C_R   0.443212 0.576678 0.946111 0.588015
C53   C     C_R   0.133555 0.556861 0.946128 0.586164
C54   C     C_R   0.423415 0.866467 0.946104 0.587909
C55   C     C_R   0.910235 0.451793 0.593688 0.021141
C56   C     C_R   0.548240 0.458452 0.593831 0.022135
C57   C     C_R   0.540533 0.088671 0.593470 0.040834
C58   C     C_R   0.454796 0.915517 0.092389 0.022236
C59   C     C_R   0.460249 0.543303 0.092119 0.023698
C60   C     C_R   0.079901 0.538750 0.091334 0.041930
C61   C     C_R   0.953044 0.401642 0.612069 0.141521
C62   C     C_R   0.599166 0.551074 0.612471 0.140204
C63   C     C_R   0.448948 0.050803 0.612659 0.133571
C64   C     C_R   0.403893 0.957403 0.111005 0.140838
C65   C     C_R   0.554309 0.589229 0.109561 0.140118
C66   C     C_R   0.032130 0.444848 0.108764 0.131906
C67   C     C_R   0.967060 0.411182 0.652725 -0.088577
C68   C     C_R   0.589768 0.555140 0.653167 -0.089310
C69   C     C_R   0.443938 0.035448 0.652963 -0.109903
C70   C     C_R   0.417392 0.975774 0.151305 -0.087332
C71   C     C_R   0.561109 0.572153 0.149426 -0.087340
C72   C     C_R   0.003201 0.435948 0.147851 -0.107689
C73   C     C_R   0.942667 0.471671 0.674384 0.004638
C74   C     C_R   0.528771 0.470216 0.674634 0.004796
C75   C     C_R   0.527626 0.053939 0.674063 0.010658
C76   C     C_R   0.482290 0.956439 0.172236 0.005413
C77   C     C_R   0.477232 0.508956 0.171140 0.004366
C78   C     C_R   0.019101 0.518561 0.169357 0.010428
C79   C     C_R   0.911059 0.528892 0.654956 -0.131765
C80   C     C_R   0.470762 0.381867 0.655002 -0.132738
C81   C     C_R   0.615046 0.080593 0.654029 -0.131880
C82   C     C_R   0.540748 0.926984 0.152294 -0.131588
C83   C     C_R   0.387163 0.455857 0.152176 -0.133669
C84   C     C_R   0.056100 0.608935 0.150450 -0.133810
C85   C     C_R   0.895133 0.519151 0.615131 -0.162037
C86   C     C_R   0.480279 0.376078 0.615113 -0.162671
C87   C     C_R   0.621402 0.097673 0.614200 -0.166742
C88   C     C_R   0.527224 0.906841 0.112831 -0.162057
C89   C     C_R   0.378798 0.472765 0.113171 -0.162302
C90   C     C_R   0.086007 0.618877 0.111870 -0.167260
C91   C     C_R   0.959590 0.479506 0.795976 0.380386
C92   C     C_R   0.521552 0.478218 0.796251 0.380634
C93   C     C_R   0.520437 0.038996 0.795662 0.380107
C94   C     C_R   0.490798 0.970499 0.293693 0.379558
C95   C     C_R   0.488771 0.502683 0.292690 0.376454
C96   C     C_R   0.999429 0.503832 0.290730 0.377907
Cr1   Cr    Cr6+3 0.522350 0.263930 0.500020 1.022913
Cr2   Cr    Cr6+3 0.736070 0.258420 0.500020 1.030098
Cr3   Cr    Cr6+3 0.741580 0.477650 0.500020 1.029900
Cr4   Cr    Cr6+3 0.263930 0.522350 0.000020 1.030465
Cr5   Cr    Cr6+3 0.258420 0.736070 0.000020 1.027465
Cr6   Cr    Cr6+3 0.477650 0.741580 0.000020 1.028357
H1    H     H_    0.863867 0.559460 0.601682 0.149305
H2    H     H_    0.439354 0.304784 0.601468 0.145857
H3    H     H_    0.692119 0.125106 0.600254 0.145454
H4    H     H_    0.568684 0.877101 0.099044 0.146694
H5    H     H_    0.306432 0.435221 0.100289 0.145429
H6    H     H_    0.120499 0.691390 0.099059 0.145976
H7    H     H_    0.995829 0.370998 0.667903 0.133014
H8    H     H_    0.630520 0.623790 0.668522 0.133217
H9    H     H_    0.374832 0.010966 0.667851 0.129235
H10   H     H_    0.376476 0.003408 0.166826 0.133920
H11   H     H_    0.631015 0.609383 0.164066 0.134635
H12   H     H_    0.971572 0.364819 0.161717 0.131622
H13   H     H_    0.893611 0.577766 0.670757 0.149576
H14   H     H_    0.421437 0.315569 0.670670 0.148561
H15   H     H_    0.680370 0.093433 0.669370 0.148203
H16   H     H_    0.593136 0.913778 0.167530 0.149272
H17   H     H_    0.321584 0.405057 0.167931 0.147956
H18   H     H_    0.067338 0.673543 0.166018 0.146462
H19   H     H_    0.037212 0.648962 0.834558 0.140567
H20   H     H_    0.351933 0.386382 0.834911 0.140565
H21   H     H_    0.612895 0.962483 0.834517 0.140728
H22   H     H_    0.659530 0.052899 0.332580 0.141287
H23   H     H_    0.372733 0.352161 0.338572 0.144038
H24   H     H_    0.982664 0.628771 0.339647 0.135255
N1    N     N_R   0.969853 0.411353 0.775574 -0.181753
N2    N     N_R   0.589742 0.556656 0.775915 -0.181796
N3    N     N_R   0.442334 0.030005 0.775570 -0.181103
N4    N     N_R   0.421081 0.978751 0.273753 -0.179279
N5    N     N_R   0.569894 0.562565 0.271579 -0.177665
N6    N     N_R   0.971013 0.421817 0.269162 -0.177411
N7    N     N_R   0.963751 0.408269 0.736951 -0.232079
N8    N     N_R   0.592689 0.553920 0.737279 -0.232508
N9    N     N_R   0.444728 0.035302 0.736932 -0.229850
N10   N     N_R   0.418360 0.974321 0.235136 -0.231702
N11   N     N_R   0.566630 0.563375 0.232971 -0.232171
N12   N     N_R   0.974782 0.426065 0.230575 -0.230841
N13   N     N_R   0.936309 0.540910 0.737714 -0.223173
N14   N     N_R   0.459863 0.394045 0.737894 -0.223507
N15   N     N_R   0.603491 0.059163 0.737034 -0.224829
N16   N     N_R   0.555083 0.953362 0.234937 -0.224544
N17   N     N_R   0.401235 0.442888 0.234929 -0.224482
N18   N     N_R   0.032760 0.594363 0.233446 -0.223560
N19   N     N_R   0.942628 0.544138 0.776278 -0.229341
N20   N     N_R   0.456783 0.396849 0.776478 -0.229640
N21   N     N_R   0.601036 0.053703 0.775623 -0.230478
N22   N     N_R   0.557913 0.957971 0.273539 -0.233141
N23   N     N_R   0.404539 0.442028 0.273583 -0.236221
N24   N     N_R   0.028988 0.590082 0.272111 -0.230721
O1    O     O_R   0.498680 0.159540 0.541860 -0.481172
O2    O     O_R   0.840460 0.339140 0.541860 -0.499769
O3    O     O_R   0.660860 0.501320 0.541860 -0.496378
O4    O     O_R   0.159540 0.498680 0.041860 -0.482273
O5    O     O_R   0.339140 0.840460 0.041860 -0.497398
O6    O     O_R   0.501320 0.660860 0.041860 -0.497921
O7    O     O_R   0.532760 0.358060 0.540030 -0.516633
O8    O     O_R   0.641940 0.174700 0.540030 -0.520182
O9    O     O_R   0.825300 0.467240 0.540030 -0.515501
O10   O     O_R   0.358060 0.532760 0.040030 -0.517857
O11   O     O_R   0.174700 0.641940 0.040030 -0.521929
O12   O     O_R   0.467240 0.825300 0.040030 -0.516159
O13   O     O_R   0.498590 0.161190 0.456930 -0.493377
O14   O     O_R   0.838810 0.337400 0.456930 -0.475819
O15   O     O_R   0.662600 0.501410 0.456930 -0.481969
O16   O     O_R   0.161190 0.498590 0.956930 -0.486870
O17   O     O_R   0.337400 0.838810 0.956930 -0.486690
O18   O     O_R   0.501410 0.662600 0.956930 -0.486585
O19   O     O_R   0.532680 0.359580 0.461300 -0.501543
O20   O     O_R   0.640420 0.173100 0.461300 -0.476035
O21   O     O_R   0.826900 0.467320 0.461300 -0.477219
O22   O     O_R   0.359580 0.532680 0.961300 -0.476845
O23   O     O_R   0.173100 0.640420 0.961300 -0.477480
O24   O     O_R   0.467320 0.826900 0.961300 -0.476827
O25   O     O_3   0.666667 0.333333 0.499990 -0.252747
O26   O     O_3   0.333333 0.666667 0.999990 -0.255145
N25   N     N_2   0.978853 0.341360 0.589380 -0.500125
H25   H     H_    0.008587 0.369773 0.562479 0.251242
C97   C     C_3   0.020871 0.288298 0.607839 -0.315664
H26   H     H_    0.032502 0.243608 0.585738 0.135734
H27   H     H_    0.969908 0.237463 0.630221 0.157553
H28   H     H_    0.092802 0.340323 0.621003 0.141579
N26   N     N_2   0.660134 0.637217 0.589996 -0.499988
H29   H     H_    0.631658 0.639541 0.563295 0.256991
C98   C     C_3   0.714737 0.731784 0.608766 -0.314899
H30   H     H_    0.759994 0.788098 0.586782 0.137845
H31   H     H_    0.765170 0.730161 0.630881 0.156776
H32   H     H_    0.663753 0.752781 0.622326 0.141893
N27   N     N_2   0.363046 0.033140 0.592220 -0.495744
H33   H     H_    0.309957 0.034575 0.609403 0.239890
C99   C     C_3   0.323034 0.948578 0.566852 -0.290929
H34   H     H_    0.259664 0.943353 0.550685 0.136351
H35   H     H_    0.297710 0.880621 0.584225 0.131914
H36   H     H_    0.378672 0.955011 0.545326 0.158625
N28   N     N_2   0.338894 0.977745 0.088983 -0.499650
H37   H     H_    0.364552 0.006727 0.061732 0.257417
C100  C     C_3   0.283326 0.016557 0.107962 -0.315148
H38   H     H_    0.234626 0.023319 0.086425 0.136279
H39   H     H_    0.333567 0.090379 0.120119 0.142039
H40   H     H_    0.236216 0.965891 0.131222 0.158266
N29   N     N_2   0.639187 0.652660 0.086842 -0.500242
H41   H     H_    0.638926 0.628138 0.058984 0.257956
C101  C     C_3   0.735253 0.702580 0.104603 -0.315236
H42   H     H_    0.790345 0.750842 0.082766 0.136308
H43   H     H_    0.755764 0.648509 0.115020 0.141161
H44   H     H_    0.736481 0.749574 0.128954 0.159421
N30   N     N_2   0.017539 0.360233 0.088026 -0.496303
H45   H     H_    0.011495 0.304206 0.105467 0.241480
C102  C     C_3   0.941150 0.325733 0.058956 -0.290697
H46   H     H_    0.938442 0.263246 0.042879 0.136669
H47   H     H_    0.955819 0.384514 0.037663 0.160703
H48   H     H_    0.868892 0.300718 0.073079 0.130849
N31   N     N_2   0.979657 0.357541 0.927518 -0.512274
H49   H     H_    0.906477 0.321226 0.935090 0.235178
C103  C     C_3   0.019831 0.293591 0.921634 -0.282505
H50   H     H_    0.961590 0.220373 0.911602 0.104976
H51   H     H_    0.048684 0.284270 0.949710 0.157183
H52   H     H_    0.079962 0.324061 0.899878 0.157210
N32   N     N_2   0.642823 0.622334 0.927502 -0.510050
H53   H     H_    0.679193 0.585731 0.935276 0.237041
C104  C     C_3   0.706745 0.726229 0.921229 -0.281680
H54   H     H_    0.780113 0.740931 0.911368 0.105176
H55   H     H_    0.715721 0.765269 0.949105 0.157667
H56   H     H_    0.676465 0.755154 0.899188 0.156010
N33   N     N_2   0.377836 0.020205 0.927215 -0.510173
H57   H     H_    0.414516 0.093361 0.934726 0.237276
C105  C     C_3   0.273859 0.980119 0.921198 -0.281683
H58   H     H_    0.259025 0.038508 0.911211 0.105282
H59   H     H_    0.235103 0.950809 0.949207 0.157561
H60   H     H_    0.244721 0.920361 0.899352 0.156335
N34   N     N_2   0.359215 0.991920 0.422396 -0.514214
H61   H     H_    0.310790 0.918503 0.427023 0.235818
C106  C     C_3   0.311895 0.049272 0.415707 -0.270608
H62   H     H_    0.240573 0.004222 0.400825 0.100498
H63   H     H_    0.358595 0.115368 0.397830 0.186724
H64   H     H_    0.297705 0.073447 0.444105 0.164549
N35   N     N_2   0.657688 0.644133 0.417423 -0.503808
H65   H     H_    0.641527 0.699394 0.421509 0.237448
C107  C     C_3   0.759664 0.678864 0.408305 -0.272453
H66   H     H_    0.792503 0.751033 0.393435 0.099910
H67   H     H_    0.768008 0.626160 0.389378 0.168927
H68   H     H_    0.800421 0.688334 0.435730 0.175563
N36   N     N_2   0.970000 0.327530 0.414000 -0.494792
H69   H     H_    0.960484 0.268326 0.397846 0.236414
C108  C     C_3   0.050335 0.361416 0.441212 -0.300605
H70   H     H_    0.121436 0.397292 0.425367 0.129856
H71   H     H_    0.044081 0.298092 0.457800 0.131164
H72   H     H_    0.048424 0.414052 0.462246 0.149222
N37   N     N_3   0.904171 0.316212 0.849136 -0.592770
H73   H     H_    0.846423 0.278773 0.868767 0.230847
H74   H     H_    0.946241 0.281879 0.848150 0.239864
N38   N     N_3   0.684604 0.586250 0.849340 -0.592608
H75   H     H_    0.721997 0.566443 0.869098 0.230823
H76   H     H_    0.718898 0.662586 0.848108 0.240027
N39   N     N_3   0.413159 0.095860 0.848799 -0.592137
H77   H     H_    0.433305 0.153626 0.868359 0.231075
H78   H     H_    0.336792 0.053936 0.847818 0.239994
N40   N     N_3   0.324836 0.909331 0.345704 -0.594419
H79   H     H_    0.287466 0.849987 0.364598 0.226290
H80   H     H_    0.288997 0.949979 0.345120 0.243166
N41   N     N_3   0.617764 0.672699 0.338862 -0.591752
H81   H     H_    0.609282 0.722696 0.356081 0.229558
H82   H     H_    0.692094 0.694599 0.336965 0.243032
N42   N     N_3   0.027127 0.361893 0.333850 -0.597533
H83   H     H_    0.085401 0.364421 0.349318 0.232209
H84   H     H_    0.969270 0.289558 0.332835 0.228492
N43   N     N_2   0.112496 0.706752 0.903829 -0.477173
H85   H     H_    0.145006 0.758955 0.882346 0.239361
C109  C     C_3   0.046694 0.723760 0.927774 -0.286880
H86   H     H_    0.086185 0.799049 0.939789 0.119376
H87   H     H_    0.018639 0.671423 0.952529 0.152204
H88   H     H_    0.983882 0.715503 0.910179 0.123653
N44   N     N_2   0.293636 0.405249 0.904020 -0.477498
H89   H     H_    0.241592 0.385452 0.882528 0.239302
C110  C     C_3   0.276280 0.322677 0.928053 -0.286434
H90   H     H_    0.284474 0.267817 0.910523 0.123489
H91   H     H_    0.200916 0.287249 0.940081 0.119463
H92   H     H_    0.328478 0.347100 0.952799 0.153165
N45   N     N_2   0.595106 0.887833 0.903960 -0.477122
H93   H     H_    0.615217 0.855385 0.882556 0.239257
C111  C     C_3   0.677482 0.953753 0.927874 -0.287189
H94   H     H_    0.713336 0.914415 0.939964 0.119164
H95   H     H_    0.652734 0.981673 0.952574 0.152249
H96   H     H_    0.732104 0.016636 0.910232 0.123475
N46   N     N_2   0.714687 0.133949 0.400882 -0.468237
H97   H     H_    0.764241 0.174885 0.379409 0.250070
C112  C     C_3   0.745691 0.075335 0.422401 -0.277973
H98   H     H_    0.820208 0.123361 0.434295 0.148209
H99   H     H_    0.747596 0.019787 0.403009 0.117406
H100  H     H_    0.695101 0.037699 0.447135 0.150236
N47   N     N_2   0.376182 0.311989 0.415281 -0.496997
H101  H     H_    0.372208 0.325569 0.444375 0.256274
C113  C     C_3   0.279523 0.250478 0.398923 -0.332857
H102  H     H_    0.284145 0.213008 0.372318 0.151483
H103  H     H_    0.244176 0.294738 0.392376 0.143640
H104  H     H_    0.232844 0.192735 0.420203 0.120807
N48   N     N_2   0.940572 0.623173 0.414465 -0.499223
H105  H     H_    0.934918 0.672985 0.396825 0.230178
C114  C     C_3   0.012717 0.672177 0.444700 -0.294931
H106  H     H_    0.996078 0.723630 0.460556 0.123780
H107  H     H_    0.087188 0.714448 0.431708 0.126506
H108  H     H_    0.011603 0.618658 0.465976 0.150209

loop_
_geom_bond_atom_site_label_1
_geom_bond_atom_site_label_2
_ccdc_geom_bond_type
C25   C31   A    
C95   N5    A    
C101  H42   S    
N39   H78   S    
C108  H71   S    
C26   C32   A    
N33   C105  S    
Cr2   O25   S    
C30   C36   A    
Cr3   O9    S    
N43   C109  S    
Cr4   O22   S    
N48   C114  S    
N29   H41   S    
C6    C58   S    
Cr5   O23   S    
C107  H66   S    
C84   C90   A    
C50   O20   A    
C71   C77   A    
C54   O17   A    
C114  H106  S    
C86   H2    S    
C25   C43   A    
C2    C57   S    
C53   O23   A    
C47   C49   S    
Cr2   O2    S    
N31   H49   S    
C27   C33   A    
C111  H96   S    
C49   O15   A    
C101  H43   S    
C28   C46   A    
N37   H73   S    
N46   H97   S    
C91   N1    A    
C65   N29   S    
C29   C47   A    
C18   C24   A    
C30   C48   A    
C110  H91   S    
C1    C56   S    
C10   N10   A    
C7    N7    A    
C104  H56   S    
C79   H13   S    
C18   C42   A    
C10   N16   A    
N41   H81   S    
C23   N35   S    
Cr3   O3    S    
C15   N39   S    
C98   H31   S    
C14   N38   S    
C27   C45   A    
Cr5   O5    S    
C68   C74   A    
C5    O4    A    
C22   C46   A    
C64   N28   S    
C81   H15   S    
C102  H48   S    
C88   H4    S    
C71   H11   S    
C24   N36   S    
Cr4   O16   S    
C59   C89   A    
C83   H17   S    
C35   H23   S    
Cr4   O10   S    
C39   C93   S    
C72   C78   A    
C11   C77   S    
C20   C44   A    
C62   N26   S    
N3    N9    A    
C10   C76   S    
C43   C53   S    
C48   C51   S    
C66   C72   A    
C22   N34   S    
Cr2   O8    S    
C65   C71   A    
N42   H83   S    
N25   C97   S    
C12   C78   S    
Cr4   O26   S    
N18   N24   A    
N45   H93   S    
C112  H99   S    
C57   C63   A    
C16   C22   A    
C67   C73   A    
C32   C38   A    
Cr1   O1    S    
C72   H12   S    
C106  H62   S    
C29   N47   S    
C13   C37   A    
C6    O5    A    
C85   H1    S    
C84   H18   S    
C96   N6    A    
C97   H28   S    
C44   C52   S    
N47   H101  S    
C108  H70   S    
C28   C34   A    
C74   C80   A    
C109  H86   S    
Cr1   O25   S    
C3    O9    A    
N29   C101  S    
C52   O22   A    
N27   H33   S    
C3    C55   S    
C17   C23   A    
C93   N3    A    
C92   N2    A    
C25   N43   S    
C19   C43   A    
C102  H46   S    
C21   C45   A    
N30   H45   S    
N31   C103  S    
C58   C64   A    
C83   C89   A    
C101  H44   S    
C36   H24   S    
N37   H74   S    
C23   C47   A    
C37   C91   S    
N15   N21   A    
C26   C44   A    
C99   H34   S    
C24   C48   A    
C14   C20   A    
C110  H92   S    
C31   H19   S    
C7    C73   S    
C68   H8    S    
C103  H52   S    
C76   C82   A    
N32   H53   S    
N41   H82   S    
C109  H87   S    
C9    N15   A    
C75   C81   A    
C98   H32   S    
C27   N45   S    
C94   N22   A    
N36   C108  S    
C111  H94   S    
C63   N27   S    
C92   N20   A    
C78   C84   A    
C12   N18   A    
C31   C37   A    
C19   N31   S    
C5    O11   A    
C55   C85   A    
C100  H40   S    
N40   H80   S    
C103  H50   S    
C99   H35   S    
N26   H29   S    
C18   N42   S    
C113  H102  S    
N5    N11   A    
C102  H47   S    
N2    N8    A    
C14   C38   A    
C104  H54   S    
C16   N40   S    
C106  H64   S    
C61   C67   A    
C56   C86   A    
C105  H58   S    
C87   H3    S    
C8    N8    A    
N17   N23   A    
C61   N25   S    
C2    O8    A    
C96   N24   A    
C89   H5    S    
C8    C74   S    
N44   H89   S    
C3    O2    A    
C112  H100  S    
Cr3   O25   S    
C51   O14   A    
C107  H67   S    
C33   C39   A    
C1    O7    A    
C100  H39   S    
C1    O3    A    
C114  H107  S    
N16   N22   A    
Cr1   O13   S    
C81   C87   A    
C70   H10   S    
N28   C100  S    
C16   C40   A    
C95   N23   A    
C9    N9    A    
Cr3   O15   S    
C28   N46   S    
C4    O6    A    
C110  H90   S    
C104  H55   S    
C45   C54   S    
C64   C70   A    
C21   N33   S    
N35   C107  S    
C112  H98   S    
C70   C76   A    
C20   N32   S    
C56   C62   A    
Cr5   O17   S    
C7    N13   A    
C111  H95   S    
C82   H16   S    
C69   C75   A    
N14   N20   A    
N39   H77   S    
C94   N4    A    
Cr6   O6    S    
C91   N19   A    
C34   H22   S    
Cr6   O12   S    
C32   H20   S    
N38   H76   S    
N6    N12   A    
Cr4   O4    S    
C2    O1    A    
C15   C39   A    
C46   C50   S    
N13   N19   A    
Cr6   O18   S    
C5    C60   S    
N47   C113  S    
C50   O13   A    
C109  H88   S    
C6    O12   A    
N4    N10   A    
N1    N7    A    
C40   C94   S    
C73   C79   A    
C58   C88   A    
C36   C42   A    
C4    O10   A    
C26   N44   S    
Cr2   O14   S    
N43   H85   S    
C30   N48   S    
C113  H103  S    
Cr6   O24   S    
C60   C90   A    
C97   H26   S    
C113  H104  S    
C13   N37   S    
C29   C35   A    
C80   C86   A    
C62   C68   A    
C8    N14   A    
C54   O24   A    
C51   O21   A    
N40   H79   S    
C11   N11   A    
Cr1   O19   S    
C90   H6    S    
C63   C69   A    
N46   C112  S    
C105  H59   S    
C42   C96   S    
C52   O18   A    
C49   O19   A    
C66   N30   S    
C69   H9    S    
C67   H7    S    
C98   H30   S    
C41   C95   S    
C11   N17   A    
C33   H21   S    
C82   C88   A    
C55   C61   A    
C4    C59   S    
Cr5   O11   S    
N44   C110  S    
C79   C85   A    
C93   N21   A    
C107  H68   S    
C12   N12   A    
N32   C104  S    
N45   C111  S    
C17   N41   S    
C100  H38   S    
C35   C41   A    
C114  H108  S    
C17   C41   A    
C99   H36   S    
C103  H51   S    
N34   C106  S    
C60   C66   A    
N28   H37   S    
Cr2   O20   S    
N48   H105  S    
C57   C87   A    
C53   O16   A    
C15   C21   A    
C105  H60   S    
Cr3   O21   S    
N26   C98   S    
N42   H84   S    
N25   H25   S    
C108  H72   S    
C106  H63   S    
N34   H61   S    
N30   C102  S    
C13   C19   A    
C77   C83   A    
C34   C40   A    
Cr5   O26   S    
C97   H27   S    
C9    C75   S    
C80   H14   S    
N27   C99   S    
N35   H65   S    
Cr6   O26   S    
C59   C65   A    
N36   H69   S    
C38   C92   S    
Cr1   O7    S    
N38   H75   S    
N33   H57   S    
