data_mof_unit_53782.cif
_audit_creation_date              2012-12-11T16:24:12-0500
_audit_creation_method            fapswitch 2.2
_symmetry_space_group_name_H-M    P1
_symmetry_Int_Tables_number       1
_space_group_crystal_system       triclinic
_cell_length_a                    14.749229
_cell_length_b                    14.75873
_cell_length_c                    33.264845
_cell_angle_alpha                 96.013003
_cell_angle_beta                  96.298824
_cell_angle_gamma                 61.212442
_cell_volume                      6296.64668452

loop_
_atom_site_label
_atom_site_type_symbol
_atom_type_description
_atom_site_fract_x
_atom_site_fract_y
_atom_site_fract_z
_atom_type_partial_charge
C1    C     C_R   0.391199 0.698787 0.445644 0.569722
C2    C     C_R   0.331138 0.348650 0.308439 0.080437
C3    C     C_R   0.410844 0.263768 0.328262 0.262966
C4    C     C_R   0.429688 0.273549 0.370444 -0.120663
C5    C     C_R   0.394113 0.252894 0.165864 -0.089343
C6    C     C_R   0.385060 0.233739 0.124091 -0.117193
C7    C     C_R   0.211626 0.380220 0.121195 -0.123530
C8    C     C_R   0.220809 0.399019 0.163035 -0.108361
C9    C     C_R   0.310785 0.333319 0.185457 0.039206
C10   C     C_1   0.314955 0.342318 0.228748 0.011098
C11   C     C_1   0.320430 0.346149 0.265090 0.055660
C12   C     C_R   0.405780 0.386488 0.433969 0.547884
C13   C     C_R   0.292119 0.294766 0.101586 0.019845
C14   C     C_R   0.754490 0.374469 0.409725 0.021268
C15   C     C_R   0.783244 0.438672 0.392289 -0.124612
C16   C     C_R   0.809788 0.418918 0.352259 -0.111576
C17   C     C_R   0.808659 0.334307 0.329048 0.034755
C18   C     C_R   0.789489 0.264617 0.347602 -0.113970
C19   C     C_R   0.762423 0.284641 0.387670 -0.126864
C20   C     C_R   0.826659 0.312060 0.203554 0.350149
C21   C     C_R   0.818373 0.324565 0.285074 0.347939
C22   C     C_R   0.819266 0.390905 0.139899 -0.103670
C23   C     C_R   0.700490 0.410169 0.447457 0.544970
C24   C     C_R   0.853451 0.381070 0.101110 0.273357
C25   C     C_R   0.917448 0.194973 0.100255 -0.180045
C26   C     C_R   0.885835 0.205492 0.139132 -0.134975
C27   C     C_R   0.840977 0.302920 0.159957 -0.009521
C28   C     C_R   0.905991 0.281470 0.081633 0.036328
C29   C     C_R   0.373564 0.748861 0.407121 0.027836
C30   C     C_R   0.285443 0.767727 0.380581 0.228486
C31   C     C_R   0.285431 0.786475 0.340114 -0.160891
C32   C     C_R   0.370117 0.789009 0.325991 0.047499
C33   C     C_R   0.453114 0.781175 0.353195 0.237510
C34   C     C_R   0.393717 0.701290 0.561359 0.554382
C35   C     C_R   0.454073 0.761136 0.393689 -0.175991
C36   C     C_R   0.370105 0.801633 0.201101 0.347951
C37   C     C_R   0.372914 0.792343 0.282197 0.370455
C38   C     C_R   0.264316 0.826121 0.135337 0.219773
C39   C     C_R   0.237807 0.865369 0.096702 -0.143088
C40   C     C_R   0.394023 0.881550 0.100311 -0.073967
C41   C     C_R   0.423950 0.839644 0.138251 0.204540
C42   C     C_R   0.355506 0.817866 0.157253 0.061086
C43   C     C_R   0.299423 0.898139 0.079968 -0.060767
C44   C     C_R   0.371472 0.368825 0.585013 0.021809
C45   C     C_R   0.407382 0.388778 0.549003 0.543679
C46   C     C_R   0.284659 0.448123 0.603714 -0.130139
C47   C     C_R   0.265162 0.438591 0.642701 -0.117828
C48   C     C_R   0.332266 0.349700 0.663539 0.034683
C49   C     C_R   0.413324 0.266749 0.643362 -0.121979
C50   C     C_R   0.432685 0.276165 0.604416 -0.132779
C51   C     C_R   0.317525 0.347297 0.788238 0.344842
C52   C     C_R   0.324311 0.346917 0.707076 0.345293
C53   C     C_R   0.217703 0.403261 0.850273 -0.123833
C54   C     C_R   0.206870 0.383960 0.889144 -0.134095
C55   C     C_R   0.385937 0.248984 0.892930 -0.120681
C56   C     C_R   0.701587 0.413486 0.562627 0.545188
C57   C     C_R   0.396765 0.268275 0.854172 -0.109560
C58   C     C_R   0.311359 0.342075 0.831745 0.034839
C59   C     C_R   0.289487 0.303117 0.909930 0.022887
C60   C     C_R   0.755541 0.379962 0.602671 -0.030755
C61   C     C_R   0.790301 0.441821 0.627431 -0.056859
C62   C     C_R   0.821303 0.423022 0.668332 0.239808
C63   C     C_R   0.816241 0.340862 0.684729 0.028008
C64   C     C_R   0.788268 0.275192 0.659476 -0.145182
C65   C     C_R   0.758675 0.294109 0.618731 -0.145759
C66   C     C_R   0.904075 0.209179 0.821392 -0.127073
C67   C     C_R   0.370032 0.367172 0.392406 -0.013977
C68   C     C_R   0.930079 0.197965 0.862747 -0.178114
C69   C     C_R   0.857093 0.385156 0.874544 0.279394
C70   C     C_R   0.828444 0.395310 0.832722 -0.100921
C71   C     C_R   0.856028 0.307450 0.806284 -0.000247
C72   C     C_1   0.841347 0.317885 0.763406 -0.024822
C73   C     C_1   0.830747 0.327460 0.727507 -0.035603
C74   C     C_R   0.910324 0.284917 0.889533 0.036169
C75   C     C_R   0.377196 0.754337 0.602370 -0.021705
C76   C     C_R   0.283159 0.784713 0.619666 -0.189069
C77   C     C_R   0.273310 0.812415 0.660895 -0.184935
C78   C     C_R   0.285886 0.448372 0.372314 -0.137023
C79   C     C_R   0.357404 0.809226 0.685670 0.001604
C80   C     C_R   0.450601 0.783724 0.668879 0.296988
C81   C     C_R   0.459205 0.760817 0.626849 0.264069
C82   C     C_R   0.402897 0.871046 0.834010 0.293003
C83   C     C_R   0.381103 0.902215 0.874650 -0.104002
C84   C     C_R   0.225267 0.883990 0.862968 -0.144381
C85   C     C_R   0.245480 0.855244 0.822370 -0.169875
C86   C     C_R   0.331849 0.852406 0.807520 0.039629
C87   C     C_1   0.342864 0.836963 0.764705 0.026822
C88   C     C_1   0.349689 0.825299 0.728685 0.027739
C89   C     C_R   0.266952 0.439187 0.330544 -0.161892
C90   C     C_R   0.290655 0.911680 0.889167 -0.024560
C91   C     C_R   0.963000 0.264371 0.045425 0.572280
C92   C     C_R   0.272923 0.259536 0.059973 0.542933
C93   C     C_R   0.259338 0.959481 0.043803 0.550548
C94   C     C_R   0.962036 0.267887 0.930809 0.571395
C95   C     C_R   0.270811 0.264144 0.945382 0.543824
C96   C     C_R   0.256191 0.964654 0.929064 0.547691
Cr1   Cr    Cr6+3 0.576280 0.580550 0.506370 1.037335
Cr2   Cr    Cr6+3 0.346780 0.572400 0.496520 1.044199
Cr3   Cr    Cr6+3 0.576960 0.347070 0.497150 1.015179
Cr4   Cr    Cr6+3 0.087320 0.083240 0.984860 1.015415
Cr5   Cr    Cr6+3 0.087720 0.316210 0.996740 1.045325
Cr6   Cr    Cr6+3 0.317350 0.090340 0.995890 1.023103
H1    H     H_    0.448485 0.167563 0.109877 0.142165
H2    H     H_    0.741298 0.233362 0.400419 0.133559
H3    H     H_    0.826401 0.472802 0.338972 0.143468
H4    H     H_    0.789178 0.198118 0.330533 0.144114
H5    H     H_    0.778983 0.467050 0.154954 0.139068
H6    H     H_    0.957520 0.117745 0.085971 0.143394
H7    H     H_    0.902139 0.136422 0.153676 0.156437
H8    H     H_    0.521159 0.748588 0.414018 0.120462
H9    H     H_    0.165370 0.876299 0.080856 0.128669
H10   H     H_    0.464209 0.201977 0.183110 0.148684
H11   H     H_    0.220265 0.795920 0.319117 0.127195
H12   H     H_    0.444156 0.903630 0.087247 0.165825
H13   H     H_    0.235624 0.520244 0.589367 0.132250
H14   H     H_    0.499452 0.213238 0.590581 0.128943
H15   H     H_    0.131793 0.427505 0.901670 0.124544
H16   H     H_    0.201305 0.503316 0.657315 0.139962
H17   H     H_    0.465131 0.196343 0.658361 0.137371
H18   H     H_    0.150872 0.461617 0.833907 0.130497
H19   H     H_    0.451410 0.187188 0.908492 0.137506
H20   H     H_    0.470657 0.221386 0.841024 0.143610
H21   H     H_    0.971910 0.120318 0.873322 0.140692
H22   H     H_    0.925059 0.140825 0.801028 0.128106
H23   H     H_    0.784852 0.211744 0.671717 0.125406
H24   H     H_    0.732380 0.244947 0.600464 0.141248
H25   H     H_    0.789065 0.508056 0.615560 0.173811
H26   H     H_    0.787280 0.471178 0.820551 0.098101
H27   H     H_    0.494360 0.210206 0.385634 0.119128
H28   H     H_    0.432537 0.923433 0.894174 0.140827
H29   H     H_    0.218482 0.782114 0.601733 0.153312
H30   H     H_    0.191168 0.839597 0.802153 0.120951
H31   H     H_    0.155071 0.890368 0.873182 0.141970
H32   H     H_    0.201307 0.831906 0.673795 0.132078
H33   H     H_    0.238594 0.521504 0.388385 0.165662
H34   H     H_    0.156110 0.461729 0.178063 0.117279
H35   H     H_    0.139306 0.428825 0.104652 0.121895
H36   H     H_    0.205199 0.504561 0.315235 0.126097
H37   H     H_    0.778884 0.507935 0.408651 0.134053
N1    N     N_R   0.812325 0.399700 0.225877 -0.227805
N2    N     N_R   0.242302 0.422134 0.726576 -0.226421
N3    N     N_R   0.402934 0.272416 0.728976 -0.226213
N4    N     N_R   0.399449 0.272416 0.768701 -0.220983
N5    N     N_R   0.807948 0.405936 0.265797 -0.218784
N6    N     N_R   0.831977 0.236989 0.262773 -0.220914
N7    N     N_R   0.836839 0.230574 0.222783 -0.216740
N8    N     N_R   0.337392 0.741306 0.216204 -0.142662
N9    N     N_R   0.338674 0.736834 0.255964 -0.234546
N10   N     N_R   0.407451 0.851367 0.267259 -0.134685
N11   N     N_R   0.405300 0.856491 0.227417 -0.202141
N12   N     N_R   0.238630 0.421913 0.766370 -0.232477
O1    O     O_R   0.679450 0.499830 0.463150 -0.520231
O2    O     O_R   0.356040 0.477400 0.534170 -0.503745
O3    O     O_R   0.495910 0.323070 0.537100 -0.520512
O4    O     O_R   0.663920 0.359620 0.542290 -0.501135
O5    O     O_3   0.500010 0.500010 0.500010 -0.250396
O6    O     O_R   0.170070 0.978950 0.027680 -0.515363
O7    O     O_R   0.001760 0.175230 0.026640 -0.515117
O8    O     O_R   0.984760 0.333570 0.037150 -0.465014
O9    O     O_R   0.183410 0.309240 0.041890 -0.507217
O10   O     O_R   0.340240 0.172500 0.045430 -0.515090
O11   O     O_R   0.309670 0.000990 0.032050 -0.499245
O12   O     O_R   0.480650 0.664000 0.464630 -0.524981
O13   O     O_R   0.168330 0.982130 0.939200 -0.518031
O14   O     O_R   0.000140 0.178170 0.944610 -0.515792
O15   O     O_R   0.983010 0.336750 0.948660 -0.463443
O16   O     O_R   0.181800 0.312190 0.959860 -0.507208
O17   O     O_R   0.338500 0.175680 0.956950 -0.516060
O18   O     O_R   0.308050 0.003930 0.950020 -0.499736
O19   O     O_3   0.164130 0.163270 0.992500 -0.249348
O20   O     O_R   0.323930 0.675950 0.455370 -0.439632
O21   O     O_R   0.354700 0.475360 0.451930 -0.495926
O22   O     O_R   0.494470 0.320860 0.448390 -0.518004
O23   O     O_R   0.662580 0.357570 0.460050 -0.501763
O24   O     O_R   0.680900 0.502040 0.551870 -0.495115
O25   O     O_R   0.481990 0.666040 0.546870 -0.451325
O26   O     O_R   0.325370 0.678160 0.544080 -0.527295
O27   O     O_3   0.832780 0.467757 0.081185 -0.537748
C97   C     C_3   0.876047 0.525338 0.104227 -0.090297
H38   H     H_    0.955248 0.474984 0.117931 0.102428
H39   H     H_    0.824115 0.576409 0.128017 0.128721
H40   H     H_    0.883233 0.576025 0.083817 0.148454
O28   O     O_3   0.202643 0.762638 0.393988 -0.675036
H41   H     H_    0.148480 0.776707 0.371477 0.318821
O29   O     O_3   0.535314 0.785976 0.339115 -0.662600
H42   H     H_    0.587280 0.777979 0.361975 0.319978
O30   O     O_3   0.198505 0.802479 0.153172 -0.667839
H43   H     H_    0.138389 0.813139 0.133911 0.320105
O31   O     O_3   0.519140 0.823740 0.156004 -0.676816
H44   H     H_    0.542616 0.771029 0.176306 0.341787
O32   O     O_3   0.471809 0.174388 0.305723 -0.674713
H45   H     H_    0.524260 0.122781 0.324222 0.328706
O33   O     O_3   0.829952 0.471242 0.901553 -0.541605
C98   C     C_3   0.860827 0.539941 0.888727 -0.104780
H46   H     H_    0.801872 0.591836 0.866342 0.096049
H47   H     H_    0.938766 0.498728 0.876231 0.101976
H48   H     H_    0.865831 0.589661 0.915359 0.147025
O34   O     O_3   0.851430 0.489135 0.691059 -0.715361
H49   H     H_    0.876827 0.464665 0.718675 0.330512
O35   O     O_3   0.487888 0.869541 0.819505 -0.543920
C99   C     C_3   0.573069 0.769956 0.823978 -0.113291
H50   H     H_    0.558216 0.709452 0.806329 0.112086
H51   H     H_    0.593148 0.751945 0.856459 0.112536
H52   H     H_    0.641363 0.767758 0.811933 0.145498
O36   O     O_3   0.532915 0.783415 0.693326 -0.541366
C100  C     C_3   0.598674 0.681775 0.705325 -0.068663
H53   H     H_    0.630692 0.626622 0.678759 0.174028
H54   H     H_    0.557949 0.655075 0.723490 0.092107
H55   H     H_    0.664976 0.681243 0.724793 0.161706
O37   O     O_3   0.552208 0.734072 0.610989 -0.538851
C101  C     C_3   0.547870 0.824852 0.598891 -0.082147
H56   H     H_    0.539027 0.881066 0.625192 0.146686
H57   H     H_    0.484173 0.861690 0.575086 0.098997
H58   H     H_    0.621907 0.803731 0.585712 0.135471

loop_
_geom_bond_atom_site_label_1
_geom_bond_atom_site_label_2
_ccdc_geom_bond_type
C92   O10   A    
Cr6   O19   S    
C66   C68   A    
C23   O1    A    
C55   H19   S    
Cr1   O24   S    
C55   C59   A    
C8    H34   S    
C41   C42   A    
C74   C94   S    
C36   C42   S    
N8    N9    A    
C96   O18   A    
C87   C88   T    
C95   O17   A    
C94   O15   A    
N6    N7    A    
C57   C58   A    
C53   H18   S    
C7    C8    A    
C12   O21   A    
C23   O23   A    
C49   H17   S    
C85   C86   A    
C25   C28   A    
C5    C9    A    
C26   C27   A    
C29   C30   A    
C84   C90   A    
C46   H13   S    
C38   C42   A    
C85   H30   S    
C5    C6    A    
C76   H29   S    
C100  H54   S    
C98   H48   S    
C68   C74   A    
C15   C16   A    
Cr3   O3    S    
C68   H21   S    
C18   C19   A    
C99   H50   S    
Cr1   O5    S    
Cr5   O16   S    
Cr4   O7    S    
C91   O7    A    
C14   C15   A    
C43   C93   S    
C57   H20   S    
Cr4   O6    S    
C40   C43   A    
C40   H12   S    
C47   C48   A    
Cr5   O9    S    
O35   C99   S    
Cr1   O12   S    
Cr3   O4    S    
Cr5   O15   S    
O34   H49   S    
C78   H33   S    
C91   O8    A    
C33   O29   S    
C34   C75   S    
C72   C73   T    
C97   H40   S    
Cr2   O21   S    
Cr6   O18   S    
C39   H9    S    
C81   O37   S    
Cr2   O2    S    
C51   N12   A    
Cr1   O25   S    
C99   H51   S    
C22   H5    S    
C61   C62   A    
C67   C78   A    
C59   C95   S    
C56   O4    A    
C2    C11   S    
C94   O14   A    
C1    C29   S    
C79   C88   S    
C44   C46   A    
O27   C97   S    
C15   H37   S    
C54   C59   A    
C77   C79   A    
C78   C89   A    
C12   C67   S    
Cr2   O5    S    
C84   H31   S    
C32   C37   S    
C56   O24   A    
Cr4   O19   S    
O32   H45   S    
C89   H36   S    
C24   C28   A    
Cr5   O19   S    
C76   C77   A    
C62   O34   S    
C83   H28   S    
C61   H25   S    
C7    H35   S    
C100  H53   S    
C16   C17   A    
C65   H24   S    
C39   C43   A    
C63   C73   S    
C25   C26   A    
C82   C86   A    
C1    O20   A    
C52   N3    A    
C79   C80   A    
Cr4   O14   S    
C47   H16   S    
C21   N6    A    
C14   C23   S    
C2    C89   A    
C75   C76   A    
C18   H4    S    
O28   H41   S    
C82   O35   S    
C62   C63   A    
C3    O32   S    
C19   H2    S    
C36   N8    A    
C101  H56   S    
Cr3   O22   S    
C7    C13   A    
C30   C31   A    
Cr6   O11   S    
C70   H26   S    
Cr3   O5    S    
C50   H14   S    
C69   O33   S    
C17   C18   A    
C8    C9    A    
C69   C74   A    
Cr4   O13   S    
C51   C58   S    
C6    H1    S    
C84   C85   A    
Cr2   O26   S    
C93   O6    A    
C26   H7    S    
Cr5   O8    S    
C70   C71   A    
C35   H8    S    
C66   C71   A    
Cr2   O20   S    
C16   H3    S    
C40   C41   A    
C101  H57   S    
C60   C65   A    
O33   C98   S    
C22   C27   A    
C55   C57   A    
C13   C92   S    
C24   O27   S    
C99   H52   S    
C22   C24   A    
C45   O2    A    
C77   H32   S    
C53   C54   A    
C3    C4    A    
C98   H47   S    
C44   C45   S    
N2    N12   A    
C9    C10   S    
C44   C50   A    
O31   H44   S    
C83   C90   A    
O36   C100  S    
C46   C47   A    
C48   C49   A    
Cr6   O17   S    
C86   C87   S    
C14   C19   A    
C31   C32   A    
C75   C81   A    
N1    N5    A    
C21   N5    A    
C37   N10   A    
C80   C81   A    
C95   O16   A    
C4    C67   A    
C20   N7    A    
C53   C58   A    
C30   O28   S    
C90   C96   S    
C4    H27   S    
C20   C27   S    
C51   N4    A    
C97   H38   S    
C5    H10   S    
C29   C35   A    
C52   N2    A    
C41   O31   S    
C92   O9    A    
C32   C33   A    
C20   N1    A    
C49   C50   A    
C2    C3    A    
C71   C72   S    
N10   N11   A    
C64   C65   A    
C6    C13   A    
C98   H46   S    
C100  H55   S    
C36   N11   A    
O29   H42   S    
C38   C39   A    
Cr3   O23   S    
C93   O11   A    
Cr6   O10   S    
C33   C35   A    
Cr1   O1    S    
C80   O36   S    
C28   C91   S    
C66   H22   S    
O37   C101  S    
C37   N9    A    
C69   C70   A    
C17   C21   S    
C34   O25   A    
C10   C11   T    
C63   C64   A    
C96   O13   A    
C48   C52   S    
C101  H58   S    
C56   C60   S    
C1    O12   A    
C64   H23   S    
C54   H15   S    
N3    N4    A    
C60   C61   A    
C34   O26   A    
O30   H43   S    
C45   O3    A    
C82   C83   A    
C31   H11   S    
C38   O30   S    
C25   H6    S    
C12   O22   A    
C97   H39   S    
