data_mof_unit_62695.cif
_audit_creation_date              2012-12-10T20:02:46-0500
_audit_creation_method            fapswitch 2.2
_symmetry_space_group_name_H-M    P1
_symmetry_Int_Tables_number       1
_space_group_crystal_system       triclinic
_cell_length_a                    38.871844
_cell_length_b                    32.015484
_cell_length_c                    21.814769
_cell_angle_alpha                 90.00375
_cell_angle_beta                  55.41001
_cell_angle_gamma                 90.020695
_cell_volume                      22349.6085979

loop_
_atom_site_label
_atom_site_type_symbol
_atom_type_description
_atom_site_fract_x
_atom_site_fract_y
_atom_site_fract_z
_atom_type_partial_charge
C1    C     C_R   0.919295 0.499966 0.579297 0.957015
C2    C     C_3   0.004893 0.501330 0.684800 -0.307393
C3    C     C_R   0.536408 0.228160 0.947481 -0.295412
C4    C     C_R   0.000022 0.706603 0.999961 0.043059
C5    C     C_R   0.500017 0.206603 0.999954 0.043090
C6    C     C_1   0.500004 0.338073 0.999958 0.085389
C7    C     C_1   0.000008 0.838074 0.999967 0.085354
C8    C     C_1   0.000026 0.662188 0.999965 -0.029708
C9    C     C_1   0.500022 0.162187 0.999964 -0.029683
C10   C     C_1   0.000022 0.624857 0.999975 -0.185373
C11   C     C_1   0.500020 0.124856 0.999974 -0.185354
C12   C     C_1   0.499932 0.624626 0.000063 -0.165255
C13   C     C_3   0.495115 0.001326 0.315190 -0.307495
C14   C     C_1   0.999930 0.124627 0.000066 -0.165232
C15   C     C_1   0.500002 0.375428 0.999981 -0.147918
C16   C     C_1   0.000004 0.875428 0.999984 -0.147919
C17   C     C_R   0.508687 0.728086 0.045369 -0.170563
C18   C     C_R   0.491011 0.728073 0.954920 -0.177870
C19   C     C_R   0.009027 0.228085 0.044903 -0.170509
C20   C     C_R   0.990662 0.228074 0.955398 -0.177824
C21   C     C_R   0.499848 0.706441 0.000146 0.159634
C22   C     C_R   0.999844 0.206441 0.000152 0.159640
C23   C     C_R   0.999880 0.293207 0.000105 0.156992
C24   C     C_3   0.504893 0.001330 0.684799 -0.307391
C25   C     C_R   0.499883 0.793207 0.000100 0.156877
C26   C     C_R   0.990683 0.271576 0.955370 -0.163887
C27   C     C_R   0.009043 0.271586 0.044884 -0.163567
C28   C     C_R   0.491031 0.771575 0.954893 -0.163921
C29   C     C_R   0.508702 0.771586 0.045351 -0.163610
C30   C     C_3   0.966681 0.540035 0.319779 -0.313977
C31   C     C_3   0.033349 0.540046 0.680196 -0.316499
C32   C     C_3   0.466683 0.040038 0.319777 -0.313987
C33   C     C_3   0.533352 0.040044 0.680193 -0.316508
C34   C     C_3   0.965858 0.539148 0.245907 0.724876
C35   C     C_3   0.998475 0.503148 0.191374 -0.293458
C36   C     C_3   0.034168 0.539161 0.754073 0.724805
C37   C     C_3   0.465860 0.039152 0.245904 0.724866
C38   C     C_3   0.534171 0.039159 0.754071 0.724802
C39   C     C_3   0.042273 0.504911 0.244731 0.188980
C40   C     C_3   0.957739 0.504905 0.755253 0.189036
C41   C     C_3   0.542271 0.004906 0.244733 0.188989
C42   C     C_3   0.457739 0.004909 0.755252 0.189022
C43   C     C_2   0.984430 0.582188 0.327123 0.894227
C44   C     C_2   0.015626 0.582191 0.672823 0.894224
C45   C     C_2   0.484435 0.082189 0.327119 0.894235
C46   C     C_3   0.001531 0.503152 0.808619 -0.292987
C47   C     C_2   0.515631 0.082190 0.672818 0.894213
C48   C     C_2   0.016533 0.423071 0.177437 1.034393
C49   C     C_2   0.983429 0.423072 0.822585 1.034212
C50   C     C_2   0.516524 0.923069 0.177448 1.034356
C51   C     C_2   0.483425 0.923073 0.822589 1.034168
C52   C     C_3   0.091705 0.470194 0.258345 0.077948
C53   C     C_3   0.098940 0.426834 0.277616 -0.690688
C54   C     C_3   0.908289 0.470183 0.741635 0.078724
C55   C     C_3   0.901051 0.426826 0.722326 -0.690877
C56   C     C_3   0.591702 0.970188 0.258348 0.078022
C57   C     C_3   0.498474 0.003148 0.191375 -0.293448
C58   C     C_3   0.598938 0.926828 0.277618 -0.690732
C59   C     C_3   0.408284 0.970195 0.741641 0.078887
C60   C     C_3   0.401034 0.926839 0.722346 -0.691030
C61   C     C_3   0.117503 0.496730 0.085546 0.201332
C62   C     C_3   0.142239 0.456249 0.065888 -0.789846
C63   C     C_3   0.882503 0.496695 0.914439 0.202313
C64   C     C_3   0.857752 0.456204 0.934101 -0.789057
C65   C     C_3   0.617501 0.996718 0.085547 0.201302
C66   C     C_3   0.642233 0.956235 0.065896 -0.789763
C67   C     C_3   0.382503 0.996703 0.914442 0.202230
C68   C     C_3   0.501531 0.003152 0.808619 -0.292982
C69   C     C_3   0.357749 0.956214 0.934104 -0.788868
C70   C     C_3   0.804857 0.406862 0.644376 0.107046
C71   C     C_3   0.836903 0.372059 0.618039 -0.763490
C72   C     C_3   0.195055 0.406741 0.352832 0.115436
C73   C     C_3   0.162944 0.372010 0.378794 -0.769651
C74   C     C_3   0.304879 0.906607 0.645314 0.107254
C75   C     C_3   0.336920 0.871833 0.619379 -0.763785
C76   C     C_3   0.695060 0.906659 0.352500 0.115501
C77   C     C_3   0.662969 0.871919 0.378315 -0.769741
C78   C     C_2   0.706399 0.417312 0.803796 0.950502
C79   C     C_3   0.044409 0.513770 0.171744 0.778306
C80   C     C_2   0.293509 0.417454 0.194547 0.947376
C81   C     C_2   0.206401 0.917358 0.804623 0.950537
C82   C     C_2   0.793509 0.917474 0.194229 0.947383
C83   C     C_3   0.703783 0.582804 0.718204 0.087570
C84   C     C_3   0.676373 0.621360 0.739652 -0.780514
C85   C     C_3   0.296916 0.592648 0.164073 0.085172
C86   C     C_3   0.325360 0.630350 0.143017 -0.780914
C87   C     C_3   0.203621 0.082239 0.717240 0.087523
C88   C     C_3   0.176304 0.120825 0.738151 -0.780416
C89   C     C_3   0.796907 0.092721 0.164453 0.085205
C90   C     C_3   0.955604 0.513761 0.828241 0.778154
C91   C     C_3   0.825362 0.130403 0.143524 -0.780955
C92   C     C_3   0.579854 0.291317 0.824869 0.090370
C93   C     C_3   0.615755 0.320347 0.772012 -0.775992
C94   C     C_3   0.420183 0.291414 0.174898 0.088658
C95   C     C_3   0.384172 0.320322 0.227710 -0.772979
C96   C     C_3   0.080057 0.791366 0.825084 0.090187
C97   C     C_3   0.116018 0.820377 0.772377 -0.775790
C98   C     C_3   0.919984 0.791392 0.174761 0.088607
C99   C     C_3   0.883953 0.820314 0.227449 -0.772947
C100  C     C_2   0.922008 0.536722 0.393712 1.007828
C101  C     C_3   0.544409 0.013765 0.171745 0.778305
C102  C     C_2   0.078021 0.536746 0.606266 1.010562
C103  C     C_2   0.422009 0.036727 0.393710 1.007814
C104  C     C_2   0.578023 0.036741 0.606264 1.010562
C105  C     C_3   0.904091 0.550037 0.242363 0.236015
C106  C     C_3   0.870497 0.523336 0.246181 -0.797398
C107  C     C_3   0.095929 0.550061 0.757651 0.234910
C108  C     C_3   0.129501 0.523366 0.753863 -0.791788
C109  C     C_3   0.404097 0.050047 0.242352 0.236001
C110  C     C_3   0.370501 0.023350 0.246171 -0.797382
C111  C     C_3   0.595932 0.050056 0.757647 0.234909
C112  C     C_R   0.080703 0.499985 0.420719 0.957354
C113  C     C_3   0.455605 0.013764 0.828240 0.778156
C114  C     C_3   0.629503 0.023359 0.753861 -0.791766
C115  C     C_3   0.957819 0.615538 0.242576 0.103466
C116  C     C_3   0.950502 0.643631 0.194523 -0.921134
C117  C     C_3   0.042256 0.615551 0.757361 0.103420
C118  C     C_3   0.049583 0.643649 0.805406 -0.919758
C119  C     C_3   0.457829 0.115542 0.242566 0.103506
C120  C     C_3   0.450517 0.143637 0.194510 -0.921222
C121  C     C_3   0.542263 0.115549 0.757352 0.103474
C122  C     C_3   0.549592 0.143647 0.805395 -0.919873
C123  C     C_3   0.066166 0.571480 0.083214 0.195547
C124  C     C_3   0.983497 0.456669 0.229120 -0.300988
C125  C     C_3   0.089536 0.612591 0.065762 -0.845960
C126  C     C_3   0.933877 0.571466 0.916750 0.194225
C127  C     C_3   0.910543 0.612580 0.934176 -0.841494
C128  C     C_3   0.566172 0.071474 0.083210 0.195549
C129  C     C_3   0.589546 0.112583 0.065757 -0.845950
C130  C     C_3   0.433882 0.071470 0.916747 0.194218
C131  C     C_3   0.410549 0.112584 0.934173 -0.841475
C132  C     C_2   0.940003 0.437883 0.374132 1.015653
C133  C     C_2   0.059974 0.437894 0.625887 1.015613
C134  C     C_2   0.439995 0.937887 0.374142 1.015700
C135  C     C_3   0.016485 0.456678 0.770889 -0.300555
C136  C     C_2   0.559970 0.937890 0.625891 1.015631
C137  C     C_2   0.942519 0.441693 0.238989 1.016234
C138  C     C_2   0.057455 0.441711 0.761025 1.015497
C139  C     C_2   0.442511 0.941699 0.238997 1.016210
C140  C     C_2   0.557452 0.941708 0.761029 1.015463
C141  C     C_3   0.483491 0.956671 0.229127 -0.300955
C142  C     C_3   0.516483 0.956677 0.770892 -0.300526
C143  C     C_R   0.728572 0.457982 0.773810 -0.202393
C144  C     C_R   0.271386 0.458142 0.224375 -0.203275
C145  C     C_R   0.228573 0.957987 0.774189 -0.202231
C146  C     C_R   0.771386 0.958149 0.224224 -0.203281
C147  C     C_R   0.706413 0.495979 0.789325 -0.117184
C148  C     C_R   0.419295 0.999966 0.579293 0.956997
C149  C     C_R   0.293588 0.496088 0.209307 -0.113790
C150  C     C_R   0.206413 0.995946 0.789279 -0.117387
C151  C     C_R   0.793588 0.996081 0.209301 -0.113801
C152  C     C_R   0.727682 0.534082 0.760853 0.480306
C153  C     C_R   0.272401 0.534341 0.236046 0.485374
C154  C     C_R   0.227684 0.034010 0.760353 0.480220
C155  C     C_R   0.772401 0.034325 0.236190 0.485367
C156  C     C_R   0.771133 0.534819 0.719393 -0.346431
C157  C     C_R   0.228905 0.534950 0.279416 -0.349936
C158  C     C_R   0.271132 0.034761 0.718891 -0.345945
C159  C     C_R   0.580703 0.999985 0.420719 0.957361
C160  C     C_R   0.728905 0.034934 0.279564 -0.349905
C161  C     C_R   0.793332 0.497757 0.703905 -0.035854
C162  C     C_R   0.206669 0.497926 0.294556 -0.036003
C163  C     C_R   0.293333 0.997739 0.703842 -0.036011
C164  C     C_R   0.706669 0.997923 0.294564 -0.035997
C165  C     C_R   0.996974 0.500189 0.381618 0.979312
C166  C     C_R   0.003033 0.500192 0.618374 0.979172
C167  C     C_R   0.496973 0.000189 0.381620 0.979291
C168  C     C_R   0.503033 0.000192 0.618373 0.979180
C169  C     C_R   0.772652 0.459181 0.729123 0.425937
C170  C     C_3   0.978903 0.457995 0.306328 -0.294856
C171  C     C_R   0.227310 0.459382 0.268683 0.425308
C172  C     C_R   0.272654 0.959185 0.729489 0.425820
C173  C     C_R   0.727310 0.959388 0.268545 0.425279
C174  C     C_1   0.661797 0.497084 0.836054 0.115653
C175  C     C_1   0.338213 0.497081 0.163544 0.113117
C176  C     C_1   0.161797 0.997063 0.836035 0.115374
C177  C     C_1   0.838212 0.997077 0.163539 0.113157
C178  C     C_1   0.837769 0.499300 0.660694 0.026458
C179  C     C_1   0.162225 0.499430 0.338487 0.024668
C180  C     C_1   0.337769 0.999294 0.660645 0.026495
C181  C     C_3   0.021082 0.458003 0.693677 -0.295409
C182  C     C_1   0.662225 0.999430 0.338496 0.024666
C183  C     C_1   0.875068 0.499868 0.623749 -0.204502
C184  C     C_1   0.124926 0.499942 0.375914 -0.206244
C185  C     C_1   0.375068 0.999867 0.623722 -0.204438
C186  C     C_1   0.624926 0.999942 0.375918 -0.206232
C187  C     C_1   0.624481 0.498447 0.874597 -0.121512
C188  C     C_1   0.375529 0.498418 0.125347 -0.122002
C189  C     C_1   0.124481 0.998436 0.874591 -0.121626
C190  C     C_1   0.875529 0.998416 0.125346 -0.121993
C191  C     C_1   0.499885 0.661982 0.000104 -0.063078
C192  C     C_3   0.478897 0.957996 0.306336 -0.294921
C193  C     C_1   0.999882 0.161982 0.000108 -0.063042
C194  C     C_R   0.000007 0.580650 0.999994 0.876590
C195  C     C_R   0.500007 0.080650 0.999995 0.876584
C196  C     C_R   0.999728 0.502479 0.121798 0.978950
C197  C     C_R   0.000275 0.502482 0.878199 0.978966
C198  C     C_R   0.499728 0.002479 0.121799 0.978950
C199  C     C_R   0.500275 0.002482 0.878199 0.978960
C200  C     C_1   0.999928 0.337644 0.000050 -0.052110
C201  C     C_1   0.499929 0.837644 0.000048 -0.052140
C202  C     C_R   0.999991 0.419231 0.000003 1.100132
C203  C     C_3   0.521080 0.958002 0.693680 -0.295429
C204  C     C_R   0.499991 0.919231 0.000003 1.100127
C205  C     C_1   0.999965 0.374978 0.000018 -0.113777
C206  C     C_1   0.499966 0.874978 0.000017 -0.113777
C207  C     C_R   0.500000 0.419719 0.999997 0.893564
C208  C     C_R   0.000000 0.919719 0.999997 0.893577
C209  C     C_R   0.580259 0.499771 0.919528 0.884542
C210  C     C_R   0.419745 0.499753 0.080469 0.883478
C211  C     C_R   0.080259 0.999769 0.919527 0.884582
C212  C     C_R   0.919745 0.999753 0.080469 0.883466
C213  C     C_R   0.499986 0.580338 0.000014 0.890871
C214  C     C_3   0.995117 0.501325 0.315188 -0.307502
C215  C     C_R   0.999986 0.080338 0.000014 0.890877
C216  C     C_R   0.536403 0.271846 0.946235 0.429644
C217  C     C_R   0.463609 0.271813 0.053625 0.429675
C218  C     C_R   0.036447 0.771847 0.946389 0.429586
C219  C     C_R   0.963579 0.771813 0.053509 0.429713
C220  C     C_R   0.500006 0.293486 0.999937 -0.077651
C221  C     C_R   0.000012 0.793486 0.999954 -0.077671
C222  C     C_R   0.963589 0.728128 0.052281 -0.294914
C223  C     C_R   0.036448 0.728161 0.947629 -0.295298
C224  C     C_R   0.463617 0.228129 0.052406 -0.294897
H1    H     H_    0.787488 0.564392 0.699439 0.184388
H2    H     H_    0.983577 0.288304 0.920649 0.157153
H3    H     H_    0.674623 0.630882 0.692542 0.206113
H4    H     H_    0.644330 0.614456 0.788848 0.254997
H5    H     H_    0.265483 0.603881 0.181466 0.143603
H6    H     H_    0.310331 0.572475 0.113746 0.133620
H7    H     H_    0.357161 0.620019 0.124523 0.253447
H8    H     H_    0.327513 0.647709 0.096881 0.204390
H9    H     H_    0.312649 0.651499 0.191666 0.262858
H10   H     H_    0.189460 0.056695 0.703666 0.139445
H11   H     H_    0.235294 0.089687 0.667040 0.145948
H12   H     H_    0.189816 0.147152 0.751077 0.261421
H13   H     H_    0.515562 0.788321 0.080410 0.158257
H14   H     H_    0.174398 0.129960 0.691051 0.206088
H15   H     H_    0.144303 0.114155 0.787678 0.255092
H16   H     H_    0.765473 0.103989 0.181913 0.143621
H17   H     H_    0.810307 0.072616 0.114050 0.133601
H18   H     H_    0.857164 0.120039 0.124964 0.253432
H19   H     H_    0.827505 0.147845 0.097470 0.204373
H20   H     H_    0.812666 0.151484 0.192254 0.262877
H21   H     H_    0.551795 0.301353 0.826715 0.140454
H22   H     H_    0.588629 0.258979 0.802354 0.140123
H23   H     H_    0.644407 0.311125 0.768374 0.260494
H24   H     H_    0.484191 0.788303 0.919807 0.157309
H25   H     H_    0.622072 0.318542 0.715639 0.206119
H26   H     H_    0.607545 0.353045 0.792344 0.265340
H27   H     H_    0.448218 0.301676 0.172964 0.140969
H28   H     H_    0.411552 0.259077 0.197504 0.139589
H29   H     H_    0.355540 0.310866 0.231446 0.259821
H30   H     H_    0.377901 0.318665 0.284059 0.206241
H31   H     H_    0.392230 0.353018 0.207266 0.266236
H32   H     H_    0.052060 0.801452 0.826769 0.140473
H33   H     H_    0.088828 0.759031 0.802548 0.140135
H34   H     H_    0.144611 0.811106 0.768900 0.260477
H35   H     H_    0.515541 0.711371 0.080440 0.150899
H36   H     H_    0.122431 0.818613 0.715929 0.206044
H37   H     H_    0.107816 0.853073 0.792733 0.265506
H38   H     H_    0.947966 0.801626 0.173024 0.140965
H39   H     H_    0.911303 0.759054 0.197346 0.139608
H40   H     H_    0.855372 0.810887 0.230985 0.259826
H41   H     H_    0.877569 0.818636 0.283881 0.206228
H42   H     H_    0.892060 0.853011 0.207032 0.266299
H43   H     H_    0.886122 0.544670 0.505129 0.334533
H44   H     H_    0.113890 0.544597 0.494819 0.337977
H45   H     H_    0.386122 0.044685 0.505125 0.334551
H46   H     H_    0.484155 0.711349 0.919851 0.147604
H47   H     H_    0.613893 0.044593 0.494817 0.337974
H48   H     H_    0.924956 0.561423 0.184438 0.182427
H49   H     H_    0.887298 0.576180 0.281592 0.132732
H50   H     H_    0.847933 0.512168 0.304053 0.271953
H51   H     H_    0.853365 0.542182 0.228950 0.176861
H52   H     H_    0.884644 0.495985 0.208527 0.264367
H53   H     H_    0.075061 0.561440 0.815571 0.181970
H54   H     H_    0.112742 0.576211 0.718422 0.135150
H55   H     H_    0.152068 0.512208 0.695995 0.274092
H56   H     H_    0.146633 0.542213 0.771112 0.177052
H57   H     H_    0.016148 0.211371 0.079608 0.150881
H58   H     H_    0.115335 0.496008 0.791517 0.263290
H59   H     H_    0.424965 0.061430 0.184426 0.182430
H60   H     H_    0.387306 0.076193 0.281576 0.132736
H61   H     H_    0.347935 0.012185 0.304045 0.271945
H62   H     H_    0.353372 0.042197 0.228934 0.176868
H63   H     H_    0.384645 0.995996 0.208522 0.264369
H64   H     H_    0.575065 0.061437 0.815566 0.181973
H65   H     H_    0.612747 0.076204 0.718415 0.135163
H66   H     H_    0.652069 0.012199 0.695994 0.274098
H67   H     H_    0.646636 0.042206 0.771108 0.177066
H68   H     H_    0.983539 0.211349 0.920695 0.147567
H69   H     H_    0.615335 0.996002 0.791517 0.263285
H70   H     H_    0.979129 0.634473 0.249786 0.208198
H71   H     H_    0.928510 0.610591 0.298379 0.135166
H72   H     H_    0.928833 0.629736 0.182663 0.235477
H73   H     H_    0.936885 0.673773 0.223661 0.221500
H74   H     H_    0.980862 0.650250 0.141355 0.274819
H75   H     H_    0.020964 0.634482 0.750124 0.208198
H76   H     H_    0.071564 0.610604 0.701567 0.136540
H77   H     H_    0.071231 0.629756 0.817300 0.235562
H78   H     H_    0.063230 0.673789 0.776245 0.221988
H79   H     H_    0.057964 0.531344 0.252505 0.139573
H80   H     H_    0.019223 0.650272 0.858558 0.274496
H81   H     H_    0.479141 0.134475 0.249777 0.208190
H82   H     H_    0.428520 0.110597 0.298368 0.135176
H83   H     H_    0.428848 0.129744 0.182647 0.235502
H84   H     H_    0.436902 0.173780 0.223645 0.221481
H85   H     H_    0.480879 0.150253 0.141343 0.274809
H86   H     H_    0.520972 0.134482 0.750115 0.208189
H87   H     H_    0.571571 0.110600 0.701558 0.136537
H88   H     H_    0.571241 0.129753 0.817287 0.235590
H89   H     H_    0.563239 0.173786 0.776233 0.221946
H90   H     H_    0.942066 0.531338 0.747468 0.140434
H91   H     H_    0.519233 0.150271 0.858547 0.274493
H92   H     H_    0.038146 0.577781 0.083547 0.188131
H93   H     H_    0.086107 0.550005 0.036622 0.143973
H94   H     H_    0.118743 0.607798 0.062801 0.246039
H95   H     H_    0.097613 0.624842 0.011447 0.207934
H96   H     H_    0.069645 0.635860 0.109878 0.279052
H97   H     H_    0.961902 0.577765 0.916417 0.188030
H98   H     H_    0.913916 0.549991 0.963353 0.144000
H99   H     H_    0.881333 0.607791 0.937137 0.247963
H100  H     H_    0.902475 0.624830 0.988485 0.207377
H101  H     H_    0.557964 0.031338 0.252505 0.139572
H102  H     H_    0.930456 0.635848 0.890048 0.278862
H103  H     H_    0.538153 0.077779 0.083541 0.188135
H104  H     H_    0.586112 0.049998 0.036620 0.143972
H105  H     H_    0.618752 0.107787 0.062798 0.246046
H106  H     H_    0.597626 0.124834 0.011440 0.207954
H107  H     H_    0.569657 0.135853 0.109870 0.279040
H108  H     H_    0.461907 0.077767 0.916412 0.188026
H109  H     H_    0.413920 0.049996 0.963350 0.144005
H110  H     H_    0.381339 0.107796 0.937135 0.247965
H111  H     H_    0.402483 0.124834 0.988481 0.207395
H112  H     H_    0.212537 0.564385 0.301130 0.183502
H113  H     H_    0.442069 0.031344 0.747465 0.140439
H114  H     H_    0.430463 0.135852 0.890043 0.278854
H115  H     H_    0.892918 0.439771 0.483222 0.335781
H116  H     H_    0.107090 0.439794 0.516804 0.336516
H117  H     H_    0.392908 0.939777 0.483235 0.335799
H118  H     H_    0.607088 0.939786 0.516807 0.336529
H119  H     H_    0.879368 0.438407 0.302339 0.338970
H120  H     H_    0.120604 0.438446 0.697679 0.339766
H121  H     H_    0.379361 0.938421 0.302347 0.338982
H122  H     H_    0.620600 0.938440 0.697683 0.339766
H123  H     H_    0.001056 0.435432 0.303834 0.234221
H124  H     H_    0.998917 0.435436 0.696181 0.234304
H125  H     H_    0.501047 0.935432 0.303843 0.234225
H126  H     H_    0.498913 0.935437 0.696186 0.234308
H127  H     H_    0.032661 0.622580 0.287179 0.339825
H128  H     H_    0.967423 0.622579 0.712757 0.340664
H129  H     H_    0.532670 0.122576 0.287172 0.339819
H130  H     H_    0.467431 0.122582 0.712751 0.340666
H131  H     H_    0.051377 0.396985 0.075033 0.337763
H132  H     H_    0.287486 0.064316 0.698588 0.184528
H133  H     H_    0.948575 0.396974 0.924998 0.337346
H134  H     H_    0.551368 0.896981 0.075045 0.337789
H135  H     H_    0.448571 0.896977 0.925003 0.337382
H136  H     H_    0.079123 0.490635 0.307257 0.114775
H137  H     H_    0.122289 0.483111 0.212986 0.136950
H138  H     H_    0.112068 0.405744 0.228863 0.249343
H139  H     H_    0.121314 0.428637 0.293776 0.223480
H140  H     H_    0.068985 0.413553 0.324639 0.260762
H141  H     H_    0.920873 0.490646 0.692740 0.115026
H142  H     H_    0.877705 0.483074 0.787000 0.139697
H143  H     H_    0.712536 0.064360 0.301391 0.183495
H144  H     H_    0.887887 0.405726 0.771084 0.248877
H145  H     H_    0.878710 0.428626 0.706092 0.223545
H146  H     H_    0.931014 0.413557 0.675341 0.260728
H147  H     H_    0.579122 0.990629 0.307258 0.114771
H148  H     H_    0.622286 0.983104 0.212986 0.136976
H149  H     H_    0.612063 0.905737 0.228869 0.249365
H150  H     H_    0.621315 0.928633 0.293770 0.223531
H151  H     H_    0.568984 0.913549 0.324647 0.260731
H152  H     H_    0.420871 0.990654 0.692741 0.115005
H153  H     H_    0.377703 0.983093 0.787006 0.139763
H154  H     H_    0.064731 0.711160 0.907865 0.167660
H155  H     H_    0.387873 0.905741 0.771104 0.248967
H156  H     H_    0.378684 0.928646 0.706132 0.223686
H157  H     H_    0.430990 0.913566 0.675352 0.260648
H158  H     H_    0.120750 0.515592 0.124641 0.123917
H159  H     H_    0.132755 0.514645 0.032953 0.114788
H160  H     H_    0.144126 0.440820 0.018452 0.247595
H161  H     H_    0.174386 0.463043 0.049738 0.195047
H162  H     H_    0.126999 0.434378 0.113628 0.294019
H163  H     H_    0.879264 0.515556 0.875339 0.126153
H164  H     H_    0.867257 0.514603 0.967029 0.115730
H165  H     H_    0.935308 0.711103 0.092047 0.167581
H166  H     H_    0.855866 0.440768 0.981528 0.246919
H167  H     H_    0.825604 0.462986 0.950265 0.197955
H168  H     H_    0.872979 0.434344 0.886357 0.293442
H169  H     H_    0.620751 0.015581 0.124638 0.123922
H170  H     H_    0.632756 0.014630 0.032951 0.114799
H171  H     H_    0.644121 0.940806 0.018461 0.247587
H172  H     H_    0.674380 0.963026 0.049748 0.195082
H173  H     H_    0.626990 0.934365 0.113638 0.294020
H174  H     H_    0.379264 0.015567 0.875344 0.126163
H175  H     H_    0.367259 0.014609 0.967033 0.115741
H176  H     H_    0.564666 0.211158 0.907611 0.167687
H177  H     H_    0.355861 0.940777 0.981532 0.246903
H178  H     H_    0.325602 0.962998 0.950265 0.198015
H179  H     H_    0.372975 0.934353 0.886361 0.293449
H180  H     H_    0.818236 0.431166 0.599911 0.130809
H181  H     H_    0.776075 0.393816 0.652160 0.150466
H182  H     H_    0.824404 0.346760 0.660308 0.268948
H183  H     H_    0.844164 0.358996 0.564756 0.217668
H184  H     H_    0.866123 0.384501 0.609074 0.251222
H185  H     H_    0.181733 0.430854 0.397597 0.134148
H186  H     H_    0.223817 0.393529 0.344867 0.152407
H187  H     H_    0.435360 0.211105 0.092281 0.167630
H188  H     H_    0.175348 0.346923 0.336164 0.269690
H189  H     H_    0.155746 0.358610 0.431826 0.217448
H190  H     H_    0.133704 0.384626 0.388106 0.251389
H191  H     H_    0.318273 0.930753 0.600581 0.130706
H192  H     H_    0.276103 0.893457 0.653213 0.150399
H193  H     H_    0.324423 0.846697 0.661948 0.268951
H194  H     H_    0.344169 0.858517 0.566260 0.217449
H195  H     H_    0.366147 0.884380 0.610246 0.251092
H196  H     H_    0.681720 0.930715 0.397362 0.134134
H197  H     H_    0.723828 0.893431 0.344489 0.152346
H198  H     H_    0.016170 0.288321 0.079578 0.158110
H199  H     H_    0.675387 0.846893 0.335575 0.269697
H200  H     H_    0.655785 0.858435 0.431285 0.217351
H201  H     H_    0.633720 0.884552 0.387692 0.251340
H202  H     H_    0.656390 0.381494 0.833891 0.350337
H203  H     H_    0.343235 0.381455 0.165397 0.349701
H204  H     H_    0.156399 0.881430 0.835085 0.350398
H205  H     H_    0.843243 0.881442 0.164893 0.349699
H206  H     H_    0.689792 0.557435 0.703931 0.139361
H207  H     H_    0.735493 0.590485 0.668322 0.145957
H208  H     H_    0.689705 0.647511 0.753324 0.261477
O1    O     O_R   0.939010 0.534400 0.560970 -0.585595
O2    O     O_R   0.439030 0.499940 0.008670 -0.618023
O3    O     O_R   0.583417 0.044770 0.538345 -0.745994
O4    O     O_3   0.925592 0.525815 0.264978 -0.576427
O5    O     O_3   0.074426 0.525839 0.735015 -0.576936
O6    O     O_3   0.425593 0.025823 0.264975 -0.576431
O7    O     O_3   0.574427 0.025835 0.735013 -0.576939
O8    O     O_3   0.978646 0.577912 0.204334 -0.668110
O9    O     O_3   0.021399 0.577924 0.795624 -0.668214
O10   O     O_3   0.478654 0.077914 0.204328 -0.668112
O11   O     O_3   0.521404 0.077924 0.795619 -0.668210
O12   O     O_3   0.055353 0.557086 0.153736 -0.618450
O13   O     O_R   0.060970 0.999940 0.991330 -0.609302
O14   O     O_3   0.944679 0.557074 0.846236 -0.618069
O15   O     O_3   0.555358 0.057080 0.153734 -0.618452
O16   O     O_3   0.444682 0.057078 0.846233 -0.618068
O17   O     O_2   0.931196 0.401895 0.369068 -0.614770
O18   O     O_R   0.916799 0.457612 0.443354 -0.789724
O19   O     O_2   0.068748 0.401905 0.630974 -0.614953
O20   O     O_R   0.083211 0.457628 0.556657 -0.789120
O21   O     O_2   0.431185 0.901901 0.369078 -0.614711
O22   O     O_R   0.416791 0.957616 0.443365 -0.789681
O23   O     O_2   0.568741 0.901901 0.630981 -0.614965
O24   O     O_R   0.939030 0.999940 0.008670 -0.617986
O25   O     O_R   0.583210 0.957622 0.556659 -0.789089
O26   O     O_2   0.944132 0.420678 0.190470 -0.629715
O27   O     O_R   0.903062 0.451078 0.303009 -0.714984
O28   O     O_2   0.055831 0.420688 0.809545 -0.629719
O29   O     O_R   0.096917 0.451111 0.697006 -0.714164
O30   O     O_2   0.444123 0.920682 0.190482 -0.629744
O31   O     O_R   0.403055 0.951089 0.303016 -0.714949
O32   O     O_2   0.555826 0.920686 0.809550 -0.629764
O33   O     O_R   0.596914 0.951106 0.697009 -0.714152
O34   O     O_R   0.500000 0.561000 0.947810 -0.617011
O35   O     O_R   0.500000 0.561000 0.052190 -0.609876
O36   O     O_R   1.000000 0.061000 0.947810 -0.616998
O37   O     O_R   0.000000 0.061000 0.052190 -0.609877
O38   O     O_R   0.938970 0.465540 0.561010 -0.626029
O39   O     O_R   0.061030 0.465540 0.438990 -0.625996
O40   O     O_R   0.438970 0.965540 0.561010 -0.626091
O41   O     O_R   0.060990 0.534400 0.439030 -0.586458
O42   O     O_R   0.561030 0.965540 0.438990 -0.626006
O43   O     O_R   0.999990 0.534400 0.407410 -0.601042
O44   O     O_R   0.000010 0.534400 0.592590 -0.600827
O45   O     O_R   0.499990 0.034400 0.407410 -0.601041
O46   O     O_R   0.500010 0.034400 0.592590 -0.600828
O47   O     O_R   0.999950 0.465540 0.407450 -0.623352
O48   O     O_R   0.000050 0.465540 0.592550 -0.623482
O49   O     O_R   0.499950 0.965540 0.407450 -0.623353
O50   O     O_R   0.500050 0.965540 0.592550 -0.623473
O51   O     O_R   0.965540 0.560940 0.034450 -0.664595
O52   O     O_R   0.439010 0.034400 0.560970 -0.585570
O53   O     O_R   0.034460 0.560940 0.965550 -0.664638
O54   O     O_R   0.465540 0.060940 0.034450 -0.664601
O55   O     O_R   0.534460 0.060940 0.965550 -0.664628
O56   O     O_R   0.965550 0.499950 0.127040 -0.611430
O57   O     O_R   0.034450 0.499950 0.872960 -0.611539
O58   O     O_R   0.465550 0.999950 0.127040 -0.611432
O59   O     O_R   0.534450 0.999950 0.872960 -0.611536
O60   O     O_R   0.034410 0.500000 0.058200 -0.595571
O61   O     O_R   0.965590 0.500000 0.941800 -0.595538
O62   O     O_R   0.534410 0.000000 0.058200 -0.595577
O63   O     O_R   0.560990 0.034400 0.439030 -0.586455
O64   O     O_R   0.465590 0.000000 0.941800 -0.595532
O65   O     O_R   0.965550 0.438960 0.034430 -0.582764
O66   O     O_R   0.034450 0.438960 0.965570 -0.582567
O67   O     O_R   0.465550 0.938960 0.034430 -0.582750
O68   O     O_R   0.534450 0.938960 0.965570 -0.582570
O69   O     O_R   0.499940 0.439020 0.947690 -0.610163
O70   O     O_R   0.500060 0.439020 0.052310 -0.610000
O71   O     O_R   0.999940 0.939020 0.947690 -0.610186
O72   O     O_R   0.000060 0.939020 0.052310 -0.609972
O73   O     O_2   0.961913 0.606406 0.378311 -0.620385
O74   O     O_R   0.560960 0.500010 0.886780 -0.613822
O75   O     O_R   0.025687 0.594481 0.275363 -0.776928
O76   O     O_2   0.038153 0.606400 0.621597 -0.619254
O77   O     O_R   0.974382 0.594485 0.724595 -0.775947
O78   O     O_2   0.461920 0.106409 0.378304 -0.620369
O79   O     O_R   0.525694 0.094478 0.275359 -0.776933
O80   O     O_2   0.538159 0.106398 0.621589 -0.619257
O81   O     O_R   0.474388 0.094488 0.724591 -0.775942
O82   O     O_2   0.028948 0.396814 0.201369 -0.604612
O83   O     O_R   0.030523 0.420397 0.102727 -0.770508
O84   O     O_2   0.970992 0.396817 0.798668 -0.605612
O85   O     O_R   0.439040 0.500010 0.113220 -0.603923
O86   O     O_R   0.969444 0.420390 0.897293 -0.770584
O87   O     O_2   0.528934 0.896809 0.201384 -0.604630
O88   O     O_R   0.530516 0.920395 0.102737 -0.770515
O89   O     O_2   0.470984 0.896821 0.798675 -0.605624
O90   O     O_R   0.469442 0.920390 0.897297 -0.770582
O91   O     O_3   0.064294 0.467037 0.235419 -0.596125
O92   O     O_3   0.935694 0.467029 0.764571 -0.596735
O93   O     O_3   0.564289 0.967031 0.235426 -0.596132
O94   O     O_3   0.435692 0.967035 0.764571 -0.596746
O95   O     O_3   0.075347 0.487237 0.112593 -0.590562
O96   O     O_R   0.060960 0.000010 0.886780 -0.613951
O97   O     O_3   0.924654 0.487218 0.887397 -0.591221
O98   O     O_3   0.575345 0.987229 0.112596 -0.590562
O99   O     O_3   0.424653 0.987222 0.887397 -0.591222
O100  O     O_3   0.795788 0.422933 0.712371 -0.575328
O101  O     O_3   0.204132 0.423174 0.285038 -0.578240
O102  O     O_3   0.295790 0.922974 0.713147 -0.575474
O103  O     O_3   0.704131 0.923193 0.284770 -0.578285
O104  O     O_2   0.721731 0.389752 0.819929 -0.571246
O105  O     O_R   0.668234 0.410228 0.812943 -0.827235
O106  O     O_2   0.278353 0.390025 0.177784 -0.574162
O107  O     O_R   0.939040 0.000010 0.113220 -0.603948
O108  O     O_R   0.331414 0.410197 0.186276 -0.821207
O109  O     O_2   0.221730 0.889962 0.821068 -0.571294
O110  O     O_R   0.168240 0.910120 0.813831 -0.827332
O111  O     O_2   0.778345 0.890103 0.177376 -0.574183
O112  O     O_R   0.831422 0.910166 0.185898 -0.821275
O113  O     O_3   0.705746 0.571163 0.778548 -0.595341
O114  O     O_3   0.294416 0.571019 0.222873 -0.591500
O115  O     O_3   0.205759 0.071070 0.777582 -0.595301
O116  O     O_3   0.794417 0.070986 0.223156 -0.591491
O117  O     O_3   0.572568 0.293627 0.895976 -0.595063
O118  O     O_R   0.560970 0.499940 0.991330 -0.609354
O119  O     O_3   0.427422 0.293552 0.103817 -0.595066
O120  O     O_3   0.072647 0.793626 0.896290 -0.595092
O121  O     O_3   0.927365 0.793553 0.103573 -0.595075
O122  O     O_2   0.890837 0.527937 0.395614 -0.559636
O123  O     O_R   0.916602 0.544830 0.461619 -0.746240
O124  O     O_2   0.109203 0.528064 0.604377 -0.553354
O125  O     O_R   0.083414 0.544775 0.538348 -0.745985
O126  O     O_2   0.390839 0.027940 0.395612 -0.559579
O127  O     O_R   0.416603 0.044840 0.461616 -0.746233
O128  O     O_2   0.609204 0.028058 0.604376 -0.553330
Zn1   Zn    Zn3+2 0.000000 0.545950 0.500000 1.081019
Zn2   Zn    Zn3+2 0.500030 0.500020 0.069780 0.996901
Zn3   Zn    Zn3+2 0.999970 0.000020 0.930220 0.980185
Zn4   Zn    Zn3+2 0.000030 0.000020 0.069780 0.996937
Zn5   Zn    Zn3+2 0.500000 0.045950 0.500000 1.081037
Zn6   Zn    Zn3+2 1.000000 0.454000 0.500000 0.979466
Zn7   Zn    Zn3+2 0.500000 0.954000 0.500000 0.979402
Zn8   Zn    Zn3+2 0.954000 0.499940 0.045990 0.968422
Zn9   Zn    Zn3+2 0.046000 0.499940 0.954010 0.968564
Zn10  Zn    Zn3+2 0.454000 0.999940 0.045990 0.968440
Zn11  Zn    Zn3+2 0.546000 0.999940 0.954010 0.968567
Zn12  Zn    Zn3+2 0.499970 0.500020 0.930220 0.980241

loop_
_geom_bond_atom_site_label_1
_geom_bond_atom_site_label_2
_ccdc_geom_bond_type
C94   O119  S    
C96   O120  S    
C126  C127  S    
C119  H82   S    
C18   C21   A    
C32   C45   S    
C53   H139  S    
C133  O19   D    
C159  O42   A    
C76   H197  S    
C112  C184  S    
C157  H112  S    
C181  H124  S    
C86   H7    S    
C159  C186  S    
C35   C124  S    
C11   C195  S    
H128  O77   S    
C154  C158  A    
H47   O3    S    
O64   Zn10  S    
C81   O109  D    
C129  H106  S    
C100  O122  D    
C166  O44   A    
C17   C29   A    
C118  H78   S    
C34   C35   S    
C90   O14   S    
O57   Zn9   S    
C113  O16   S    
C190  C212  S    
C52   H136  S    
C175  C188  T    
C188  C210  S    
C3    H176  S    
C152  C156  A    
H44   O125  S    
C201  C206  T    
C55   H146  S    
O41   Zn1   S    
C95   H29   S    
C50   C141  S    
C97   H37   S    
C99   H42   S    
C196  O60   A    
C215  O37   A    
C143  C169  A    
C59   C60   S    
C117  O9    S    
H133  O86   S    
C115  H70   S    
C132  C170  S    
O53   Zn9   S    
C51   O89   D    
C107  H54   S    
C25   C29   A    
C86   H9    S    
C27   H198  S    
C165  C214  S    
C158  H132  S    
C124  C137  S    
C85   H5    S    
O13   Zn4   S    
C31   C44   S    
C83   H206  S    
H127  O75   S    
O38   Zn6   S    
C92   H22   S    
C84   H208  S    
C88   H15   S    
C61   O95   S    
C17   C21   A    
C149  C175  S    
C59   H153  S    
C134  O21   D    
C125  H94   S    
C110  H62   S    
C119  C120  S    
C113  O99   S    
C164  C173  A    
C85   O114  S    
O66   Zn9   S    
H118  O25   S    
C48   O82   D    
C35   C196  S    
C70   O100  S    
C170  C214  S    
H130  O81   S    
C33   C47   S    
H134  O88   S    
C30   C43   S    
C104  O3    S    
C58   H150  S    
C207  O69   A    
C123  O12   S    
C60   H156  S    
C126  H98   S    
C1    O1    A    
C44   O76   D    
C71   H183  S    
C106  H51   S    
C72   C73   S    
O69   Zn12  S    
C94   H28   S    
C34   O8    S    
C125  H95   S    
O46   Zn5   S    
C63   H163  S    
C215  O36   A    
C117  H75   S    
C33   C38   S    
C111  H65   S    
C213  O34   A    
H115  O18   S    
C130  C131  S    
C212  O24   A    
C132  O18   S    
C194  O53   A    
C176  C189  T    
C210  O85   A    
C56   O93   S    
C204  O68   A    
O68   Zn11  S    
C21   C191  S    
O44   Zn1   S    
C2    C40   S    
C114  H69   S    
C8    C10   T    
C98   C99   S    
C198  O58   A    
C120  H85   S    
C31   C36   S    
C137  O27   S    
C157  C162  A    
C37   C57   S    
O74   Zn12  S    
C195  O54   A    
O34   Zn12  S    
C42   O94   S    
C78   O105  S    
C123  H93   S    
C33   C104  S    
C89   O116  S    
C37   O10   S    
C128  C129  S    
O39   Zn6   S    
C1    C183  S    
C147  C174  S    
C87   H11   S    
C218  C223  A    
C85   C86   S    
C82   O111  D    
C110  H61   S    
C144  C171  A    
O51   Zn8   S    
C65   H170  S    
C40   O92   S    
C123  H92   S    
C125  H96   S    
C25   C201  S    
C55   H144  S    
C182  C186  T    
C7    C221  S    
C101  O98   S    
C76   H196  S    
C115  C116  S    
C207  O70   A    
C30   C100  S    
H204  O110  S    
C149  C153  A    
C72   H185  S    
C93   H23   S    
O45   Zn5   S    
C74   O102  S    
C187  C209  S    
C168  O46   A    
C80   C144  S    
C111  H64   S    
O47   Zn6   S    
C68   C142  S    
C160  H143  S    
C127  H99   S    
C89   C91   S    
C145  C150  A    
C76   O103  S    
C128  O15   S    
C161  C169  A    
C105  H48   S    
C65   O98   S    
C208  O71   A    
C88   H14   S    
C89   H16   S    
C141  C192  S    
C47   O81   S    
O37   Zn4   S    
C37   O6    S    
C73   H188  S    
C56   H147  S    
C97   H34   S    
C64   H166  S    
C120  H84   S    
C19   H57   S    
C114  H66   S    
C30   C34   S    
C115  H71   S    
C20   H68   S    
C127  H102  S    
C18   C28   A    
C96   H32   S    
C77   H201  S    
C216  O117  S    
C159  O63   A    
C121  H86   S    
C23   C200  S    
C211  O13   A    
C165  O43   A    
C2    C181  S    
C109  O6    S    
C5    C9    S    
C83   H207  S    
C155  O116  S    
C69   H177  S    
C98   H38   S    
C83   C84   S    
H131  O83   S    
C67   H175  S    
C199  O64   A    
C128  H103  S    
C32   C37   S    
C77   H200  S    
O52   Zn5   S    
O54   Zn10  S    
C158  C163  A    
C75   H194  S    
C6    C220  S    
O61   Zn8   S    
C133  C181  S    
O56   Zn8   S    
C156  C161  A    
C151  C155  A    
C167  O49   A    
C135  C181  S    
C38   O11   S    
C154  O115  S    
C18   H46   S    
O107  Zn4   S    
C218  C221  A    
C72   O101  S    
C54   C55   S    
C167  O45   A    
C136  O23   D    
C177  C190  T    
C119  H81   S    
C218  O120  S    
C197  O61   A    
C53   H138  S    
C103  O126  D    
C66   H171  S    
C216  C220  A    
C91   H19   S    
C116  H73   S    
C209  O118  A    
C153  O114  S    
C41   O93   S    
C74   H192  S    
C4    C223  A    
C57   C101  S    
C105  H49   S    
C64   H167  S    
C109  H59   S    
C117  C118  S    
C219  C222  A    
C139  C141  S    
C62   H161  S    
H121  O31   S    
H205  O112  S    
C35   C79   S    
C120  H83   S    
C56   C58   S    
C140  O33   S    
O1    Zn1   S    
C50   O87   D    
C174  C187  T    
O72   Zn4   S    
C61   C62   S    
C54   O92   S    
C146  C151  A    
C5    C224  A    
C130  H108  S    
C91   H20   S    
C19   C22   A    
O67   Zn10  S    
C55   H145  S    
C202  O65   A    
C73   H190  S    
C136  C203  S    
C15   C207  S    
C38   O7    S    
H203  O108  S    
C54   H141  S    
C102  O125  S    
C129  H107  S    
C156  H1    S    
C87   C88   S    
C24   C203  S    
C200  C205  T    
C139  O30   D    
C199  O59   A    
C60   H155  S    
C24   C42   S    
H119  O27   S    
O2    Zn12  S    
C13   C41   S    
C195  O55   A    
C61   H159  S    
C130  H109  S    
C52   C53   S    
C25   C28   A    
C122  H91   S    
C13   C192  S    
C45   O79   S    
C68   C199  S    
C160  C164  A    
C140  C142  S    
C179  C184  T    
C10   C194  S    
C69   H179  S    
C123  C125  S    
C70   H180  S    
C105  O4    S    
C165  O47   A    
C28   H24   S    
H135  O90   S    
C134  O22   S    
C13   C32   S    
O35   Zn2   S    
C46   C135  S    
C131  H110  S    
C217  O119  S    
C110  H63   S    
C101  O15   S    
C202  C205  S    
C22   C193  S    
C70   C71   S    
C17   H35   S    
C108  H55   S    
C2    C166  S    
C178  C183  T    
C68   C113  S    
C119  O10   S    
C62   H160  S    
C53   H140  S    
C95   H31   S    
C138  O28   D    
C12   C213  S    
C133  O20   S    
C58   H151  S    
C82   C146  S    
C90   O97   S    
C67   O99   S    
O62   Zn11  S    
C31   C102  S    
C43   O75   S    
H202  O105  S    
C106  H52   S    
O42   Zn7   S    
O48   Zn6   S    
C1    O38   A    
O40   Zn7   S    
C81   O110  S    
C148  C185  S    
C98   O121  S    
C118  H77   S    
C173  O103  S    
C39   C79   S    
C23   C26   A    
C80   O106  D    
C59   H152  S    
C30   C214  S    
C126  H97   S    
C91   H18   S    
C112  O41   A    
C122  H88   S    
C32   C103  S    
H43   O123  S    
C95   H30   S    
C121  C122  S    
C74   H191  S    
C107  O5    S    
O70   Zn2   S    
C7    C16   T    
C14   C193  T    
C38   C68   S    
C99   H40   S    
C102  O124  D    
C49   O84   D    
C137  O26   D    
C51   O90   S    
O59   Zn11  S    
C46   C197  S    
C75   H195  S    
C112  O39   A    
C126  O14   S    
C12   C191  T    
C93   H26   S    
C116  H72   S    
C122  H89   S    
C85   H6    S    
C3    C5    A    
H122  O33   S    
C87   O115  S    
C92   H21   S    
C46   C90   S    
C82   O112  S    
C105  C106  S    
C24   C33   S    
C171  O101  S    
C57   C141  S    
C209  O74   A    
C65   H169  S    
C131  H114  S    
C103  O127  S    
C3    C216  A    
C86   H8    S    
C79   O12   S    
C104  O128  D    
C109  C110  S    
C67   H174  S    
O55   Zn11  S    
C211  O96   A    
C42   H113  S    
C26   H2    S    
C40   H90   S    
C4    C222  A    
C148  O40   A    
C92   C93   S    
C41   C101  S    
C111  C114  S    
C153  C157  A    
C94   C95   S    
C172  O102  S    
C72   H186  S    
H117  O22   S    
C166  O48   A    
C197  O57   A    
O24   Zn3   S    
C40   C90   S    
C161  C178  S    
C58   H149  S    
C79   O95   S    
O71   Zn3   S    
C194  O51   A    
C135  C138  S    
C150  C176  S    
C208  O72   A    
C57   C198  S    
C121  O11   S    
C43   O73   D    
C71   H184  S    
C106  H50   S    
O96   Zn3   S    
H120  O29   S    
C4    C8    S    
C129  H105  S    
C94   H27   S    
C111  O7    S    
C56   H148  S    
C63   H164  S    
C100  O123  S    
C143  C147  A    
C70   H181  S    
C117  H76   S    
C114  H67   S    
C87   H10   S    
C139  O31   S    
C213  O35   A    
C41   H101  S    
C24   C168  S    
C52   H137  S    
C80   O108  S    
C132  O17   D    
C13   C167  S    
O65   Zn8   S    
C217  C220  A    
C146  C173  A    
C204  O67   A    
C151  C177  S    
C39   H79   S    
C134  C192  S    
C6    C15   T    
C98   H39   S    
C138  O29   S    
C202  O66   A    
C203  H126  S    
C130  O16   S    
C148  O52   A    
C49   O86   S    
C128  H104  S    
C23   C27   A    
C77   H199  S    
C19   C27   A    
C96   H33   S    
C121  H87   S    
H129  O79   S    
C131  H111  S    
C210  O2    A    
C217  C224  A    
C116  H74   S    
C47   O80   D    
C164  C182  S    
O43   Zn1   S    
C29   H13   S    
C93   H25   S    
C192  H125  S    
O49   Zn7   S    
C88   H12   S    
C74   C75   S    
C219  O121  S    
C36   O5    S    
C52   O91   S    
C66   H172  S    
C76   C77   S    
O58   Zn10  S    
C170  H123  S    
C189  C211  S    
C109  H60   S    
C84   H4    S    
C63   C64   S    
C2    C31   S    
C67   C69   S    
O36   Zn3   S    
C64   H168  S    
C48   O83   S    
C144  C149  A    
C163  C172  A    
C219  C221  A    
C62   H162  S    
C42   C113  S    
C34   O4    S    
C152  O113  S    
C107  C108  S    
C96   C97   S    
C115  O8    S    
C83   O113  S    
C118  H80   S    
C66   H173  S    
C50   O88   S    
C127  H100  S    
C36   C46   S    
C9    C11   T    
C162  C179  S    
C60   H157  S    
C204  C206  S    
C81   C145  S    
C168  O50   A    
C89   H17   S    
C44   O77   S    
C71   H182  S    
C107  H53   S    
C73   H189  S    
O63   Zn5   S    
C108  H58   S    
C54   H142  S    
C36   O9    S    
C51   C142  S    
O50   Zn7   S    
C99   H41   S    
C198  O62   A    
C39   C214  S    
C155  C160  A    
C63   O97   S    
C196  O56   A    
C20   C22   A    
C16   C208  S    
C48   C124  S    
C61   H158  S    
O118  Zn2   S    
C75   H193  S    
C45   O78   D    
C142  C203  S    
C147  C152  A    
C78   C143  S    
C69   H178  S    
C84   H3    S    
C169  O100  S    
C20   C26   A    
H116  O20   S    
C140  O32   D    
C223  H154  S    
C136  O25   S    
C212  O107  A    
C14   C215  S    
C39   O91   S    
C49   C135  S    
O85   Zn2   S    
C145  C172  A    
C224  H187  S    
C180  C185  T    
C78   O104  D    
O60   Zn9   S    
C162  C171  A    
C222  H165  S    
C124  C170  S    
C97   H36   S    
C65   C66   S    
C150  C154  A    
C163  C180  S    
H45   O127  S    
C108  H56   S    
C92   O117  S    
C59   O94   S    
