data_mof_unit_37246.cif
_audit_creation_date              2012-12-10T17:01:11-0500
_audit_creation_method            fapswitch 2.2
_symmetry_space_group_name_H-M    P1
_symmetry_Int_Tables_number       1
_space_group_crystal_system       triclinic
_cell_length_a                    15.763526
_cell_length_b                    15.398654
_cell_length_c                    10.01279
_cell_angle_alpha                 89.997845
_cell_angle_beta                  59.027049
_cell_angle_gamma                 89.999165
_cell_volume                      2083.91479515

loop_
_atom_site_label
_atom_site_type_symbol
_atom_type_description
_atom_site_fract_x
_atom_site_fract_y
_atom_site_fract_z
_atom_type_partial_charge
C1    C     C_R   0.369631 0.117040 0.563530 0.834812
C2    C     C_R   0.626115 0.879308 0.439478 0.865604
C3    C     C_R   0.630370 0.117039 0.436467 0.834783
C4    C     C_R   0.373884 0.879308 0.560526 0.865596
C5    C     C_R   0.869631 0.617040 0.563529 0.834813
C6    C     C_R   0.126115 0.379308 0.439478 0.865603
C7    C     C_R   0.130370 0.617039 0.436467 0.834783
C8    C     C_R   0.873884 0.379308 0.560526 0.865596
C9    C     C_2   0.510361 0.011229 0.914610 0.547498
C10   C     C_2   0.489643 0.011239 0.085381 0.547458
C11   C     C_2   0.010361 0.511229 0.914610 0.547500
C12   C     C_2   0.989643 0.511239 0.085381 0.547456
C13   C     C_2   0.305499 0.806265 0.588908 -0.133682
C14   C     C_2   0.708512 0.182310 0.398003 -0.162469
C15   C     C_2   0.694498 0.806264 0.411107 -0.133715
C16   C     C_2   0.291491 0.182312 0.601987 -0.162509
C17   C     C_2   0.805500 0.306264 0.588907 -0.133682
C18   C     C_2   0.208512 0.682310 0.398003 -0.162469
C19   C     C_2   0.194498 0.306264 0.411106 -0.133711
C20   C     C_2   0.791491 0.682312 0.601986 -0.162511
C21   C     C_2   0.321044 0.755574 0.467183 0.495091
C22   C     C_2   0.752621 0.185521 0.483686 0.505846
C23   C     C_2   0.678935 0.755558 0.532829 0.495119
C24   C     C_2   0.247358 0.185506 0.516338 0.505913
C25   C     C_2   0.821044 0.255574 0.467183 0.495091
C26   C     C_2   0.252621 0.685521 0.483687 0.505845
C27   C     C_2   0.178937 0.255560 0.532829 0.495117
C28   C     C_2   0.747356 0.685504 0.516339 0.505919
Cu1   Cu    Cu3+1 0.522650 0.000000 0.349410 1.040249
Cu2   Cu    Cu3+1 0.477350 1.000000 0.650590 1.040245
Cu3   Cu    Cu3+1 0.022650 0.500000 0.349410 1.040248
Cu4   Cu    Cu3+1 0.977350 0.500000 0.650590 1.040246
N1    N     N_2   0.443290 1.000000 0.876860 -0.166233
N2    N     N_2   0.556710 1.000000 0.123140 -0.166225
N3    N     N_2   0.943290 0.500000 0.876860 -0.166233
N4    N     N_2   0.056710 0.500000 0.123140 -0.166225
O1    O     O_R   0.422430 0.089640 0.419570 -0.478243
O2    O     O_R   0.577570 0.910360 0.580430 -0.475461
O3    O     O_R   0.577570 0.089640 0.580430 -0.478240
O4    O     O_R   0.422430 0.910360 0.419570 -0.475460
O5    O     O_R   0.922430 0.589640 0.419570 -0.478245
O6    O     O_R   0.077570 0.410360 0.580430 -0.475458
O7    O     O_R   0.077570 0.589640 0.580430 -0.478239
O8    O     O_R   0.922430 0.410360 0.419570 -0.475460
O9    O     O_R   0.384170 0.089650 0.673910 -0.607049
O10   O     O_R   0.615830 0.910350 0.326090 -0.587143
O11   O     O_R   0.615830 0.089650 0.326090 -0.607058
O12   O     O_R   0.384170 0.910350 0.673910 -0.587149
O13   O     O_R   0.884170 0.589650 0.673910 -0.607048
O14   O     O_R   0.115830 0.410350 0.326090 -0.587143
O15   O     O_R   0.115830 0.589650 0.326090 -0.607058
O16   O     O_R   0.884170 0.410350 0.673910 -0.587150
C29   C     C_3   0.659811 0.994780 0.992520 -0.187844
C30   C     C_3   0.739359 0.971124 0.028846 -0.796033
H1    H     H_    0.738227 0.010988 0.120732 0.276924
H2    H     H_    0.735403 0.901134 0.054012 0.257558
H3    H     H_    0.812867 0.981776 0.922389 0.209439
H4    H     H_    0.666225 0.942678 0.910792 0.212475
H5    H     H_    0.681087 0.058525 0.932973 0.219622
C31   C     C_3   0.340188 0.994793 0.007480 -0.187838
C32   C     C_3   0.260645 0.971114 0.971158 -0.796024
H6    H     H_    0.261769 0.010970 0.879265 0.276921
H7    H     H_    0.264616 0.901122 0.946005 0.257559
H8    H     H_    0.187135 0.981759 0.077612 0.209437
H9    H     H_    0.333769 0.942707 0.089244 0.212479
H10   H     H_    0.318915 0.058547 0.066986 0.219593
C33   C     C_3   0.159811 0.494780 0.992520 -0.187843
C34   C     C_3   0.239359 0.471124 0.028846 -0.796034
H11   H     H_    0.238227 0.510988 0.120732 0.276924
H12   H     H_    0.235403 0.401134 0.054011 0.257558
H13   H     H_    0.312867 0.481776 0.922389 0.209440
H14   H     H_    0.166225 0.442678 0.910792 0.212475
H15   H     H_    0.181087 0.558525 0.932973 0.219621
C35   C     C_3   0.840188 0.494793 0.007480 -0.187838
C36   C     C_3   0.760645 0.471114 0.971158 -0.796022
H16   H     H_    0.761769 0.510970 0.879265 0.276921
H17   H     H_    0.764616 0.401122 0.946005 0.257558
H18   H     H_    0.687135 0.481758 0.077612 0.209438
H19   H     H_    0.833769 0.442706 0.089244 0.212480
H20   H     H_    0.818914 0.558547 0.066986 0.219593
F1    F     F_    0.734836 0.122670 0.589969 -0.633139
F2    F     F_    0.403049 0.767000 0.323777 -0.679222
F3    F     F_    0.265115 0.122636 0.410107 -0.633117
F4    F     F_    0.596913 0.766967 0.676220 -0.679227
F5    F     F_    0.234836 0.622670 0.589969 -0.633138
F6    F     F_    0.903050 0.266999 0.323777 -0.679223
F7    F     F_    0.765112 0.622633 0.410111 -0.633117
F8    F     F_    0.096917 0.266971 0.676221 -0.679230
C37   C     C_3   0.736121 0.244661 0.264321 -0.465367
C38   C     C_3   0.826041 0.211654 0.113934 -0.683630
H21   H     H_    0.883311 0.184232 0.134716 0.290407
H22   H     H_    0.803241 0.160050 0.061515 0.229721
H23   H     H_    0.859807 0.266136 0.030209 0.248755
H24   H     H_    0.673168 0.252475 0.244883 0.203870
H25   H     H_    0.751277 0.310491 0.292620 0.234599
C39   C     C_3   0.219244 0.791369 0.752457 -0.459557
C40   C     C_3   0.251534 0.734568 0.842942 -0.742989
H26   H     H_    0.277104 0.670473 0.785897 0.296257
H27   H     H_    0.314425 0.764964 0.845065 0.255396
H28   H     H_    0.188923 0.725486 0.964086 0.229956
H29   H     H_    0.191323 0.854644 0.812246 0.198750
H30   H     H_    0.155462 0.760632 0.752649 0.235750
C41   C     C_3   0.263904 0.244680 0.735631 -0.465426
C42   C     C_3   0.173995 0.211688 0.886046 -0.683682
H31   H     H_    0.116704 0.184277 0.865306 0.290428
H32   H     H_    0.196801 0.160078 0.938457 0.229751
H33   H     H_    0.140254 0.266175 0.969758 0.248723
H34   H     H_    0.326867 0.252502 0.755039 0.203892
H35   H     H_    0.248742 0.310503 0.707308 0.234593
C43   C     C_3   0.780771 0.791383 0.247573 -0.459618
C44   C     C_3   0.748509 0.734581 0.157061 -0.743013
H36   H     H_    0.722943 0.670484 0.214106 0.296282
H37   H     H_    0.685622 0.764969 0.154913 0.255376
H38   H     H_    0.811133 0.725508 0.035928 0.229968
H39   H     H_    0.808686 0.854662 0.187790 0.198769
H40   H     H_    0.844548 0.760654 0.247408 0.235714
C45   C     C_3   0.236121 0.744660 0.264320 -0.465369
C46   C     C_3   0.326041 0.711654 0.113934 -0.683625
H41   H     H_    0.383311 0.684232 0.134716 0.290406
H42   H     H_    0.303240 0.660050 0.061515 0.229721
H43   H     H_    0.359807 0.766135 0.030208 0.248755
H44   H     H_    0.173168 0.752475 0.244883 0.203870
H45   H     H_    0.251277 0.810491 0.292619 0.234599
C47   C     C_3   0.719244 0.291369 0.752456 -0.459556
C48   C     C_3   0.751534 0.234568 0.842942 -0.742992
H46   H     H_    0.777104 0.170473 0.785897 0.296257
H47   H     H_    0.814425 0.264964 0.845065 0.255395
H48   H     H_    0.688923 0.225486 0.964085 0.229957
H49   H     H_    0.691323 0.354643 0.812246 0.198750
H50   H     H_    0.655462 0.260632 0.752649 0.235751
C49   C     C_3   0.763906 0.744682 0.735626 -0.465429
C50   C     C_3   0.674001 0.711691 0.886046 -0.683689
H51   H     H_    0.616706 0.684281 0.865313 0.290430
H52   H     H_    0.696809 0.660081 0.938452 0.229755
H53   H     H_    0.640262 0.766178 0.969758 0.248719
H54   H     H_    0.826871 0.752507 0.755028 0.203892
H55   H     H_    0.748742 0.810504 0.707302 0.234592
C51   C     C_3   0.280770 0.291383 0.247571 -0.459617
C52   C     C_3   0.248507 0.234581 0.157062 -0.743009
H56   H     H_    0.222939 0.170484 0.214108 0.296280
H57   H     H_    0.185620 0.264970 0.154913 0.255377
H58   H     H_    0.311130 0.225507 0.035929 0.229967
H59   H     H_    0.308686 0.354661 0.187788 0.198767
H60   H     H_    0.344548 0.260653 0.247404 0.235717
F9    F     F_    0.396686 0.022727 0.206981 -0.630411
F10   F     F_    0.603323 0.022679 0.792998 -0.630407
F11   F     F_    0.896686 0.522727 0.206981 -0.630411
F12   F     F_    0.103323 0.522679 0.792998 -0.630406

loop_
_geom_bond_atom_site_label_1
_geom_bond_atom_site_label_2
_ccdc_geom_bond_type
C21   C26   S    
N3    C35   S    
C39   H30   S    
Cu2   O9    S    
C44   H36   S    
C18   C26   D    
C24   C27   S    
C45   H44   S    
C42   H32   S    
C40   H26   S    
C29   H5    S    
N4    C33   S    
C5    C20   S    
C29   C30   S    
C2    O10   A    
C6    C19   S    
Cu1   O11   S    
C12   F11   S    
Cu2   O12   S    
C24   F3    S    
C51   H59   S    
C50   H53   S    
C52   H58   S    
C11   F12   S    
C9    F10   S    
C37   H24   S    
Cu2   O2    S    
C33   H14   S    
C4    C13   S    
C32   H7    S    
C43   C44   S    
Cu4   O16   S    
C17   C47   S    
C46   H41   S    
C4    O4    A    
C34   H11   S    
C22   C25   S    
Cu2   O3    S    
C48   H48   S    
C41   H34   S    
C33   H15   S    
C7    O7    A    
C12   N4    D    
C19   C27   D    
C9    C10   S    
C8    O16   A    
C1    O1    A    
C15   C23   D    
C31   H10   S    
C16   C24   D    
C35   H20   S    
C39   H29   S    
C9    N1    D    
C15   C43   S    
C5    O13   A    
C27   F8    S    
C42   H31   S    
C40   H27   S    
C30   H2    S    
Cu3   O8    S    
C13   C39   S    
C13   C21   D    
C33   C34   S    
Cu4   N3    S    
C44   H37   S    
C49   H54   S    
C35   C36   S    
C50   H51   S    
C23   F4    S    
C20   C28   D    
Cu1   N2    S    
C31   C32   S    
C46   H43   S    
C37   H25   S    
C32   H8    S    
C36   H16   S    
C22   F1    S    
C14   C37   S    
Cu1   Cu2   S    
C49   H55   S    
C2    O2    A    
C16   C41   S    
C38   H22   S    
Cu3   Cu4   S    
C52   H56   S    
C7    C18   S    
C39   C40   S    
C28   F7    S    
C47   H50   S    
C10   N2    D    
C1    C16   S    
C23   C28   S    
C6    O14   A    
C2    C15   S    
C36   H17   S    
C18   C45   S    
C3    C14   S    
C50   H52   S    
C31   H9    S    
N1    C31   S    
C35   H19   S    
C48   H46   S    
C20   C49   S    
C49   C50   S    
C43   H40   S    
C40   H28   S    
C38   H23   S    
C4    O12   A    
C5    O5    A    
C30   H1    S    
Cu3   O5    S    
Cu2   N1    S    
C8    O8    A    
Cu3   O15   S    
C29   H4    S    
C34   H13   S    
C8    C17   S    
C19   C51   S    
Cu1   O10   S    
C41   H35   S    
C17   C25   D    
C14   C22   D    
C11   N3    D    
C45   H45   S    
C7    O15   A    
C51   H60   S    
C45   C46   S    
C52   H57   S    
C1    O9    A    
C38   H21   S    
C26   F5    S    
Cu1   O4    S    
C3    O11   A    
C25   F6    S    
Cu4   O7    S    
C47   H49   S    
C44   H38   S    
C32   H6    S    
C36   H18   S    
C46   H42   S    
Cu4   O13   S    
C51   C52   S    
C10   F9    S    
C3    O3    A    
C21   F2    S    
N2    C29   S    
C34   H12   S    
C6    O6    A    
Cu1   O1    S    
C41   C42   S    
C48   H47   S    
Cu4   O6    S    
Cu3   N4    S    
Cu3   O14   S    
C37   C38   S    
C43   H39   S    
C42   H33   S    
C11   C12   S    
C47   C48   S    
C30   H3    S    
