data_mof_unit_40802.cif
_audit_creation_date              2012-12-10T20:02:32-0500
_audit_creation_method            fapswitch 2.2
_symmetry_space_group_name_H-M    P1
_symmetry_Int_Tables_number       1
_space_group_crystal_system       triclinic
_cell_length_a                    18.246475
_cell_length_b                    18.37201
_cell_length_c                    18.377671
_cell_angle_alpha                 119.947337
_cell_angle_beta                  120.113222
_cell_angle_gamma                 89.816748
_cell_volume                      4359.16895136

loop_
_atom_site_label
_atom_site_type_symbol
_atom_type_description
_atom_site_fract_x
_atom_site_fract_y
_atom_site_fract_z
_atom_type_partial_charge
C1    C     C_R   0.143861 0.139973 0.779862 0.848892
C2    C     C_R   0.595357 0.817299 0.335879 0.183515
C3    C     C_R   0.540723 0.866628 0.306112 0.139989
C4    C     C_R   0.569566 0.960960 0.377654 0.177991
C5    C     C_R   0.675008 0.769134 0.499315 0.406603
C6    C     C_R   0.697191 0.696523 0.501727 -0.260252
C7    C     C_R   0.769734 0.673485 0.497462 -0.205772
C8    C     C_R   0.821706 0.724638 0.492111 0.405108
C9    C     C_R   0.800153 0.798591 0.491779 -0.266071
C10   C     C_R   0.719814 0.812571 0.481099 -0.163345
C11   C     C_R   0.872260 0.620561 0.597061 -0.101017
C12   C     C_R   0.860296 0.857258 0.219926 0.811888
C13   C     C_R   0.902515 0.554197 0.606819 -0.023377
C14   C     C_R   0.854476 0.464949 0.525210 -0.107331
C15   C     C_R   0.776258 0.441761 0.432949 -0.165246
C16   C     C_R   0.744805 0.507723 0.420837 0.214471
C17   C     C_R   0.794485 0.598745 0.504384 0.174509
C18   C     C_R   0.714569 0.781736 0.050965 0.003288
C19   C     C_R   0.806390 0.796269 0.108310 -0.116177
C20   C     C_R   0.843549 0.751115 0.051814 0.132420
C21   C     C_R   0.787804 0.700777 0.943468 -0.176317
C22   C     C_R   0.696327 0.691685 0.890101 -0.073093
C23   C     C_R   0.859793 0.139767 0.499645 0.780737
C24   C     C_R   0.662609 0.732213 0.947321 0.048616
C25   C     C_3   0.578865 0.746256 0.937693 -0.426911
C26   C     C_3   0.636738 0.800833 0.055852 0.288690
C27   C     C_R   0.220251 0.773678 0.560201 -0.045703
C28   C     C_R   0.209127 0.817052 0.512887 -0.056294
C29   C     C_R   0.265223 0.816172 0.479725 0.133755
C30   C     C_R   0.314761 0.757233 0.476043 -0.182276
C31   C     C_R   0.312301 0.703200 0.508718 -0.078025
C32   C     C_R   0.270990 0.718405 0.559066 -0.068061
C33   C     C_3   0.210841 0.658323 0.554833 0.684391
C34   C     C_R   0.142918 0.862756 0.502606 0.832430
C35   C     C_3   0.154665 0.720270 0.555497 -0.416796
C36   C     C_R   0.241079 0.161644 0.948436 0.020471
C37   C     C_R   0.213549 0.196331 0.890587 -0.232462
C38   C     C_R   0.257242 0.287881 0.943668 0.337697
C39   C     C_R   0.294290 0.345406 0.050297 0.026489
C40   C     C_R   0.313421 0.306931 0.107138 -0.212377
C41   C     C_R   0.295623 0.214827 0.053717 0.084494
C42   C     C_3   0.260244 0.145115 0.058891 0.316168
C43   C     C_3   0.197516 0.087969 0.941332 -0.460535
C44   C     C_R   0.260355 0.275389 0.588417 0.067970
C45   C     C_R   0.139718 0.139749 0.499719 0.840376
C46   C     C_R   0.196134 0.194116 0.499147 -0.096522
C47   C     C_R   0.189007 0.163022 0.408420 -0.240715
C48   C     C_R   0.238192 0.217138 0.403855 0.162051
C49   C     C_R   0.300618 0.302361 0.495177 -0.155234
C50   C     C_R   0.313596 0.327600 0.587461 0.055956
C51   C     C_3   0.312389 0.411295 0.665197 0.200670
C52   C     C_3   0.251542 0.353162 0.663455 -0.409152
C53   C     C_R   0.833711 0.279659 0.587040 -0.040092
C54   C     C_R   0.804528 0.196199 0.498010 -0.040607
C55   C     C_R   0.725028 0.172564 0.405649 -0.175715
C56   C     C_R   0.859039 0.859144 0.498593 0.898914
C57   C     C_R   0.671918 0.227672 0.406401 -0.246364
C58   C     C_R   0.698577 0.307339 0.499615 -0.066431
C59   C     C_R   0.784351 0.336037 0.588129 -0.037597
C60   C     C_3   0.825510 0.381287 0.701294 0.706221
C61   C     C_3   0.880027 0.315601 0.697994 -0.208684
C62   C     C_R   0.360340 0.640207 0.500395 0.891135
C63   C     C_R   0.640521 0.360655 0.500935 0.884014
C64   C     C_R   0.639968 0.639575 0.779550 0.883256
C65   C     C_R   0.359904 0.360362 0.219290 0.806685
C66   C     C_R   0.357811 0.359830 0.497679 0.842817
C67   C     C_R   0.653728 0.003658 0.473398 -0.142039
C68   C     C_R   0.640347 0.640480 0.500884 0.921262
C69   C     C_R   0.704816 0.955297 0.503037 -0.125064
C70   C     C_R   0.674432 0.862676 0.437992 0.183259
H1    H     H_    0.878351 0.413576 0.533050 0.177602
H2    H     H_    0.740997 0.372002 0.370125 0.155015
H3    H     H_    0.816078 0.667622 0.900940 0.226651
H4    H     H_    0.554331 0.785254 0.904884 0.235222
H5    H     H_    0.527786 0.683876 0.900005 0.240993
H6    H     H_    0.619209 0.769208 0.085530 0.088114
H7    H     H_    0.679796 0.074904 0.528964 0.154940
H8    H     H_    0.354423 0.753037 0.446527 0.206997
H9    H     H_    0.086502 0.690136 0.482882 0.254300
H10   H     H_    0.156931 0.758773 0.626632 0.260783
H11   H     H_    0.225129 0.166390 0.097238 0.054211
H12   H     H_    0.210752 0.025710 0.902112 0.268983
H13   H     H_    0.766181 0.990090 0.579942 0.132962
H14   H     H_    0.125797 0.080233 0.911393 0.161647
H15   H     H_    0.140209 0.098869 0.338811 0.167759
H16   H     H_    0.279672 0.450457 0.635492 0.167712
H17   H     H_    0.281421 0.359404 0.736627 0.312125
H18   H     H_    0.182058 0.355872 0.628615 0.191468
H19   H     H_    0.703102 0.111487 0.333637 0.236356
H20   H     H_    0.608962 0.206689 0.335061 0.206612
H21   H     H_    0.953073 0.346909 0.739523 0.216723
H22   H     H_    0.910775 0.689579 0.661268 0.165543
H23   H     H_    0.964040 0.572454 0.677631 0.216099
O1    O     O_3   1.000000 0.000000 0.500000 -0.512124
O2    O     O_R   0.823480 0.055090 0.439280 -0.613596
O3    O     O_R   0.115790 0.884180 0.560710 -0.598367
O4    O     O_R   0.115790 0.176500 0.731590 -0.566465
O5    O     O_R   0.944940 0.884220 0.268420 -0.652813
O6    O     O_3   0.499960 0.499960 0.499910 -0.532580
O7    O     O_R   0.384170 0.615770 0.439200 -0.626384
O8    O     O_R   0.676480 0.444870 0.560630 -0.594172
O9    O     O_R   0.555020 0.615730 0.731490 -0.604577
O10   O     O_R   0.384160 0.323450 0.268320 -0.607907
O11   O     O_R   0.384130 0.444860 0.560610 -0.563983
O12   O     O_R   0.115780 0.055050 0.731580 -0.648643
O13   O     O_R   0.555060 0.615780 0.439210 -0.595104
O14   O     O_R   0.384140 0.323430 0.439180 -0.642200
O15   O     O_R   0.676490 0.615760 0.560640 -0.647724
O16   O     O_R   0.676470 0.615740 0.731500 -0.611001
O17   O     O_R   0.384180 0.444900 0.268330 -0.655645
O18   O     O_R   0.384150 0.615750 0.560620 -0.587898
O19   O     O_R   0.555030 0.323430 0.439190 -0.616272
O20   O     O_R   0.823490 0.884220 0.268410 -0.609168
O21   O     O_R   0.944920 0.176520 0.560720 -0.632965
O22   O     O_R   0.115810 0.884200 0.439290 -0.653938
O23   O     O_R   0.115820 0.176530 0.560730 -0.593226
O24   O     O_R   0.944890 0.884180 0.560700 -0.574365
O25   O     O_R   0.115830 0.055100 0.439300 -0.663519
O26   O     O_R   0.823460 0.884190 0.439270 -0.656021
Zn1   Zn    Zn3+2 0.869870 0.956630 0.413250 1.010251
Zn2   Zn    Zn3+2 0.043380 0.130130 0.586750 1.038390
Zn3   Zn    Zn3+2 0.043390 0.956630 0.413260 0.960657
Zn4   Zn    Zn3+2 0.043360 0.956610 0.586740 1.046123
Zn5   Zn    Zn3+2 0.630090 0.543330 0.586660 1.071417
Zn6   Zn    Zn3+2 0.456570 0.543320 0.586650 1.114071
Zn7   Zn    Zn3+2 0.456580 0.369830 0.413160 1.023224
Zn8   Zn    Zn3+2 0.456590 0.543350 0.413170 1.008821
C71   C     C_3   0.509686 0.014477 0.350910 -0.447668
C72   C     C_3   0.542892 0.113337 0.435716 -0.722604
H24   H     H_    0.548288 0.122259 0.502819 0.273671
H25   H     H_    0.608674 0.146916 0.459573 0.277390
H26   H     H_    0.494583 0.144986 0.406796 0.274559
H27   H     H_    0.499344 0.007764 0.282568 0.258141
H28   H     H_    0.443691 0.986900 0.331879 0.209826
C73   C     C_3   0.662562 0.479047 0.317039 -0.419323
C74   C     C_3   0.579511 0.420573 0.287190 -0.819406
H29   H     H_    0.585798 0.354824 0.270660 0.250177
H30   H     H_    0.569818 0.452853 0.349828 0.230713
H31   H     H_    0.519239 0.409343 0.216788 0.261083
H32   H     H_    0.647349 0.536868 0.315270 0.212075
H33   H     H_    0.675764 0.441022 0.257779 0.249378
C75   C     C_3   0.939425 0.750376 0.100120 -0.342464
C76   C     C_3   0.999430 0.822505 0.116248 -0.786015
H34   H     H_    0.001507 0.889678 0.168827 0.269756
H35   H     H_    0.068654 0.819537 0.149930 0.242713
H36   H     H_    0.974073 0.811791 0.041463 0.261435
H37   H     H_    0.967247 0.755623 0.172403 0.223844
H38   H     H_    0.941008 0.684873 0.048502 0.246023
S1    S     S_3+6 0.646380 0.915761 0.116555 0.012450
O27   O     O_2   0.556877 0.925284 0.059632 -0.264250
O28   O     O_2   0.675294 0.953417 0.224047 -0.332676
O29   O     O_3   0.721713 0.971563 0.119271 -0.523713
H39   H     H_    0.780406 0.989861 0.182920 0.347091
C77   C     C_3   0.276388 0.876374 0.449683 -0.383916
C78   C     C_3   0.219211 0.827501 0.333054 -0.776564
H40   H     H_    0.241011 0.771078 0.298128 0.254837
H41   H     H_    0.147279 0.801450 0.299724 0.277137
H42   H     H_    0.227107 0.874029 0.313727 0.235788
H43   H     H_    0.261094 0.937863 0.485703 0.220967
H44   H     H_    0.348000 0.899787 0.479939 0.204899
S2    S     S_3+6 0.150233 0.547567 0.438194 0.044256
O30   O     O_2   0.070067 0.507807 0.426633 -0.271383
O31   O     O_2   0.119090 0.550825 0.347359 -0.324510
O32   O     O_3   0.216181 0.483548 0.442561 -0.556893
H45   H     H_    0.177314 0.423748 0.377610 0.354836
S3    S     S_3+6 0.264716 0.660419 0.669223 0.055910
O33   O     O_2   0.194560 0.620292 0.671072 -0.246454
O34   O     O_2   0.328162 0.607944 0.671530 -0.280260
O35   O     O_3   0.322083 0.765995 0.774220 -0.527281
H46   H     H_    0.376042 0.783597 0.778393 0.359356
S4    S     S_3+6 0.278224 0.327314 0.882434 0.025083
O36   O     O_2   0.204658 0.361400 0.838404 -0.274460
O37   O     O_2   0.366644 0.401430 0.958401 -0.290117
O38   O     O_3   0.281775 0.244752 0.787165 -0.542951
H47   H     H_    0.332219 0.226637 0.821500 0.351333
C79   C     C_3   0.301234 0.443227 0.095894 -0.294017
C80   C     C_3   0.229333 0.463849 0.116042 -0.782027
H48   H     H_    0.231310 0.445182 0.165611 0.266634
H49   H     H_    0.239318 0.536172 0.154251 0.255847
H50   H     H_    0.161678 0.426690 0.041918 0.247691
H51   H     H_    0.369778 0.488420 0.165156 0.234990
H52   H     H_    0.289353 0.461565 0.043006 0.254733
S5    S     S_3+6 0.343965 0.098410 0.106031 0.018597
O39   O     O_2   0.403791 0.157358 0.221494 -0.304605
O40   O     O_2   0.298705 0.007849 0.070469 -0.298627
O41   O     O_3   0.406310 0.088916 0.060560 -0.519625
H53   H     H_    0.452319 0.065756 0.092392 0.401952
C81   C     C_3   0.214344 0.184026 0.298356 -0.435188
C82   C     C_3   0.257298 0.114147 0.265201 -0.686787
H54   H     H_    0.235689 0.088515 0.186236 0.270792
H55   H     H_    0.331553 0.143562 0.318110 0.286862
H56   H     H_    0.235803 0.057354 0.264774 0.229813
H57   H     H_    0.140227 0.153543 0.241470 0.199292
H58   H     H_    0.232884 0.238579 0.294240 0.211288
S6    S     S_3+6 0.420546 0.474893 0.786001 0.081175
O42   O     O_2   0.456540 0.417041 0.822005 -0.213055
O43   O     O_2   0.484748 0.510980 0.774416 -0.273757
O44   O     O_3   0.411336 0.559592 0.874109 -0.521005
H59   H     H_    0.380276 0.590382 0.842180 0.372529
S7    S     S_3+6 0.898091 0.493806 0.779404 0.023974
O45   O     O_2   0.846384 0.548978 0.749216 -0.255362
O46   O     O_2   0.936866 0.533470 0.890352 -0.305997
O47   O     O_3   0.982105 0.495530 0.765075 -0.614957
H60   H     H_    0.035854 0.506008 0.828187 0.381583
C83   C     C_3   0.570835 0.716863 0.261248 -0.419499
C84   C     C_3   0.634027 0.695446 0.227509 -0.770422
H61   H     H_    0.646440 0.741063 0.209077 0.259141
H62   H     H_    0.699069 0.701034 0.288258 0.264004
H63   H     H_    0.603691 0.625989 0.158041 0.278372
H64   H     H_    0.571991 0.681856 0.296285 0.219103
H65   H     H_    0.502002 0.685242 0.190702 0.234176
S8    S     S_3+6 0.744084 0.376000 0.728861 0.032610
O48   O     O_2   0.703801 0.448252 0.732834 -0.279547
O49   O     O_2   0.670160 0.287789 0.647116 -0.390231
O50   O     O_3   0.794147 0.391609 0.843496 -0.530930
H66   H     H_    0.745715 0.388918 0.853141 0.399184
C85   C     C_3   0.862390 0.246101 0.716366 -0.360814
C86   C     C_3   0.929624 0.279615 0.828520 -0.760262
H67   H     H_    0.998076 0.284567 0.846397 0.233594
H68   H     H_    0.931090 0.346145 0.881450 0.317391
H69   H     H_    0.911069 0.232238 0.841932 0.244710
H70   H     H_    0.793089 0.226672 0.693331 0.265723
H71   H     H_    0.871550 0.184231 0.669292 0.179069
C87   C     C_3   0.451016 0.818962 0.200229 -0.469830
C88   C     C_3   0.463595 0.796833 0.116234 -0.697537
H72   H     H_    0.499676 0.858662 0.134936 0.297751
H73   H     H_    0.501550 0.749744 0.107344 0.257088
H74   H     H_    0.397004 0.765579 0.041609 0.273634
H75   H     H_    0.411991 0.758595 0.181248 0.218251
H76   H     H_    0.405174 0.858432 0.196831 0.217657
S9    S     S_3+6 0.591720 0.806656 0.519698 0.004175
O51   O     O_2   0.501645 0.758128 0.417641 -0.344832
O52   O     O_2   0.588075 0.788574 0.589307 -0.315009
O53   O     O_3   0.614436 0.916679 0.574674 -0.559545
H77   H     H_    0.557429 0.927427 0.562639 0.377772
S10   S     S_3+6 0.908326 0.691522 0.476702 0.016206
O54   O     O_2   0.917430 0.715761 0.413967 -0.306401
O55   O     O_2   0.995045 0.739595 0.582004 -0.324171
O56   O     O_3   0.887931 0.581055 0.417020 -0.537204
H78   H     H_    0.944543 0.574073 0.459307 0.405400

loop_
_geom_bond_atom_site_label_1
_geom_bond_atom_site_label_2
_ccdc_geom_bond_type
C45   O25   A    
C85   H71   S    
C76   H36   S    
S4    O36   D    
C3    C87   S    
S6    O43   D    
C78   H41   S    
O7    Zn8   S    
C41   C42   S    
C33   S3    S    
C67   H7    S    
C66   O14   A    
C63   O8    A    
O9    Zn6   S    
C71   C72   S    
S2    O30   D    
C53   C59   A    
C73   C74   S    
O6    Zn6   S    
C14   H1    S    
C31   C32   A    
C45   C46   S    
C79   H52   S    
C15   H2    S    
S4    O37   D    
C29   C30   A    
C86   H69   S    
C18   C24   A    
C47   H15   S    
C36   C37   A    
C61   C85   S    
C48   C81   S    
C87   H76   S    
C69   C70   A    
S1    O28   D    
O25   Zn3   S    
C30   C31   A    
C84   H62   S    
C16   C17   A    
C83   H65   S    
C76   H34   S    
C21   H3    S    
C35   H10   S    
C58   C63   S    
C88   H74   S    
S10   O54   D    
O12   Zn4   S    
O5    Zn3   S    
C25   H4    S    
C56   O24   A    
C63   O19   A    
C82   H55   S    
O10   Zn7   S    
O38   H47   S    
O4    Zn2   S    
C88   H73   S    
C54   C55   A    
O21   Zn2   S    
O1    Zn1   S    
C11   H22   S    
C11   C17   A    
C62   O18   A    
O56   H78   S    
S10   O55   D    
C8    C9    A    
C80   H49   S    
C18   C26   S    
O18   Zn6   S    
C26   H6    S    
C5    S9    S    
C79   C80   S    
O44   H59   S    
C9    C10   A    
C12   O5    A    
C1    C37   S    
O17   Zn8   S    
C72   H26   S    
O1    Zn4   S    
C44   C52   S    
C6    C68   S    
C28   C34   S    
C59   C60   S    
O22   Zn3   S    
C13   C14   A    
C87   C88   S    
C78   H42   S    
S3    O34   D    
C43   H14   S    
C31   C62   S    
O32   H45   S    
C36   C41   A    
C79   H51   S    
C42   H11   S    
C68   O13   A    
O15   Zn5   S    
C74   H31   S    
C51   H16   S    
S2    O31   D    
C44   C46   A    
C88   H72   S    
O6    Zn7   S    
C87   H75   S    
C52   H17   S    
C73   H32   S    
S4    O38   S    
C78   H40   S    
O8    Zn5   S    
C49   C66   S    
O11   Zn6   S    
C73   H33   S    
C51   C52   S    
O35   H46   S    
C20   C75   S    
C7    C8    A    
C38   C39   A    
C24   C25   S    
C74   H30   S    
O23   Zn2   S    
S5    O41   S    
C1    O4    A    
C39   C40   A    
C9    C56   S    
C4    C71   S    
C84   H61   S    
C18   C19   A    
O6    Zn8   S    
C27   C35   S    
C34   O22   A    
C83   C84   S    
C22   C64   S    
O13   Zn8   S    
C13   H23   S    
C60   C61   S    
C25   H5    S    
C82   H56   S    
C33   S2    S    
S5    O39   D    
C29   C77   S    
C77   H44   S    
C37   C38   A    
C69   H13   S    
C71   H28   S    
O20   Zn1   S    
C57   H20   S    
C71   H27   S    
C86   H68   S    
C47   C48   A    
S8    O50   S    
C52   H18   S    
C80   H50   S    
C66   O11   A    
C50   C51   S    
S9    O52   D    
C2    C83   S    
S8    O48   D    
C60   S8    S    
C75   H38   S    
C77   C78   S    
O41   H53   S    
C62   O7    A    
C10   C70   S    
C40   C41   A    
S8    O49   D    
C64   O9    A    
C80   H48   S    
C64   O16   A    
C38   S4    S    
C55   C57   A    
S3    O33   D    
C42   S5    S    
C56   O26   A    
C22   C24   A    
S1    O29   S    
C42   C43   S    
C65   O10   A    
C53   C61   S    
C3    C4    A    
O1    Zn3   S    
S9    O51   D    
S2    O32   S    
C8    S10   S    
C23   C54   S    
C72   H24   S    
C44   C50   A    
C85   H70   S    
C76   H35   S    
C84   H63   S    
C46   C47   A    
C28   C29   A    
O3    Zn4   S    
C27   C32   A    
C14   C15   A    
O19   Zn7   S    
C75   H37   S    
C26   S1    S    
O14   Zn7   S    
C34   O3    A    
C39   C79   S    
C7    C17   S    
C81   H57   S    
C4    C67   A    
O26   Zn1   S    
O16   Zn5   S    
C53   C54   A    
C6    C7    A    
O2    Zn1   S    
S10   O56   S    
C40   C65   S    
C32   C33   S    
S6    O44   S    
C19   C20   A    
S5    O40   D    
C2    C3    A    
C85   C86   S    
C5    C10   A    
C55   H19   S    
C51   S6    S    
S1    O27   D    
C25   C26   S    
C23   O21   A    
C11   C13   A    
C45   O23   A    
C86   H67   S    
C5    C6    A    
C2    C70   A    
C83   H64   S    
S7    O45   D    
S7    O47   S    
C48   C49   A    
C12   C19   S    
C35   H9    S    
C33   C35   S    
C23   O2    A    
C12   O20   A    
S9    O53   S    
O50   H66   S    
O24   Zn4   S    
C82   H54   S    
C58   C59   A    
C65   O17   A    
C60   S7    S    
C81   H58   S    
S6    O42   D    
C30   H8    S    
O1    Zn2   S    
C61   H21   S    
C77   H43   S    
C20   C21   A    
S3    O35   S    
S7    O46   D    
C49   C50   A    
O53   H77   S    
C27   C28   A    
C43   H12   S    
C75   C76   S    
C81   C82   S    
C36   C43   S    
O29   H39   S    
C68   O15   A    
O47   H60   S    
C67   C69   A    
C57   C58   A    
C21   C22   A    
C16   C73   S    
C74   H29   S    
C15   C16   A    
C1    O12   A    
O6    Zn5   S    
C72   H25   S    
