data_mof_unit_51020.cif
_audit_creation_date              2012-10-26T20:00:54-0400
_audit_creation_method            fapswitch 2.2
_symmetry_space_group_name_H-M    P1
_symmetry_Int_Tables_number       1
_space_group_crystal_system       triclinic
_cell_length_a                    11.767394
_cell_length_b                    13.011744
_cell_length_c                    13.437726
_cell_angle_alpha                 93.625643
_cell_angle_beta                  75.86226
_cell_angle_gamma                 99.592836
_cell_volume                      1966.7437349

loop_
_atom_site_label
_atom_site_type_symbol
_atom_type_description
_atom_site_fract_x
_atom_site_fract_y
_atom_site_fract_z
_atom_type_partial_charge
C1    C     C_R   0.521091 0.700218 0.500232 0.543972
C2    C     C_R   0.398808 0.483054 0.808979 0.026721
C3    C     C_R   0.471557 0.185872 0.492083 -0.003951
C4    C     C_R   0.435888 0.489307 0.695747 0.585035
C5    C     C_R   0.535765 0.812574 0.492764 0.013940
C6    C     C_R   0.660495 0.974629 0.435362 -0.102172
C7    C     C_R   0.647322 0.868264 0.449344 -0.132173
C8    C     C_R   0.437148 0.863572 0.523431 -0.113645
C9    C     C_R   0.449612 0.970696 0.511856 0.035568
C10   C     C_R   0.562524 0.028150 0.467829 0.060371
C11   C     C_R   0.573356 0.136655 0.456233 0.015106
C12   C     C_R   0.463655 0.513497 0.969726 0.036502
C13   C     C_R   0.360773 0.126933 0.533107 -0.112675
C14   C     C_R   0.349822 0.020253 0.542760 -0.125828
C15   C     C_R   0.941287 0.592106 0.600082 -0.109754
C16   C     C_R   0.480878 0.299503 0.494991 0.563672
C17   C     C_R   0.823551 0.583017 0.593410 0.136287
C18   C     C_R   0.861064 0.463016 0.452498 0.056710
C19   C     C_R   0.980182 0.467736 0.460735 -0.003158
C20   C     C_R   0.019702 0.531525 0.537530 -0.003290
C21   C     C_R   0.137506 0.535068 0.548964 0.162873
C22   C     C_R   0.178432 0.419939 0.405040 0.034822
C23   C     C_R   0.479830 0.469005 0.868423 0.036342
C24   C     C_R   0.060922 0.411393 0.394203 -0.154780
C25   C     C_R   0.563925 0.503409 0.304029 0.544190
C26   C     C_R   0.741389 0.463929 0.034163 -0.108631
C27   C     C_R   0.601551 0.500746 0.191562 0.002078
C28   C     C_R   0.289845 0.512303 0.858578 -0.142230
C29   C     C_R   0.272854 0.554660 0.957255 -0.161936
C30   C     C_R   0.364260 0.567030 0.008474 0.009035
C31   C     C_2   0.173180 0.593323 0.637687 0.228956
C32   C     C_2   0.746302 0.644477 0.670356 0.254129
C33   C     C_2   0.358016 0.648059 0.091634 0.213721
C34   C     C_R   0.546377 0.501003 0.027878 0.055335
C35   C     C_2   0.579692 0.332421 0.747378 0.271166
C36   C     C_2   0.688078 0.198599 0.403822 0.217940
C37   C     C_R   0.655197 0.467567 0.978792 0.053576
C38   C     C_R   0.670592 0.426073 0.879222 -0.120038
C39   C     C_R   0.577741 0.414255 0.829651 0.020435
C40   C     C_R   0.518298 0.509191 0.135188 -0.073909
C41   C     C_R   0.715432 0.482629 0.140065 -0.136646
Cu1   Cu    Cu3+1 0.386470 0.492430 0.492410 0.952449
Cu2   Cu    Cu3+1 0.613530 0.507570 0.507590 0.946937
H1    H     H_    0.781275 0.475660 0.182189 0.122155
H2    H     H_    0.033870 0.361707 0.333631 0.116090
H3    H     H_    0.669001 0.669119 0.656961 0.167389
H4    H     H_    0.748786 0.390428 0.845710 0.108521
H5    H     H_    0.829822 0.414443 0.393272 0.135006
H6    H     H_    0.826294 0.441139 0.996556 0.126970
H7    H     H_    0.428625 0.515688 0.176246 0.136919
H8    H     H_    0.222435 0.513165 0.817496 0.203420
H9    H     H_    0.272333 0.663456 0.136887 0.100797
H10   H     H_    0.193211 0.588782 0.988664 0.126769
H11   H     H_    0.663659 0.311808 0.703548 0.128923
H12   H     H_    0.723940 0.828936 0.423212 0.137168
H13   H     H_    0.690321 0.250403 0.342912 0.091757
H14   H     H_    0.239725 0.376817 0.352475 0.128667
H15   H     H_    0.970946 0.649335 0.653810 0.194054
H16   H     H_    0.282674 0.164016 0.560847 0.152021
H17   H     H_    0.747777 0.013050 0.398108 0.172506
H18   H     H_    0.263310 0.976578 0.575907 0.121411
H19   H     H_    0.350583 0.819841 0.556446 0.104654
H20   H     H_    0.256071 0.645051 0.629318 0.143016
N1    N     N_R   0.215880 0.481050 0.481000 -0.251593
N2    N     N_R   0.784100 0.518950 0.519000 -0.269322
O1    O     O_R   0.419710 0.645650 0.494620 -0.526527
O2    O     O_2   0.769427 0.669657 0.753216 -0.509419
O3    O     O_2   0.447781 0.702534 0.106296 -0.475624
O4    O     O_2   0.487604 0.283644 0.731364 -0.504880
O5    O     O_2   0.778652 0.197115 0.432335 -0.527848
O6    O     O_R   0.611450 0.658430 0.507430 -0.536353
O7    O     O_R   0.357340 0.490460 0.641450 -0.503995
O8    O     O_R   0.549080 0.503250 0.654260 -0.517419
O9    O     O_R   0.388550 0.341570 0.492570 -0.504645
O10   O     O_R   0.580290 0.354350 0.505380 -0.481281
O11   O     O_R   0.450920 0.496750 0.345740 -0.512242
O12   O     O_R   0.642660 0.509540 0.358550 -0.513788
O13   O     O_2   0.108051 0.583478 0.723578 -0.556327

loop_
_geom_bond_atom_site_label_1
_geom_bond_atom_site_label_2
_ccdc_geom_bond_type
Cu2   O8    S    
C34   C37   A    
C2    C4    S    
C19   C20   A    
C7    H12   S    
C22   H14   S    
C18   N2    A    
C21   C31   S    
C12   C23   A    
C1    O6    A    
C16   O9    A    
C24   H2    S    
C28   C29   A    
C38   C39   A    
C28   H8    S    
C40   H7    S    
C16   O10   A    
C18   C19   A    
C21   N1    A    
C8    C9    A    
C29   C30   A    
C9    C10   A    
C3    C13   A    
C13   C14   A    
C35   H11   S    
C32   H3    S    
C36   O5    D    
Cu2   O10   S    
C15   C20   A    
Cu1   O9    S    
C31   H20   S    
C26   H6    S    
C5    C7    A    
C14   H18   S    
C33   H9    S    
C35   C39   S    
C9    C14   A    
C37   C38   A    
C36   H13   S    
C6    H17   S    
C27   C41   A    
C27   C40   A    
Cu2   N2    S    
C4    O7    A    
Cu1   O7    S    
C1    O1    A    
C4    O8    A    
C38   H4    S    
C32   O2    D    
C41   H1    S    
C25   O12   A    
Cu2   O12   S    
Cu1   Cu2   S    
C12   C34   A    
Cu1   N1    S    
C1    C5    S    
C31   O13   D    
C15   C17   A    
C11   C36   S    
Cu2   O6    S    
C30   C33   S    
C12   C30   A    
C17   N2    A    
C33   O3    D    
C18   H5    S    
C6    C10   A    
C5    C8    A    
C26   C37   A    
C6    C7    A    
C13   H16   S    
C25   C27   S    
Cu1   O11   S    
C25   O11   A    
C19   C24   A    
C29   H10   S    
C23   C39   A    
C15   H15   S    
C22   C24   A    
C3    C11   A    
C10   C11   A    
C22   N1    A    
C20   C21   A    
C35   O4    D    
C2    C23   A    
Cu1   O1    S    
C17   C32   S    
C34   C40   A    
C2    C28   A    
C3    C16   S    
C26   C41   A    
C8    H19   S    
