data_mof_unit_20677.cif
_audit_creation_date              2012-12-10T18:10:53-0500
_audit_creation_method            fapswitch 2.2
_symmetry_space_group_name_H-M    P1
_symmetry_Int_Tables_number       1
_space_group_crystal_system       triclinic
_cell_length_a                    12.6035
_cell_length_b                    13.133915
_cell_length_c                    15.715964
_cell_angle_alpha                 89.491664
_cell_angle_beta                  102.788413
_cell_angle_gamma                 82.10342
_cell_volume                      2510.84716566

loop_
_atom_site_label
_atom_site_type_symbol
_atom_type_description
_atom_site_fract_x
_atom_site_fract_y
_atom_site_fract_z
_atom_type_partial_charge
C1    C     C_R   0.438282 0.691497 0.487342 0.930888
C2    C     C_3   0.383201 0.514770 0.026997 -0.391109
C3    C     C_3   0.502151 0.494888 0.083552 0.256950
C4    C     C_3   0.564851 0.390208 0.062344 -0.134314
C5    C     C_3   0.562265 0.388776 0.963006 -0.422474
C6    C     C_1   0.499430 0.496616 0.174585 -0.060942
C7    C     C_1   0.504812 0.494610 0.826573 -0.091744
C8    C     C_1   0.503756 0.496745 0.750972 -0.167339
C9    C     C_R   0.706161 0.061025 0.453754 -0.139082
C10   C     C_R   0.599204 0.199253 0.510386 -0.045544
C11   C     C_R   0.302845 0.835403 0.510285 -0.180142
C12   C     C_R   0.501109 0.499410 0.661513 0.891974
C13   C     C_R   0.279944 0.937573 0.529813 -0.122542
C14   C     C_R   0.354675 0.004701 0.524575 -0.164984
C15   C     C_R   0.450553 0.972008 0.492945 0.038321
C16   C     C_R   0.462517 0.873057 0.458470 -0.037185
C17   C     C_R   0.533767 0.034458 0.492729 0.079362
C18   C     C_R   0.624518 0.998887 0.455765 0.120562
C19   C     C_R   0.626705 0.907026 0.412752 -0.310509
C20   C     C_R   0.541379 0.848849 0.406894 0.416680
C21   C     C_R   0.527600 0.133047 0.525158 -0.223634
C22   C     C_R   0.692299 0.162187 0.479306 -0.213436
C23   C     C_R   0.561587 0.308652 0.510767 0.834989
C24   C     C_R   0.397122 0.801493 0.479182 -0.066771
C25   C     C_R   0.090126 0.342757 0.385210 -0.307593
C26   C     C_R   0.796082 0.636860 0.593975 -0.097464
C27   C     C_R   0.897080 0.672834 0.607218 0.439051
C28   C     C_R   0.980074 0.620470 0.571741 -0.297389
C29   C     C_R   0.960875 0.534245 0.520354 -0.058617
C30   C     C_R   0.854862 0.504146 0.505500 0.233592
C31   C     C_R   0.041222 0.478855 0.481050 0.024882
C32   C     C_R   0.012653 0.397536 0.425245 0.195426
C33   C     C_R   0.907095 0.371569 0.409887 -0.293448
C34   C     C_R   0.499775 0.498030 0.338776 0.970972
C35   C     C_R   0.829682 0.423964 0.449711 -0.165557
C36   C     C_R   0.149760 0.499981 0.495203 -0.039253
C37   C     C_R   0.195625 0.368024 0.401459 0.015771
C38   C     C_3   0.385044 0.509788 0.929275 -0.436962
C39   C     C_3   0.562614 0.585150 0.962680 -0.144947
C40   C     C_3   0.564225 0.582525 0.061833 -0.424341
C41   C     C_1   0.498470 0.497059 0.249712 -0.074646
C42   C     C_3   0.505525 0.494273 0.918435 0.284092
H1    H     H_    0.342973 0.592330 0.039609 0.198191
H2    H     H_    0.341766 0.445781 0.899945 0.178392
H3    H     H_    0.332198 0.458930 0.044580 0.174422
H4    H     H_    0.652590 0.389058 0.096022 0.115980
H5    H     H_    0.749345 0.212875 0.468603 0.147764
H6    H     H_    0.689214 0.885938 0.375940 0.169811
H7    H     H_    0.775603 0.034328 0.425588 0.145850
H8    H     H_    0.462592 0.164054 0.555930 0.144100
H9    H     H_    0.250205 0.781831 0.524329 0.162790
H10   H     H_    0.333906 0.081432 0.545023 0.131579
H11   H     H_    0.207429 0.963410 0.554367 0.169080
H12   H     H_    0.339065 0.582187 0.894314 0.188201
H13   H     H_    0.257054 0.326176 0.371587 0.139964
H14   H     H_    0.884184 0.310105 0.367032 0.144442
H15   H     H_    0.069430 0.280842 0.342268 0.148408
H16   H     H_    0.180009 0.558223 0.538001 0.128805
H17   H     H_    0.730782 0.676241 0.621124 0.184378
H18   H     H_    0.057066 0.650648 0.583230 0.178476
H19   H     H_    0.750172 0.400760 0.434489 0.195555
H20   H     H_    0.507682 0.657230 0.934943 0.138490
H21   H     H_    0.523851 0.657957 0.079139 0.213440
H22   H     H_    0.649312 0.572125 0.102797 0.180511
H23   H     H_    0.518186 0.326607 0.931106 0.173646
H24   H     H_    0.647048 0.370926 0.952574 0.165182
N1    N     N_R   0.222200 0.444690 0.455710 -0.105083
N2    N     N_R   0.776960 0.554780 0.543830 -0.152138
O1    O     O_R   0.366740 0.627160 0.478850 -0.611421
O2    O     O_R   0.544830 0.662520 0.507140 -0.604356
O3    O     O_R   0.410920 0.482310 0.608710 -0.618239
O4    O     O_R   0.589010 0.517670 0.637000 -0.612099
O5    O     O_R   0.455170 0.337480 0.492860 -0.622297
O6    O     O_R   0.633260 0.372840 0.521150 -0.643816
O7    O     O_R   0.410990 0.482330 0.363000 -0.613891
O8    O     O_R   0.589080 0.517690 0.391290 -0.583515
Zn1   Zn    Zn3+2 0.381090 0.476390 0.481110 0.959136
Zn2   Zn    Zn3+2 0.618910 0.523610 0.518890 0.976254
S1    S     S_3+6 0.518265 0.773084 0.313782 0.002121
O9    O     O_2   0.616864 0.693197 0.317713 -0.319277
O10   O     O_2   0.416570 0.722823 0.305195 -0.311044
O11   O     O_3   0.502271 0.850061 0.224382 -0.562439
H25   H     H_    0.577435 0.861850 0.221691 0.348159
S2    S     S_3+6 0.918169 0.785807 0.664133 -0.020448
O12   O     O_2   0.982399 0.757028 0.755637 -0.335691
O13   O     O_2   0.982333 0.848633 0.619170 -0.306780
O14   O     O_3   0.796602 0.855317 0.667030 -0.594099
H26   H     H_    0.815514 0.918538 0.697094 0.388721
C43   C     C_R   0.674678 0.592440 0.942467 0.150161
C44   C     C_R   0.682053 0.664977 0.878178 -0.171101
C45   C     C_R   0.782207 0.671173 0.855613 -0.096164
C46   C     C_R   0.876593 0.605575 0.897064 -0.083550
C47   C     C_R   0.870960 0.533754 0.961312 -0.153087
C48   C     C_R   0.770879 0.526953 0.983953 -0.138503
H27   H     H_    0.609778 0.715982 0.844344 0.129023
H28   H     H_    0.786361 0.726739 0.805718 0.199092
H29   H     H_    0.954109 0.610350 0.879465 0.168528
H30   H     H_    0.944269 0.483066 0.993584 0.135698
H31   H     H_    0.769626 0.470730 0.034047 0.116288
C49   C     C_R   0.527832 0.295239 0.097653 0.152374
C50   C     C_R   0.592191 0.243658 0.174893 -0.181074
C51   C     C_R   0.558317 0.159495 0.211091 -0.140512
C52   C     C_R   0.460056 0.125370 0.170787 -0.089574
C53   C     C_R   0.395827 0.174920 0.093857 -0.138515
C54   C     C_R   0.429206 0.259234 0.057369 -0.151560
H32   H     H_    0.668007 0.269551 0.208137 0.113049
H33   H     H_    0.608080 0.121003 0.270664 0.138834
H34   H     H_    0.433621 0.060620 0.199210 0.176712
H35   H     H_    0.319796 0.148137 0.062497 0.142963
H36   H     H_    0.377720 0.295610 0.997707 0.124159

loop_
_geom_bond_atom_site_label_1
_geom_bond_atom_site_label_2
_ccdc_geom_bond_type
C54   H36   S    
C47   C48   A    
O2    Zn2   S    
O1    Zn1   S    
C19   C20   A    
N1    Zn1   S    
S2    O14   S    
O14   H26   S    
C3    C6    S    
C36   N1    A    
C7    C8    T    
C4    H4    S    
C10   C22   A    
C26   C27   A    
C50   C51   A    
C40   H21   S    
C30   C35   A    
C28   C29   A    
S2    O13   D    
C38   C42   S    
C36   H16   S    
C53   H35   S    
C9    C22   A    
C15   C16   A    
C11   C24   A    
C18   C19   A    
C7    C42   S    
C43   C48   A    
C21   H8    S    
O4    Zn2   S    
C52   C53   A    
C25   C37   A    
C45   H28   S    
C14   H10   S    
C6    C41   T    
C52   H34   S    
C26   H17   S    
C45   C46   A    
C16   C20   A    
C34   O7    A    
C33   H14   S    
C22   H5    S    
C12   O4    A    
C2    H3    S    
C13   C14   A    
C34   C41   S    
C25   H15   S    
C23   O5    A    
C53   C54   A    
C46   H29   S    
C39   C42   S    
C13   H11   S    
C28   H18   S    
C10   C21   A    
N2    Zn2   S    
C44   H27   S    
C9    H7    S    
S2    O12   D    
C5    H23   S    
C39   C40   S    
S1    O10   D    
C19   H6    S    
C5    H24   S    
C1    O1    A    
C38   H2    S    
C29   C30   A    
C2    C38   S    
C31   C32   A    
C38   H12   S    
C2    H1    S    
C8    C12   S    
C17   C18   A    
C49   C54   A    
C51   H33   S    
C35   H19   S    
O7    Zn1   S    
C12   O3    A    
C3    C40   S    
C4    C49   S    
C23   O6    A    
C3    C4    S    
O3    Zn1   S    
C5    C42   S    
C50   H32   S    
C15   C17   A    
C39   H20   S    
C27   S2    S    
C20   S1    S    
C14   C15   A    
O8    Zn2   S    
C4    C5    S    
S1    O11   S    
C10   C23   S    
C1    O2    A    
C40   H22   S    
C26   N2    A    
C32   C33   A    
C2    C3    S    
C29   C31   A    
C11   C13   A    
C44   C45   A    
C48   H31   S    
C25   C32   A    
C37   N1    A    
C46   C47   A    
C33   C35   A    
C51   C52   A    
C17   C21   A    
C11   H9    S    
S1    O9    D    
C37   H13   S    
C9    C18   A    
C1    C24   S    
C16   C24   A    
O11   H25   S    
O6    Zn2   S    
C27   C28   A    
O5    Zn1   S    
C31   C36   A    
C49   C50   A    
C43   C44   A    
C47   H30   S    
C39   C43   S    
C30   N2    A    
C34   O8    A    
