data_mof_unit_52139.cif
_audit_creation_date              2012-12-10T17:27:50-0500
_audit_creation_method            fapswitch 2.2
_symmetry_space_group_name_H-M    P1
_symmetry_Int_Tables_number       1
_space_group_crystal_system       triclinic
_cell_length_a                    10.73045
_cell_length_b                    12.220751
_cell_length_c                    12.716225
_cell_angle_alpha                 93.382111
_cell_angle_beta                  93.600499
_cell_angle_gamma                 84.37372
_cell_volume                      1653.87733471

loop_
_atom_site_label
_atom_site_type_symbol
_atom_type_description
_atom_site_fract_x
_atom_site_fract_y
_atom_site_fract_z
_atom_type_partial_charge
C1    C     C_R   0.496636 0.522152 0.700013 0.995610
C2    C     C_R   0.634297 0.519255 0.855364 -0.197450
C3    C     C_R   0.407565 0.544758 0.874620 0.343668
C4    C     C_R   0.739578 0.496318 0.491342 0.944758
C5    C     C_R   0.428563 0.515133 0.979697 0.051221
C6    C     C_R   0.553951 0.493168 0.022132 0.095553
C7    C     C_R   0.576408 0.468398 0.126744 -0.182229
C8    C     C_R   0.352480 0.482500 0.148599 -0.265432
C9    C     C_R   0.328452 0.505490 0.043822 -0.078685
C10   C     C_R   0.414808 0.951886 0.379122 -0.252636
C11   C     C_R   0.409588 0.839826 0.396240 0.283347
C12   C     C_R   0.952665 0.399533 0.523664 0.029125
C13   C     C_R   0.543223 0.858227 0.551910 0.297275
C14   C     C_R   0.539512 0.974750 0.539436 -0.025403
C15   C     C_R   0.470691 0.022922 0.454370 0.025037
C16   C     C_R   0.498168 0.478423 0.300238 0.881876
C17   C     C_R   0.457094 0.140892 0.447790 0.174494
C18   C     C_R   0.595351 0.158247 0.601288 0.519312
C19   C     C_R   0.602579 0.044330 0.610539 -0.355761
C20   C     C_R   0.260877 0.502262 0.505741 0.912653
C21   C     C_R   0.916178 0.292960 0.537636 -0.051357
C22   C     C_R   0.987686 0.220808 0.603740 -0.086175
C23   C     C_R   0.873711 0.487012 0.477624 -0.287339
C24   C     C_R   0.098219 0.251825 0.654258 -0.159271
C25   C     C_R   0.143985 0.349053 0.628783 -0.047410
C26   C     C_R   0.075480 0.419145 0.556212 0.091987
C27   C     C_3   0.360380 0.191292 0.367357 -0.363315
C28   C     C_3   0.226057 0.172349 0.390650 -0.868684
C29   C     C_3   0.331442 0.774541 0.316630 -0.382471
C30   C     C_3   0.199766 0.830375 0.292027 -0.870458
C31   C     C_3   0.619748 0.808287 0.644795 -0.370362
C32   C     C_3   0.550009 0.826953 0.746838 -0.797253
C33   C     C_R   0.927046 0.574501 0.434411 0.459703
C34   C     C_R   0.054255 0.581315 0.450757 -0.302919
C35   C     C_R   0.127758 0.505174 0.511052 -0.161119
C36   C     C_R   0.475980 0.467183 0.189432 -0.028581
C37   C     C_R   0.511629 0.536213 0.811964 -0.162804
C38   C     C_R   0.655652 0.499670 0.960791 -0.173473
H1    H     H_    0.231455 0.517263 0.015333 0.223003
H2    H     H_    0.671616 0.456591 0.161089 0.162308
H3    H     H_    0.274926 0.482786 0.199389 0.145948
H4    H     H_    0.751318 0.484734 0.993143 0.180691
H5    H     H_    0.885691 0.770433 0.225748 0.391173
H6    H     H_    0.168665 0.682799 0.691512 0.386385
H7    H     H_    0.203678 0.087411 0.367683 0.258330
H8    H     H_    0.212565 0.187986 0.475815 0.277102
H9    H     H_    0.158308 0.229645 0.346113 0.251716
H10   H     H_    0.360645 0.279749 0.367224 0.272380
H11   H     H_    0.381637 0.160469 0.285974 0.185171
H12   H     H_    0.713608 0.516099 0.806137 0.194219
H13   H     H_    0.601778 0.274390 0.868811 0.381805
H14   H     H_    0.149459 0.849033 0.365677 0.279463
H15   H     H_    0.201915 0.906775 0.249652 0.255509
H16   H     H_    0.147290 0.773715 0.238845 0.304170
H17   H     H_    0.381069 0.759842 0.242236 0.230968
H18   H     H_    0.315666 0.695245 0.346290 0.257298
H19   H     H_    0.540431 0.915074 0.773903 0.257317
H20   H     H_    0.454420 0.799305 0.735078 0.306229
H21   H     H_    0.602564 0.779611 0.810064 0.255946
H22   H     H_    0.645653 0.720594 0.630634 0.257726
H23   H     H_    0.373205 0.982988 0.306221 0.170432
H24   H     H_    0.713182 0.840298 0.655278 0.196560
H25   H     H_    0.656342 0.011343 0.677419 0.217352
H26   H     H_    0.835406 0.261654 0.495896 0.163950
H27   H     H_    0.956807 0.141075 0.616077 0.175062
H28   H     H_    0.152445 0.197464 0.707818 0.168605
H29   H     H_    0.233965 0.367765 0.664848 0.194985
H30   H     H_    0.096940 0.644776 0.413663 0.214058
N1    N     N_R   0.523130 0.207800 0.519340 -0.184958
N2    N     N_R   0.476870 0.792180 0.480660 -0.128713
O1    O     O_R   0.506170 0.421690 0.658830 -0.531464
O2    O     O_2   0.792488 0.769872 0.417777 -0.311951
O3    O     O_3   0.937412 0.712532 0.264496 -0.590445
O4    O     O_2   0.169192 0.509195 0.816435 -0.344678
O5    O     O_2   0.205499 0.687350 0.904270 -0.296324
O6    O     O_3   0.257124 0.655712 0.709139 -0.569564
O7    O     O_2   0.767194 0.152415 0.765862 -0.345975
O8    O     O_2   0.726617 0.328436 0.687153 -0.296976
O9    O     O_3   0.555619 0.264464 0.799517 -0.556164
O10   O     O_R   0.491330 0.609320 0.646410 -0.615382
O11   O     O_R   0.690660 0.406170 0.506210 -0.606027
O12   O     O_R   0.675810 0.593790 0.493790 -0.579976
O13   O     O_R   0.508670 0.390680 0.353590 -0.666940
O14   O     O_R   0.493830 0.578310 0.341170 -0.599193
O15   O     O_R   0.324190 0.406210 0.506210 -0.660181
O16   O     O_R   0.309340 0.593830 0.493790 -0.622764
O17   O     O_2   0.735699 0.621197 0.290839 -0.317910
S1    S     S_3+6 0.842424 0.671424 0.351326 0.009079
S2    S     S_3+6 0.255528 0.599282 0.826145 -0.028508
S3    S     S_3+6 0.666860 0.228620 0.713008 0.013703
Zn1   Zn    Zn3+2 0.509910 0.374720 0.508290 0.984062
Zn2   Zn    Zn3+2 0.490090 0.625280 0.491710 0.996358

loop_
_geom_bond_atom_site_label_1
_geom_bond_atom_site_label_2
_ccdc_geom_bond_type
C27   H10   S    
H5    O3    S    
O17   S1    D    
C28   H9    S    
C17   N1    A    
C7    C36   A    
C25   H29   S    
C32   H20   S    
O15   Zn1   S    
C11   N2    A    
C22   H27   S    
O8    S3    D    
C30   H16   S    
C12   C23   A    
C28   H8    S    
C1    O1    A    
O4    S2    D    
C21   C22   A    
C33   S1    S    
C38   H4    S    
C10   C15   A    
C5    C6    A    
C13   N2    A    
C16   O14   A    
O12   Zn2   S    
C34   C35   A    
C8    C36   A    
H6    O6    S    
O9    S3    S    
C2    H12   S    
C20   C35   S    
C9    H1    S    
C4    O11   A    
C19   H25   S    
C8    C9    A    
C23   C33   A    
C20   O16   A    
C7    H2    S    
C6    C38   A    
C1    C37   S    
O6    S2    S    
C18   N1    A    
C13   C14   A    
C31   H24   S    
C32   H19   S    
O2    S1    D    
O7    S3    D    
C30   H15   S    
C28   H7    S    
C18   S3    S    
C8    H3    S    
C34   H30   S    
C4    C23   S    
C18   C19   A    
C29   H17   S    
C25   C26   A    
C12   C21   A    
C16   O13   A    
C12   C26   A    
C17   C27   S    
C31   H22   S    
O10   Zn2   S    
C21   H26   S    
O3    S1    S    
C5    C9    A    
C29   C30   S    
C2    C38   A    
C31   C32   S    
C20   O15   A    
C33   C34   A    
O1    Zn1   S    
C24   C25   A    
C11   C29   S    
C22   C24   A    
C10   H23   S    
C15   C17   A    
C30   H14   S    
C14   C19   A    
C13   C31   S    
N2    Zn2   S    
C3    C5    A    
C6    C7    A    
C29   H18   S    
C24   H28   S    
O13   Zn1   S    
C3    S2    S    
O16   Zn2   S    
C16   C36   S    
C2    C37   A    
H13   O9    S    
C10   C11   A    
O5    S2    D    
O11   Zn1   S    
C26   C35   A    
C4    O12   A    
C3    C37   A    
C27   C28   S    
C1    O10   A    
C14   C15   A    
O14   Zn2   S    
C32   H21   S    
N1    Zn1   S    
C27   H11   S    
