data_mof_unit_26231.cif
_audit_creation_date              2012-10-26T19:43:51-0400
_audit_creation_method            fapswitch 2.2
_symmetry_space_group_name_H-M    P1
_symmetry_Int_Tables_number       1
_space_group_crystal_system       triclinic
_cell_length_a                    12.369147
_cell_length_b                    13.326877
_cell_length_c                    13.880976
_cell_angle_alpha                 105.695599
_cell_angle_beta                  73.803912
_cell_angle_gamma                 116.992823
_cell_volume                      1930.0899003

loop_
_atom_site_label
_atom_site_type_symbol
_atom_type_description
_atom_site_fract_x
_atom_site_fract_y
_atom_site_fract_z
_atom_type_partial_charge
C1    C     C_R   0.144146 0.713783 0.513344 0.526493
C2    C     C_R   0.556271 0.031212 0.517644 0.033938
C3    C     C_R   0.587300 0.970238 0.567300 0.054152
C4    C     C_R   0.984112 0.504213 0.686302 0.539165
C5    C     C_R   0.494966 0.877181 0.610322 -0.124410
C6    C     C_R   0.374391 0.836976 0.596613 -0.112935
C7    C     C_R   0.651110 0.129714 0.482195 -0.116481
C8    C     C_R   0.801582 0.104763 0.542917 -0.129317
C9    C     C_R   0.225028 0.835804 0.511172 0.004272
C10   C     C_R   0.620146 0.643005 0.678994 -0.147023
C11   C     C_R   0.251511 0.358538 0.358216 0.036097
C12   C     C_1   0.974181 0.506306 0.791618 -0.018431
C13   C     C_R   0.349163 0.326362 0.322056 -0.125141
C14   C     C_R   0.449789 0.374644 0.371781 0.067766
C15   C     C_R   0.452165 0.459442 0.461985 0.006749
C16   C     C_R   0.855636 0.287057 0.488843 0.550784
C17   C     C_R   0.346307 0.487169 0.496077 0.166456
C18   C     C_R   0.549513 0.517547 0.521957 0.000996
C19   C     C_R   0.530912 0.588454 0.616659 0.033915
C20   C     C_R   0.425097 0.608264 0.647924 -0.179171
C21   C     C_R   0.339459 0.564409 0.585683 -0.093421
C22   C     C_R   0.665722 0.511927 0.493669 0.063881
C23   C     C_R   0.709818 0.005703 0.577159 -0.122703
C24   C     C_R   0.728757 0.627938 0.648285 0.050629
C25   C     C_R   0.015814 0.495746 0.313716 0.559298
C26   C     C_1   0.025162 0.493639 0.208516 0.023570
C27   C     C_2   0.038112 0.491288 0.015259 -0.102354
C28   C     C_2   0.955134 0.509745 0.986201 0.114071
C29   C     C_1   0.965218 0.508004 0.880390 -0.022922
C30   C     C_1   0.031981 0.492282 0.120199 0.001493
C31   C     C_R   0.771289 0.169020 0.498752 0.005682
C32   C     C_R   0.188451 0.898556 0.470398 -0.126530
C33   C     C_R   0.269874 0.007532 0.450924 -0.127528
C34   C     C_R   0.390697 0.053117 0.466763 -0.104251
C35   C     C_R   0.431664 0.991681 0.506229 0.035929
C36   C     C_R   0.343595 0.886645 0.537150 0.032023
Cu1   Cu    Cu3+1 0.899780 0.525060 0.522890 0.964434
Cu2   Cu    Cu3+1 0.100220 0.474940 0.477110 0.937213
H1    H     H_    0.303608 0.769911 0.636325 0.102308
H2    H     H_    0.894074 0.135006 0.557047 0.131551
H3    H     H_    0.516489 0.836730 0.655764 0.109865
H4    H     H_    0.733744 0.959005 0.614706 0.112870
H5    H     H_    0.633862 0.180151 0.444242 0.140598
H6    H     H_    0.097652 0.862036 0.450889 0.139352
H7    H     H_    0.448607 0.137697 0.450155 0.140145
H8    H     H_    0.240371 0.055759 0.420369 0.133247
H9    H     H_    0.796947 0.667064 0.697042 0.133865
H10   H     H_    0.410798 0.662978 0.719470 0.104076
H11   H     H_    0.605636 0.696548 0.751232 0.100517
H12   H     H_    0.695098 0.471037 0.421222 0.179013
H13   H     H_    0.174992 0.319526 0.317993 0.141928
H14   H     H_    0.345254 0.261880 0.254431 0.143269
H15   H     H_    0.268151 0.593341 0.610110 0.173837
H16   H     H_    0.112368 0.475210 0.959465 0.107826
I1    I     I_    0.807054 0.541819 0.089794 -0.314506
I2    I     I_    0.574446 0.294829 0.297554 -0.435727
N1    N     N_R   0.748810 0.563010 0.557590 -0.244446
N2    N     N_R   0.250540 0.437620 0.443020 -0.241063
O1    O     O_R   0.025040 0.682470 0.528790 -0.505527
O2    O     O_R   0.194310 0.640150 0.490130 -0.504500
O3    O     O_R   0.903380 0.524130 0.659910 -0.492275
O4    O     O_R   0.072660 0.481800 0.621240 -0.524613
O5    O     O_R   0.805690 0.359850 0.509870 -0.490789
O6    O     O_R   0.974960 0.317530 0.471210 -0.508554
O7    O     O_R   0.927340 0.518200 0.378760 -0.484999
O8    O     O_R   0.096620 0.475870 0.340090 -0.503657

loop_
_geom_bond_atom_site_label_1
_geom_bond_atom_site_label_2
_ccdc_geom_bond_type
C2    C35   A    
C19   C20   A    
C15   C18   A    
C14   I2    S    
Cu1   Cu2   S    
C16   O5    A    
C7    H5    S    
C12   C29   T    
C4    C12   S    
C13   H14   S    
C16   O6    A    
C10   C19   A    
Cu1   O3    S    
C35   C36   A    
C14   C15   A    
C17   N2    A    
C22   H12   S    
C32   C33   A    
C3    C5    A    
C22   N1    A    
C2    C3    A    
C32   H6    S    
C27   H16   S    
C1    C9    S    
C34   H7    S    
C20   H10   S    
C13   C14   A    
C27   C30   S    
C21   H15   S    
C33   H8    S    
C11   C13   A    
Cu1   O1    S    
C23   H4    S    
Cu2   O2    S    
C5    C6    A    
C28   C29   S    
Cu1   O5    S    
C28   I1    S    
C6    C36   A    
C26   C30   T    
Cu2   O6    S    
C1    O1    A    
C11   H13   S    
C33   C34   A    
C17   C21   A    
C7    C31   A    
C10   H11   S    
Cu2   N2    S    
C11   N2    A    
C9    C36   A    
C4    O4    A    
C25   O8    A    
C8    C23   A    
C25   O7    A    
C20   C21   A    
C34   C35   A    
C1    O2    A    
C27   C28   D    
C15   C17   A    
Cu2   O8    S    
C6    H1    S    
C18   C19   A    
C5    H3    S    
C8    H2    S    
C9    C32   A    
C10   C24   A    
C25   C26   S    
C18   C22   A    
C24   H9    S    
C3    C23   A    
C4    O3    A    
Cu1   N1    S    
C8    C31   A    
C2    C7    A    
Cu2   O4    S    
C24   N1    A    
C16   C31   S    
Cu1   O7    S    
