data_mof_unit_33833.cif
_audit_creation_date              2012-12-11T14:40:21-0500
_audit_creation_method            fapswitch 2.2
_symmetry_space_group_name_H-M    P1
_symmetry_Int_Tables_number       1
_space_group_crystal_system       triclinic
_cell_length_a                    19.716344
_cell_length_b                    10.920775
_cell_length_c                    19.461953
_cell_angle_alpha                 90.205248
_cell_angle_beta                  97.386828
_cell_angle_gamma                 90.364104
_cell_volume                      4155.60119841

loop_
_atom_site_label
_atom_site_type_symbol
_atom_type_description
_atom_site_fract_x
_atom_site_fract_y
_atom_site_fract_z
_atom_type_partial_charge
C1    C     C_R   0.709209 0.996458 0.366951 0.552936
C2    C     C_3   0.250134 0.405593 0.568636 0.055583
C3    C     C_R   0.571587 0.424927 0.681979 -0.054633
C4    C     C_R   0.599875 0.312973 0.665896 -0.084253
C5    C     C_R   0.631147 0.301034 0.605789 -0.106906
C6    C     C_R   0.364783 0.530860 0.468992 0.050345
C7    C     C_R   0.408073 0.602356 0.516055 -0.091307
C8    C     C_R   0.469502 0.648668 0.497861 -0.112870
C9    C     C_R   0.491696 0.613286 0.435480 -0.102127
C10   C     C_R   0.453016 0.529557 0.392166 -0.098953
C11   C     C_R   0.390377 0.486850 0.409392 -0.056733
C12   C     C_R   0.135824 0.902560 0.562316 0.035888
C13   C     C_3   0.247725 0.909675 0.430778 0.051342
C14   C     C_R   0.103729 0.012400 0.576781 -0.052741
C15   C     C_R   0.071292 0.023416 0.636161 -0.088014
C16   C     C_R   0.071437 0.925382 0.681842 -0.053859
C17   C     C_R   0.099722 0.813387 0.665823 -0.083172
C18   C     C_R   0.131051 0.801358 0.605757 -0.106917
C19   C     C_R   0.864782 0.030760 0.468930 0.050162
C20   C     C_R   0.908074 0.102360 0.515932 -0.091352
C21   C     C_R   0.969479 0.148673 0.497678 -0.112683
C22   C     C_R   0.991652 0.113183 0.435306 -0.101653
C23   C     C_R   0.952971 0.029363 0.392055 -0.098602
C24   C     C_3   0.750143 0.905583 0.568633 0.055340
C25   C     C_R   0.890351 0.986661 0.409337 -0.056592
C26   C     C_3   0.710023 0.507461 0.468224 -0.125629
C27   C     C_3   0.253913 0.536065 0.543234 -0.146435
C28   C     C_3   0.210087 0.007550 0.468206 -0.125698
C29   C     C_3   0.753947 0.036047 0.543223 -0.146303
C30   C     C_3   0.779316 0.535476 0.513022 -0.129772
C31   C     C_3   0.186223 0.509969 0.494390 -0.162433
C32   C     C_3   0.279392 0.035448 0.513014 -0.130387
C33   C     C_R   0.276452 0.956734 0.637540 0.539027
C34   C     C_3   0.686242 0.009989 0.494395 -0.162540
C35   C     C_3   0.816204 0.437886 0.474281 -0.116318
C36   C     C_3   0.183441 0.378388 0.520936 -0.103985
C37   C     C_3   0.316223 0.937761 0.474285 -0.116590
C38   C     C_3   0.683437 0.878416 0.520947 -0.104229
C39   C     C_3   0.799547 0.339490 0.525935 -0.121283
C40   C     C_3   0.226002 0.332911 0.465011 -0.125955
C41   C     C_3   0.299496 0.839421 0.525942 -0.121080
C42   C     C_3   0.725975 0.832893 0.465013 -0.125870
C43   C     C_3   0.763077 0.435783 0.563614 0.046273
C44   C     C_R   0.209208 0.496464 0.366951 0.551496
C45   C     C_3   0.228631 0.463937 0.438650 0.046962
C46   C     C_3   0.263084 0.935809 0.563610 0.045560
C47   C     C_3   0.728628 0.963913 0.438646 0.046528
C48   C     C_3   0.547442 0.270166 0.966456 -0.145194
C49   C     C_3   0.498517 0.276821 0.022409 -0.117577
C50   C     C_3   0.040739 0.779144 0.968339 -0.139010
C51   C     C_3   0.991759 0.766515 0.023928 -0.117341
C52   C     C_3   0.587403 0.167142 0.006771 0.317828
C53   C     C_3   0.453088 0.177187 0.984363 0.386780
C54   C     C_3   0.089341 0.685597 0.007240 0.328059
C55   C     C_R   0.776450 0.456728 0.637542 0.537526
C56   C     C_3   0.955493 0.658539 0.984040 0.388294
C57   C     C_3   0.539502 0.174011 0.062361 0.002300
C58   C     C_3   0.501368 0.170905 0.928879 0.007437
C59   C     C_3   0.041167 0.673609 0.062373 0.003154
C60   C     C_3   0.003526 0.671246 0.928646 0.002619
C61   C     C_R   0.534164 0.179964 0.337230 0.546179
C62   C     C_R   0.435725 0.183228 0.651686 0.543754
C63   C     C_R   0.034165 0.679964 0.337231 0.547129
C64   C     C_R   0.935722 0.683228 0.651686 0.543594
C65   C     C_3   0.493029 0.074260 0.024793 -0.126548
C66   C     C_3   0.730410 0.310762 0.482392 -0.113415
C67   C     C_3   0.541647 0.067389 0.968001 -0.146504
C68   C     C_3   0.003985 0.565070 0.022880 -0.130141
C69   C     C_3   0.052633 0.577468 0.966310 -0.160855
C70   C     C_1   0.759783 0.415993 0.901121 0.030987
C71   C     C_1   0.219354 0.472015 0.085823 0.058205
C72   C     C_1   0.264191 0.929166 0.905274 0.032372
C73   C     C_1   0.723057 0.961922 0.087532 0.068833
C74   C     C_1   0.739292 0.376641 0.028514 0.047001
C75   C     C_1   0.242857 0.435873 0.958617 0.006147
C76   C     C_1   0.250024 0.914330 0.036295 0.048425
C77   C     C_3   0.292734 0.358306 0.513814 -0.128011
C78   C     C_1   0.746041 0.926960 0.960517 0.011522
C79   C     C_1   0.748791 0.396125 0.959242 0.016647
C80   C     C_1   0.230605 0.455951 0.027257 0.031019
C81   C     C_1   0.256426 0.921043 0.965314 0.030657
C82   C     C_1   0.734865 0.944308 0.029438 0.042799
C83   C     C_1   0.732143 0.354626 0.087515 0.073083
C84   C     C_1   0.252682 0.410118 0.900696 0.028697
C85   C     C_1   0.244460 0.899287 0.096437 0.059305
C86   C     C_1   0.754356 0.905151 0.901841 0.024753
C87   C     C_R   0.740322 0.367976 0.359861 0.548241
C88   C     C_3   0.230348 0.810815 0.482391 -0.111652
C89   C     C_R   0.260811 0.362278 0.638356 0.536988
C90   C     C_R   0.240322 0.867972 0.359863 0.535921
C91   C     C_R   0.760814 0.862275 0.638355 0.537804
C92   C     C_R   0.706881 0.992123 0.154635 0.558038
C93   C     C_R   0.278460 0.953722 0.836625 0.559085
C94   C     C_R   0.205336 0.496267 0.154698 0.567179
C95   C     C_R   0.777792 0.451778 0.835561 0.568148
C96   C     C_R   0.562040 0.182431 0.136433 0.563003
C97   C     C_R   0.471533 0.178904 0.857629 0.584620
C98   C     C_R   0.062675 0.682468 0.136650 0.584167
C99   C     C_3   0.792722 0.858251 0.513803 -0.127952
C100  C     C_R   0.972019 0.678948 0.857508 0.584859
C101  C     C_R   0.724173 0.317422 0.156088 0.554632
C102  C     C_R   0.263572 0.362486 0.834698 0.568932
C103  C     C_R   0.236260 0.861139 0.164907 0.552541
C104  C     C_R   0.763759 0.861948 0.834805 0.564046
C105  C     C_1   0.454156 0.175235 0.583042 -0.015892
C106  C     C_1   0.504509 0.172126 0.400428 -0.021618
C107  C     C_1   0.954150 0.675234 0.583041 -0.015999
C108  C     C_1   0.004508 0.672127 0.400428 -0.019880
C109  C     C_1   0.485725 0.169761 0.456834 -0.055379
C110  C     C_3   0.747718 0.409681 0.430780 0.048933
C111  C     C_1   0.468204 0.171077 0.524712 -0.054166
C112  C     C_1   0.985722 0.669762 0.456834 -0.054957
C113  C     C_1   0.968198 0.671076 0.524711 -0.054332
C114  C     C_3   0.694462 0.408952 0.520502 -0.008489
C115  C     C_3   0.295792 0.488870 0.486507 0.009758
C116  C     C_3   0.194459 0.909098 0.520488 -0.008525
C117  C     C_3   0.795801 0.988805 0.486489 0.009675
C118  C     C_R   0.635852 0.402283 0.562364 0.036081
C119  C     C_R   0.603732 0.512067 0.576885 -0.052630
C120  C     C_R   0.571357 0.522995 0.636310 -0.087741
Cr1   Cr    Cr6+3 0.765830 0.160660 0.268180 1.025138
Cr2   Cr    Cr6+3 0.384070 0.324050 0.751550 1.020108
Cr3   Cr    Cr6+3 0.115930 0.824050 0.248450 1.017967
Cr4   Cr    Cr6+3 0.884070 0.824050 0.751550 1.016593
Cr5   Cr    Cr6+3 0.234170 0.160660 0.731820 1.019277
Cr6   Cr    Cr6+3 0.265830 0.660660 0.268180 1.029101
Cr7   Cr    Cr6+3 0.734170 0.660660 0.731820 1.019188
Cr8   Cr    Cr6+3 0.612110 0.009150 0.248770 1.022693
Cr9   Cr    Cr6+3 0.387890 0.009150 0.751230 1.028814
Cr10  Cr    Cr6+3 0.112110 0.509150 0.248770 1.025033
Cr11  Cr    Cr6+3 0.887890 0.509150 0.751230 1.032832
Cr12  Cr    Cr6+3 0.615930 0.324050 0.248450 1.015990
F1    F     F_    0.657407 0.161839 0.017848 -0.698183
F2    F     F_    0.382545 0.182385 0.970696 -0.627565
F3    F     F_    0.159267 0.699902 0.020677 -0.676999
F4    F     F_    0.885255 0.644445 0.970353 -0.623698
H1    H     H_    0.708102 0.224623 0.460959 0.108570
H2    H     H_    0.640267 0.068869 0.485406 0.104372
H3    H     H_    0.800790 0.622997 0.533239 0.103702
H4    H     H_    0.140234 0.568815 0.485399 0.104139
H5    H     H_    0.865510 0.450766 0.453288 0.130923
H6    H     H_    0.137112 0.332857 0.536114 0.120464
H7    H     H_    0.365541 0.950526 0.453299 0.129903
H8    H     H_    0.637103 0.832917 0.536135 0.120543
H9    H     H_    0.835783 0.279542 0.556617 0.121369
H10   H     H_    0.216255 0.253837 0.429515 0.125616
H11   H     H_    0.335686 0.779408 0.556633 0.121286
H12   H     H_    0.339886 0.303480 0.523663 0.100397
H13   H     H_    0.716192 0.753798 0.429535 0.126572
H14   H     H_    0.570701 0.348551 0.941562 0.131313
H15   H     H_    0.479445 0.361823 0.044596 0.154597
H16   H     H_    0.056937 0.865512 0.945084 0.136458
H17   H     H_    0.965496 0.842646 0.047466 0.153136
H18   H     H_    0.469926 0.995670 0.049628 0.144223
H19   H     H_    0.560219 0.983446 0.944283 0.132071
H20   H     H_    0.988023 0.478646 0.046221 0.147832
H21   H     H_    0.078092 0.502062 0.941311 0.127618
H22   H     H_    0.609915 0.592978 0.546347 0.094563
H23   H     H_    0.207975 0.724706 0.460979 0.108971
H24   H     H_    0.549369 0.609507 0.648875 0.086780
H25   H     H_    0.549513 0.435540 0.729761 0.126510
H26   H     H_    0.599415 0.236581 0.701120 0.121143
H27   H     H_    0.657293 0.216844 0.596840 0.097730
H28   H     H_    0.395338 0.619439 0.567531 0.098027
H29   H     H_    0.500763 0.709407 0.532999 0.096672
H30   H     H_    0.539882 0.647419 0.421927 0.105279
H31   H     H_    0.471521 0.497699 0.345303 0.132381
H32   H     H_    0.362252 0.418958 0.376357 0.133715
H33   H     H_    0.109962 0.093273 0.546228 0.094576
H34   H     H_    0.839869 0.803410 0.523640 0.100534
H35   H     H_    0.049317 0.109963 0.648682 0.086649
H36   H     H_    0.049309 0.936060 0.729589 0.126970
H37   H     H_    0.099207 0.737028 0.701062 0.121056
H38   H     H_    0.157182 0.717129 0.596853 0.097525
H39   H     H_    0.895362 0.119514 0.567409 0.097952
H40   H     H_    0.000738 0.209497 0.532765 0.096586
H41   H     H_    0.039822 0.147312 0.421710 0.105152
H42   H     H_    0.971455 0.997441 0.345195 0.132132
H43   H     H_    0.862215 0.918725 0.376342 0.134476
H44   H     H_    0.671581 0.570098 0.441169 0.099301
H45   H     H_    0.264853 0.614375 0.579325 0.097816
H46   H     H_    0.171670 0.070211 0.441134 0.098829
H47   H     H_    0.764932 0.114364 0.579302 0.097889
H48   H     H_    0.300929 0.122947 0.533202 0.103635
O1    O     O_R   0.783230 0.287800 0.346510 -0.509116
O2    O     O_R   0.454570 0.285140 0.836900 -0.507928
O3    O     O_R   0.045430 0.785140 0.163100 -0.509071
O4    O     O_R   0.954570 0.785140 0.836900 -0.514905
O5    O     O_R   0.677850 0.374730 0.185500 -0.505878
O6    O     O_R   0.322150 0.374730 0.814500 -0.476176
O7    O     O_R   0.177850 0.874730 0.185500 -0.503746
O8    O     O_R   0.822150 0.874730 0.814500 -0.482020
O9    O     O_3   0.664630 0.164620 0.255130 -0.323115
O10   O     O_3   0.335370 0.164620 0.744870 -0.266311
O11   O     O_3   0.164630 0.664620 0.255130 -0.310596
O12   O     O_R   0.216770 0.287800 0.653490 -0.531537
O13   O     O_3   0.835370 0.664620 0.744870 -0.265999
O14   O     O_R   0.760130 0.037060 0.338610 -0.505420
O15   O     O_R   0.239870 0.037060 0.661390 -0.498612
O16   O     O_R   0.260130 0.537060 0.338610 -0.506100
O17   O     O_R   0.739870 0.537060 0.661390 -0.499651
O18   O     O_R   0.666620 0.921370 0.332440 -0.510346
O19   O     O_R   0.333380 0.921370 0.667560 -0.536397
O20   O     O_R   0.166620 0.421370 0.332440 -0.512126
O21   O     O_R   0.833380 0.421370 0.667560 -0.537934
O22   O     O_R   0.557170 0.082420 0.312350 -0.503650
O23   O     O_R   0.283230 0.787800 0.346510 -0.513505
O24   O     O_R   0.442830 0.082420 0.687650 -0.504001
O25   O     O_R   0.057170 0.582420 0.312350 -0.503591
O26   O     O_R   0.942830 0.582420 0.687650 -0.505167
O27   O     O_R   0.548310 0.285980 0.316250 -0.512243
O28   O     O_R   0.451690 0.285980 0.683750 -0.526665
O29   O     O_R   0.048310 0.785980 0.316250 -0.513411
O30   O     O_R   0.951690 0.785980 0.683750 -0.526508
O31   O     O_R   0.680520 0.375500 0.327470 -0.500620
O32   O     O_R   0.319480 0.375500 0.672530 -0.523563
O33   O     O_R   0.180520 0.875500 0.327470 -0.506366
O34   O     O_R   0.716770 0.787800 0.653490 -0.531149
O35   O     O_R   0.819480 0.875500 0.672530 -0.522710
O36   O     O_R   0.780350 0.286970 0.193350 -0.507275
O37   O     O_R   0.219650 0.286970 0.806650 -0.512897
O38   O     O_R   0.280350 0.786970 0.193350 -0.510619
O39   O     O_R   0.719650 0.786970 0.806650 -0.510571
O40   O     O_R   0.757460 0.036290 0.196640 -0.500301
O41   O     O_R   0.242540 0.036290 0.803360 -0.491869
O42   O     O_R   0.257460 0.536290 0.196640 -0.484486
O43   O     O_R   0.742540 0.536290 0.803360 -0.493311
O44   O     O_R   0.663740 0.920540 0.179290 -0.505468
O45   O     O_R   0.554500 0.081650 0.170370 -0.506533
O46   O     O_R   0.336260 0.920540 0.820710 -0.500131
O47   O     O_R   0.163740 0.420540 0.179290 -0.513073
O48   O     O_R   0.836260 0.420540 0.820710 -0.493943
O49   O     O_R   0.445500 0.081650 0.829630 -0.482486
O50   O     O_R   0.054500 0.581650 0.170370 -0.511684
O51   O     O_R   0.945500 0.581650 0.829630 -0.472630
O52   O     O_R   0.545430 0.285140 0.163100 -0.514350

loop_
_geom_bond_atom_site_label_1
_geom_bond_atom_site_label_2
_ccdc_geom_bond_type
Cr11  O48   S    
C93   O46   A    
Cr8   O45   S    
C52   F1    S    
C48   H14   S    
C13   C90   S    
C24   C99   S    
C84   C102  S    
C19   C20   A    
C74   C83   T    
C86   C104  S    
C26   C114  S    
Cr9   O10   S    
C7    C8    A    
C87   O1    A    
C71   C94   S    
Cr4   O30   S    
Cr12  O27   S    
C50   C54   S    
C54   F3    S    
C30   C35   S    
C40   C45   S    
Cr10  O47   S    
C64   O30   A    
C9    H30   S    
C100  O4    A    
Cr2   O10   S    
C38   C42   S    
C101  O5    A    
C109  C111  S    
C43   C114  S    
C35   C110  S    
C75   C84   T    
Cr2   O2    S    
C20   H39   S    
C96   O45   A    
Cr12  O9    S    
C33   O15   A    
C2    C36   S    
C15   C16   A    
C55   O17   A    
C66   C114  S    
C92   O44   A    
C49   C57   S    
C67   H19   S    
C51   C56   S    
C61   O27   A    
C88   H23   S    
Cr1   O9    S    
C46   C116  S    
C42   H13   S    
C36   H6    S    
C24   C29   S    
C107  C113  T    
C23   H42   S    
C28   H46   S    
C28   C116  S    
C118  C119  A    
C47   C117  S    
Cr6   O11   S    
Cr8   O9    S    
C1    O14   A    
Cr2   O32   S    
C10   H31   S    
C65   C67   S    
C57   C96   S    
C41   H11   S    
C69   H21   S    
C41   C46   S    
C31   H4    S    
C13   C28   S    
C2    C27   S    
C120  H24   S    
Cr5   O10   S    
C53   C65   S    
C9    C10   A    
C26   C110  S    
C104  O39   A    
C13   C37   S    
C72   C81   T    
C85   C103  S    
C91   O35   A    
Cr7   O39   S    
C61   O22   A    
C78   C86   T    
C23   C25   A    
C105  C111  T    
Cr4   O35   S    
C31   C36   S    
Cr3   O33   S    
C68   H20   S    
C21   C22   A    
Cr7   O43   S    
C33   C46   S    
C64   O26   A    
Cr6   O42   S    
C58   C97   S    
Cr8   O22   S    
C63   O25   A    
C14   H33   S    
Cr5   O41   S    
C1    O18   A    
Cr7   O13   S    
C62   O24   A    
C71   C80   T    
C56   F4    S    
C17   H37   S    
C94   O47   A    
Cr2   O6    S    
C51   C59   S    
C33   O19   A    
C54   C59   S    
C22   C23   A    
C60   C100  S    
C97   O2    A    
C55   O21   A    
C49   H15   S    
C27   C31   S    
Cr2   O28   S    
C28   C32   S    
C95   O48   A    
Cr10  O11   S    
C3    C120  A    
C6    C11   A    
C99   H34   S    
Cr9   O24   S    
C3    H25   S    
C8    C9    A    
C39   C43   S    
Cr5   O12   S    
Cr11  O51   S    
C76   C85   T    
C56   C68   S    
C89   O12   A    
C29   C117  S    
C29   C34   S    
C90   O33   A    
C66   C110  S    
C108  C112  T    
Cr9   O49   S    
C44   O16   A    
C88   C116  S    
C2    C89   S    
C35   C39   S    
C27   H45   S    
C98   O3    A    
C34   H2    S    
C93   O41   A    
C59   C68   S    
C99   C117  S    
Cr12  O52   S    
C16   H36   S    
C24   C38   S    
C98   O50   A    
C92   O40   A    
Cr6   O23   S    
Cr8   O44   S    
C21   H40   S    
C97   O49   A    
C39   H9    S    
Cr11  O26   S    
Cr6   O38   S    
C17   C18   A    
C96   O52   A    
C15   H35   S    
C50   C51   S    
Cr12  O31   S    
Cr8   O18   S    
C32   C37   S    
C63   O29   A    
C119  C120  A    
C48   C58   S    
C61   C106  S    
Cr7   O17   S    
C77   H12   S    
C19   C117  S    
C114  C118  S    
C52   C67   S    
C35   H5    S    
C89   O32   A    
C37   H7    S    
C72   C93   S    
C18   H38   S    
C43   C55   S    
C48   C49   S    
C12   C14   A    
C26   C30   S    
C26   H44   S    
C74   C79   S    
Cr3   O29   S    
C11   H32   S    
C39   C66   S    
C4    H26   S    
C30   C43   S    
C103  O7    A    
Cr3   O7    S    
C3    C4    A    
Cr11  O21   S    
C24   C91   S    
C5    H27   S    
C73   C82   T    
Cr4   O8    S    
C36   C40   S    
Cr10  O20   S    
C44   C45   S    
C64   C107  S    
Cr4   O4    S    
C75   C80   S    
C54   C69   S    
Cr6   O16   S    
C41   C88   S    
C51   H17   S    
C62   O28   A    
C30   H3    S    
C83   C101  S    
C87   C110  S    
Cr11  O13   S    
C70   C79   T    
C34   C38   S    
C32   C46   S    
C32   H48   S    
C1    C47   S    
C53   F2    S    
C73   C92   S    
C57   C65   S    
C45   C115  S    
C78   C82   S    
C76   C81   S    
C52   C57   S    
C53   C58   S    
C25   H43   S    
C29   H47   S    
C6    C7    A    
Cr5   O37   S    
Cr1   O14   S    
C7    H28   S    
Cr10  O25   S    
C40   H10   S    
C5    C118  A    
C10   C11   A    
C91   O34   A    
C70   C95   S    
C38   H8    S    
C50   C60   S    
C103  O38   A    
C2    C77   S    
C42   C99   S    
Cr3   O11   S    
C101  O36   A    
C102  O37   A    
C16   C17   A    
C66   H1    S    
C60   C69   S    
Cr9   O46   S    
C119  H22   S    
C49   C53   S    
C4    C5    A    
Cr4   O13   S    
C13   C88   S    
C102  O6    A    
Cr1   O40   S    
Cr10  O50   S    
C112  C113  S    
C42   C47   S    
C40   C77   S    
C37   C41   S    
C68   C69   S    
C95   O43   A    
C6    C115  S    
C8    H29   S    
C94   O42   A    
C19   C25   A    
Cr1   O1    S    
C90   O23   A    
Cr9   O19   S    
C50   H16   S    
C58   C67   S    
C48   C52   S    
C56   C60   S    
C20   C21   A    
Cr5   O15   S    
C31   C45   S    
C12   C18   A    
C44   O20   A    
C59   C98   S    
C87   O31   A    
C14   C15   A    
C100  O51   A    
C34   C47   S    
C65   H18   S    
C22   H41   S    
C63   C108  S    
C77   C115  S    
Cr12  O5    S    
C106  C109  T    
C62   C105  S    
Cr7   O34   S    
C27   C115  S    
Cr1   O36   S    
C12   C116  S    
Cr3   O3    S    
C104  O8    A    
