data_mof_unit_17181.cif
_audit_creation_date              2012-12-10T18:23:50-0500
_audit_creation_method            fapswitch 2.2
_symmetry_space_group_name_H-M    P1
_symmetry_Int_Tables_number       1
_space_group_crystal_system       triclinic
_cell_length_a                    22.440876
_cell_length_b                    22.470244
_cell_length_c                    14.619479
_cell_angle_alpha                 90.541559
_cell_angle_beta                  89.429587
_cell_angle_gamma                 89.96785
_cell_volume                      7371.20473765

loop_
_atom_site_label
_atom_site_type_symbol
_atom_type_description
_atom_site_fract_x
_atom_site_fract_y
_atom_site_fract_z
_atom_type_partial_charge
C1    C     C_R   0.419734 0.919736 0.499969 0.819154
C2    C     C_R   0.580327 0.080152 0.500010 0.817585
C3    C     C_R   0.580358 0.919812 0.499471 0.818566
C4    C     C_R   0.419868 0.080359 0.500553 0.819005
C5    C     C_R   0.919722 0.419745 0.499962 0.818618
C6    C     C_R   0.080299 0.580184 0.500004 0.818107
C7    C     C_R   0.080343 0.419808 0.499397 0.818975
C8    C     C_R   0.919806 0.580278 0.500616 0.818715
C9    C     C_1   0.338779 0.164009 0.502132 0.040846
C10   C     C_1   0.663404 0.837932 0.498949 0.074608
C11   C     C_1   0.662562 0.162614 0.499946 0.039031
C12   C     C_1   0.337374 0.837235 0.498958 0.076971
C13   C     C_1   0.838375 0.663538 0.503766 0.038915
C14   C     C_1   0.163470 0.338032 0.497083 0.075433
C15   C     C_1   0.162417 0.662773 0.499823 0.039605
C16   C     C_1   0.837328 0.337269 0.498826 0.076389
C17   C     C_1   0.500066 0.000121 0.194177 0.189887
C18   C     C_1   0.499443 0.000530 0.805849 0.188039
C19   C     C_1   0.999763 0.500395 0.194185 0.192947
C20   C     C_1   0.000054 0.500297 0.805823 0.189791
C21   C     C_3   0.545638 0.033818 0.968507 -0.304968
C22   C     C_3   0.453367 0.967647 0.031340 -0.271207
C23   C     C_3   0.494642 0.057333 0.032476 -0.304056
C24   C     C_3   0.504379 0.944331 0.967649 -0.285157
C25   C     C_3   0.048648 0.530063 0.968978 -0.294537
C26   C     C_3   0.950903 0.471471 0.031034 -0.284384
C27   C     C_3   0.999087 0.557666 0.031650 -0.295373
C28   C     C_3   0.000488 0.443853 0.968377 -0.284965
C29   C     C_3   0.700162 0.729115 0.540214 -0.382202
C30   C     C_3   0.303674 0.274536 0.464498 -0.509129
C31   C     C_3   0.299535 0.728195 0.456100 -0.382705
C32   C     C_3   0.699802 0.272084 0.542274 -0.500030
C33   C     C_3   0.200163 0.228891 0.535093 -0.382325
C34   C     C_3   0.803054 0.773600 0.465776 -0.509373
C35   C     C_3   0.799179 0.228597 0.454383 -0.383177
C36   C     C_3   0.199336 0.772630 0.540564 -0.499796
C37   C     C_3   0.234610 0.205133 0.450190 0.407756
C38   C     C_3   0.768923 0.798727 0.551160 0.391882
C39   C     C_3   0.769791 0.202756 0.541529 0.400779
C40   C     C_3   0.230325 0.797869 0.453267 0.389531
C41   C     C_3   0.733552 0.704321 0.455023 0.405728
C42   C     C_3   0.268513 0.298661 0.549607 0.389604
C43   C     C_3   0.269184 0.703225 0.543087 0.400193
C44   C     C_3   0.729813 0.298184 0.454800 0.390352
C45   C     C_1   0.375799 0.125694 0.501783 -0.173703
C46   C     C_1   0.625428 0.875360 0.498489 -0.163555
C47   C     C_1   0.625037 0.124821 0.500043 -0.177012
C48   C     C_1   0.375027 0.874959 0.499720 -0.163006
C49   C     C_1   0.875543 0.625385 0.502319 -0.175365
C50   C     C_1   0.125435 0.375400 0.497860 -0.163868
C51   C     C_1   0.124938 0.624931 0.499993 -0.176617
C52   C     C_1   0.874991 0.374987 0.499668 -0.164042
C53   C     C_3   0.260075 0.235140 0.585818 0.435678
C54   C     C_3   0.742565 0.766962 0.416679 0.398157
C55   C     C_3   0.736402 0.235526 0.412776 0.442036
C56   C     C_3   0.261570 0.765852 0.584003 0.410340
C57   C     C_3   0.760744 0.735591 0.589063 0.439489
C58   C     C_3   0.243735 0.268242 0.413648 0.398817
C59   C     C_3   0.237233 0.734823 0.412770 0.442133
C60   C     C_3   0.762512 0.264995 0.583980 0.410334
C61   C     C_3   0.293822 0.210397 0.501501 -0.061075
C62   C     C_3   0.709321 0.792438 0.501066 -0.035541
C63   C     C_3   0.707731 0.208802 0.499221 -0.067068
C64   C     C_3   0.291688 0.791491 0.497837 -0.039671
C65   C     C_3   0.793395 0.709888 0.504405 -0.062235
C66   C     C_3   0.209515 0.292650 0.497901 -0.033795
C67   C     C_3   0.207601 0.708952 0.499090 -0.066913
C68   C     C_3   0.791665 0.291498 0.497675 -0.039541
C69   C     C_3   0.549864 0.977545 0.028019 0.551354
C70   C     C_3   0.448840 0.024071 0.972089 0.580644
C71   C     C_3   0.047927 0.473882 0.029175 0.564033
C72   C     C_3   0.951623 0.527640 0.970766 0.567375
C73   C     C_3   0.499835 0.000461 0.091603 -0.023730
C74   C     C_3   0.499083 0.000966 0.908491 -0.030286
C75   C     C_3   0.999354 0.500936 0.091605 -0.030871
C76   C     C_3   0.000240 0.500545 0.908404 -0.031286
Cu1   Cu    Cu3+1 0.500000 0.000000 0.590220 0.992490
Cu2   Cu    Cu3+1 0.500000 0.000000 0.409780 0.993430
Cu3   Cu    Cu3+1 0.000000 0.500000 0.590220 0.991622
Cu4   Cu    Cu3+1 0.000000 0.500000 0.409780 0.992784
H1    H     H_    0.658204 0.711814 0.570692 0.169193
H2    H     H_    0.346351 0.291419 0.435851 0.152799
H3    H     H_    0.340325 0.710892 0.421490 0.170738
H4    H     H_    0.659131 0.288111 0.578625 0.158153
H5    H     H_    0.157915 0.211159 0.563980 0.169210
H6    H     H_    0.845412 0.790136 0.435551 0.153404
H7    H     H_    0.839625 0.211723 0.418331 0.170593
H8    H     H_    0.158305 0.789038 0.575508 0.158104
H9    H     H_    0.491991 0.103574 0.059540 0.140148
H10   H     H_    0.509133 0.898018 0.941479 0.152249
H11   H     H_    0.583688 0.060622 0.942762 0.145423
H12   H     H_    0.415736 0.939979 0.056271 0.149331
H13   H     H_    0.997255 0.604325 0.057146 0.144898
H14   H     H_    0.001940 0.397266 0.942580 0.148976
H15   H     H_    0.089314 0.553133 0.944008 0.148660
H16   H     H_    0.910569 0.448099 0.056483 0.150050
N1    N     N_1   0.499980 1.000000 0.274190 -0.155096
N2    N     N_1   0.500020 0.000000 0.725810 -0.155849
N3    N     N_1   0.999980 0.500000 0.274190 -0.155457
N4    N     N_1   0.000020 0.500000 0.725810 -0.156029
O1    O     O_R   0.439540 0.939530 0.576170 -0.564101
O2    O     O_R   0.560460 0.060470 0.423830 -0.571403
O3    O     O_R   0.560460 0.939530 0.423830 -0.561109
O4    O     O_R   0.439540 0.060470 0.576170 -0.567061
O5    O     O_R   0.939540 0.439530 0.576170 -0.565499
O6    O     O_R   0.060460 0.560470 0.423830 -0.571536
O7    O     O_R   0.060460 0.439530 0.423830 -0.560498
O8    O     O_R   0.939540 0.560470 0.576170 -0.566929
O9    O     O_R   0.439530 0.939530 0.423800 -0.569737
O10   O     O_R   0.560470 0.060470 0.576200 -0.573033
O11   O     O_R   0.560470 0.939530 0.576200 -0.572775
O12   O     O_R   0.439530 0.060470 0.423800 -0.573546
O13   O     O_R   0.939530 0.439530 0.423800 -0.569457
O14   O     O_R   0.060470 0.560470 0.576200 -0.572218
O15   O     O_R   0.060470 0.439530 0.576200 -0.573032
O16   O     O_R   0.939530 0.560470 0.423800 -0.575218
O17   O     O_3   0.394841 0.045912 0.936053 -0.612993
C77   C     C_3   0.362920 0.080932 0.001025 0.044182
H17   H     H_    0.331219 0.108760 0.962193 0.176620
H18   H     H_    0.391671 0.112768 0.038834 0.120491
C78   C     C_3   0.326692 0.042416 0.067540 -0.361105
H19   H     H_    0.300508 0.009063 0.028294 0.233844
H20   H     H_    0.357070 0.018691 0.114144 0.211409
C79   C     C_3   0.284273 0.080149 0.126279 -0.900960
H21   H     H_    0.309905 0.111731 0.169535 0.256452
H22   H     H_    0.257775 0.050809 0.171864 0.264340
H23   H     H_    0.253138 0.105383 0.082531 0.251769
O18   O     O_3   0.602600 0.951903 0.061725 -0.607719
C80   C     C_3   0.642834 0.941144 0.988538 0.054280
H24   H     H_    0.661587 0.984035 0.964003 0.143996
H25   H     H_    0.620891 0.917501 0.930559 0.138808
C81   C     C_3   0.693764 0.902141 0.021996 -0.315041
H26   H     H_    0.716332 0.924724 0.080085 0.227973
H27   H     H_    0.675266 0.859185 0.046398 0.222183
C82   C     C_3   0.739358 0.889719 0.945958 -0.928842
H28   H     H_    0.718151 0.865419 0.888318 0.268874
H29   H     H_    0.776026 0.861917 0.972858 0.258949
H30   H     H_    0.758582 0.932060 0.920482 0.256737
O19   O     O_3   0.901223 0.556429 0.934734 -0.615021
C83   C     C_3   0.862006 0.575442 0.005604 0.027105
H31   H     H_    0.851564 0.623093 0.994325 0.165868
H32   H     H_    0.880759 0.572443 0.075874 0.128877
C84   C     C_3   0.804102 0.539767 0.000725 -0.324045
H33   H     H_    0.784505 0.544442 0.931618 0.232600
H34   H     H_    0.813757 0.491924 0.012006 0.213717
C85   C     C_3   0.758899 0.561222 0.072470 -0.923547
H35   H     H_    0.777605 0.557330 0.142237 0.262891
H36   H     H_    0.718023 0.533539 0.068466 0.258176
H37   H     H_    0.746538 0.608293 0.059977 0.257445
O20   O     O_3   0.098753 0.445745 0.064940 -0.609434
C86   C     C_3   0.136263 0.423950 0.993753 0.049328
H38   H     H_    0.181746 0.441782 0.005500 0.165912
H39   H     H_    0.123230 0.437924 0.923629 0.126304
C87   C     C_3   0.138547 0.355991 0.997336 -0.340654
H40   H     H_    0.152663 0.341998 0.066506 0.230011
H41   H     H_    0.093400 0.337611 0.984649 0.213359
C88   C     C_3   0.182008 0.330549 0.926083 -0.905898
H42   H     H_    0.167673 0.342494 0.856092 0.270127
H43   H     H_    0.183181 0.281292 0.931302 0.258120
H44   H     H_    0.227608 0.348054 0.937813 0.252561
O21   O     O_3   0.220461 0.154329 0.397261 -0.608962
C89   C     C_3   0.162182 0.158812 0.361961 0.078227
H45   H     H_    0.164774 0.149242 0.287316 0.161335
H46   H     H_    0.141467 0.203804 0.369760 0.150710
C90   C     C_3   0.122140 0.112306 0.407166 -0.346258
H47   H     H_    0.141163 0.067264 0.394610 0.235641
H48   H     H_    0.120349 0.120400 0.482222 0.221753
C91   C     C_3   0.058997 0.114455 0.369562 -0.937247
H49   H     H_    0.038442 0.158578 0.384050 0.261179
H50   H     H_    0.031379 0.079664 0.402677 0.261460
H51   H     H_    0.059615 0.106067 0.294558 0.257760
O22   O     O_3   0.780992 0.849302 0.606139 -0.605122
C92   C     C_3   0.838945 0.870483 0.587834 0.044324
H52   H     H_    0.841523 0.888326 0.517084 0.160366
H53   H     H_    0.872542 0.834407 0.595953 0.123508
C93   C     C_3   0.853276 0.920676 0.655263 -0.316633
H54   H     H_    0.820931 0.957646 0.646629 0.229662
H55   H     H_    0.849049 0.903954 0.726371 0.218167
C94   C     C_3   0.916353 0.944237 0.640148 -0.949018
H56   H     H_    0.949525 0.908408 0.651471 0.255939
H57   H     H_    0.925069 0.981193 0.689144 0.264217
H58   H     H_    0.921656 0.961241 0.569433 0.259500
O23   O     O_3   0.786971 0.151111 0.588685 -0.609715
C95   C     C_3   0.847676 0.154152 0.613430 0.074583
H59   H     H_    0.850543 0.144024 0.687495 0.156664
H60   H     H_    0.868647 0.198772 0.603996 0.146038
C96   C     C_3   0.882983 0.107151 0.559382 -0.341983
H61   H     H_    0.863366 0.062565 0.572175 0.236215
H62   H     H_    0.879977 0.116353 0.485038 0.220400
C97   C     C_3   0.948415 0.106652 0.586812 -0.935068
H63   H     H_    0.969633 0.149990 0.570550 0.261186
H64   H     H_    0.972264 0.070866 0.548490 0.259351
H65   H     H_    0.952528 0.098009 0.661165 0.257630
O24   O     O_3   0.216128 0.848231 0.400544 -0.602355
C98   C     C_3   0.158963 0.869557 0.424533 0.046167
H66   H     H_    0.159389 0.888376 0.495279 0.160456
H67   H     H_    0.125150 0.833350 0.419962 0.121399
C99   C     C_3   0.141607 0.918662 0.358334 -0.311701
H68   H     H_    0.174795 0.955299 0.361978 0.228516
H69   H     H_    0.141743 0.900430 0.287370 0.215510
C100  C     C_3   0.079823 0.943501 0.380885 -0.957315
H70   H     H_    0.045889 0.907586 0.377666 0.255629
H71   H     H_    0.068127 0.978078 0.330377 0.265902
H72   H     H_    0.079205 0.963973 0.450360 0.260172
O25   O     O_3   0.718378 0.653018 0.403957 -0.610413
C101  C     C_3   0.659785 0.657650 0.369881 0.078797
H73   H     H_    0.661602 0.647536 0.295358 0.161586
H74   H     H_    0.639416 0.702817 0.377384 0.150468
C102  C     C_3   0.619858 0.611761 0.416777 -0.345797
H75   H     H_    0.638589 0.566529 0.404901 0.236171
H76   H     H_    0.618643 0.620563 0.491675 0.221044
C103  C     C_3   0.556455 0.613843 0.380177 -0.936273
H77   H     H_    0.536135 0.658126 0.394252 0.261148
H78   H     H_    0.528964 0.579369 0.414310 0.261437
H79   H     H_    0.556517 0.604917 0.305314 0.258128
O26   O     O_3   0.279812 0.348942 0.605642 -0.607036
C104  C     C_3   0.337922 0.370350 0.589210 0.043374
H80   H     H_    0.341275 0.388612 0.518783 0.161411
H81   H     H_    0.371481 0.334280 0.597769 0.123708
C105  C     C_3   0.351404 0.420198 0.657652 -0.316773
H82   H     H_    0.319010 0.457100 0.648794 0.229792
H83   H     H_    0.346571 0.403031 0.728414 0.215641
C106  C     C_3   0.414521 0.444083 0.644286 -0.949416
H84   H     H_    0.447714 0.408297 0.655772 0.255887
H85   H     H_    0.422651 0.480751 0.694041 0.264486
H86   H     H_    0.420411 0.461576 0.573959 0.259438
O27   O     O_3   0.285794 0.651986 0.591723 -0.609573
C107  C     C_3   0.346108 0.655378 0.618479 0.075026
H87   H     H_    0.347873 0.646284 0.692972 0.157032
H88   H     H_    0.367273 0.699832 0.608272 0.146123
C108  C     C_3   0.382146 0.607662 0.567169 -0.342067
H89   H     H_    0.362184 0.563292 0.580453 0.236664
H90   H     H_    0.380416 0.615988 0.492450 0.220440
C109  C     C_3   0.447074 0.607341 0.597217 -0.935590
H91   H     H_    0.468691 0.650424 0.580595 0.261491
H92   H     H_    0.471446 0.571058 0.560862 0.259399
H93   H     H_    0.449897 0.599564 0.671969 0.257753
O28   O     O_3   0.714896 0.348986 0.403552 -0.601670
C110  C     C_3   0.657737 0.369660 0.428969 0.045533
H94   H     H_    0.658597 0.388004 0.499984 0.159832
H95   H     H_    0.624181 0.333211 0.424495 0.121258
C111  C     C_3   0.639393 0.419053 0.363922 -0.310517
H96   H     H_    0.672269 0.455968 0.367552 0.229379
H97   H     H_    0.639131 0.401309 0.292680 0.215536
C112  C     C_3   0.577554 0.443163 0.388022 -0.957998
H98   H     H_    0.543924 0.406965 0.384752 0.255484
H99   H     H_    0.565149 0.478022 0.338379 0.266267
H100  H     H_    0.577281 0.463097 0.457859 0.259905
O29   O     O_3   0.729147 0.784238 0.326628 -0.606916
C113  C     C_3   0.772389 0.760516 0.265667 0.071621
H101  H     H_    0.778286 0.711750 0.275516 0.169236
H102  H     H_    0.815819 0.783417 0.275836 0.144883
C114  C     C_3   0.752427 0.770698 0.167525 -0.322181
H103  H     H_    0.708804 0.748469 0.156497 0.219511
H104  H     H_    0.746889 0.819193 0.156416 0.227953
C115  C     C_3   0.797858 0.746158 0.098457 -0.962705
H105  H     H_    0.840868 0.770203 0.104887 0.259711
H106  H     H_    0.780995 0.752090 0.027978 0.262954
H107  H     H_    0.805401 0.697980 0.109914 0.253994
O30   O     O_3   0.266346 0.214079 0.676005 -0.593191
C116  C     C_3   0.319864 0.235157 0.714326 0.076865
H108  H     H_    0.314636 0.282738 0.734171 0.181145
H109  H     H_    0.358269 0.230050 0.665947 0.124558
C117  C     C_3   0.333198 0.199829 0.800569 -0.325785
H110  H     H_    0.295096 0.203970 0.849432 0.219407
H111  H     H_    0.338990 0.152025 0.782256 0.243714
C118  C     C_3   0.389623 0.222410 0.846889 -0.932207
H112  H     H_    0.428580 0.217642 0.799908 0.261292
H113  H     H_    0.398131 0.196137 0.909317 0.258056
H114  H     H_    0.384396 0.269929 0.867085 0.253047
O31   O     O_3   0.278325 0.783663 0.672910 -0.609675
C119  C     C_3   0.241883 0.755922 0.739540 0.086175
H115  H     H_    0.271602 0.735899 0.791228 0.154586
H116  H     H_    0.213548 0.719002 0.712568 0.154759
C120  C     C_3   0.202413 0.802665 0.786829 -0.340677
H117  H     H_    0.230946 0.837618 0.818124 0.234072
H118  H     H_    0.173377 0.824047 0.735529 0.214417
C121  C     C_3   0.163388 0.774957 0.861157 -0.929058
H119  H     H_    0.133516 0.740757 0.831006 0.257427
H120  H     H_    0.135528 0.810022 0.894320 0.259159
H121  H     H_    0.191515 0.754064 0.914102 0.258522
O32   O     O_3   0.724747 0.216720 0.322247 -0.593037
C122  C     C_3   0.667315 0.234914 0.295563 0.078205
H122  H     H_    0.669159 0.281863 0.272440 0.176049
H123  H     H_    0.633733 0.231093 0.351853 0.121318
C123  C     C_3   0.647110 0.195595 0.215858 -0.313888
H124  H     H_    0.679200 0.199851 0.157865 0.224521
H125  H     H_    0.646440 0.148338 0.237732 0.235490
C124  C     C_3   0.585030 0.212915 0.183696 -0.942842
H126  H     H_    0.551923 0.207505 0.240007 0.256852
H127  H     H_    0.571966 0.183713 0.125570 0.258962
H128  H     H_    0.584728 0.259857 0.160534 0.255302
O33   O     O_3   0.230600 0.286715 0.324022 -0.606919
C125  C     C_3   0.274921 0.265458 0.262785 0.071058
H129  H     H_    0.281310 0.216500 0.269401 0.164961
H130  H     H_    0.317862 0.288611 0.275949 0.145750
C126  C     C_3   0.255997 0.278479 0.164826 -0.321230
H131  H     H_    0.213879 0.254409 0.149884 0.216111
H132  H     H_    0.247832 0.327010 0.157735 0.233352
C127  C     C_3   0.303757 0.259290 0.095452 -0.955414
H133  H     H_    0.345802 0.284075 0.107560 0.259030
H134  H     H_    0.288408 0.268810 0.025152 0.264639
H135  H     H_    0.312557 0.210860 0.100472 0.256043
O34   O     O_3   0.768439 0.715588 0.679551 -0.593462
C128  C     C_3   0.823451 0.735585 0.714230 0.067707
H136  H     H_    0.819205 0.782883 0.736265 0.179879
H137  H     H_    0.860229 0.731248 0.662783 0.124375
C129  C     C_3   0.839695 0.698514 0.797506 -0.312599
H138  H     H_    0.803816 0.702454 0.850218 0.219952
H139  H     H_    0.843801 0.650936 0.776806 0.247095
C130  C     C_3   0.898476 0.719239 0.838721 -0.918506
H140  H     H_    0.935146 0.715086 0.787444 0.258424
H141  H     H_    0.909528 0.691354 0.898452 0.268779
H142  H     H_    0.894869 0.766333 0.861948 0.248707
O35   O     O_3   0.780208 0.282017 0.672794 -0.610770
C131  C     C_3   0.744501 0.253662 0.739725 0.086390
H143  H     H_    0.774792 0.233096 0.790114 0.154196
H144  H     H_    0.715807 0.217044 0.712685 0.154775
C132  C     C_3   0.705632 0.299998 0.789122 -0.342063
H145  H     H_    0.734563 0.334655 0.820325 0.231893
H146  H     H_    0.675981 0.321857 0.739137 0.214356
C133  C     C_3   0.667503 0.271638 0.863939 -0.930510
H147  H     H_    0.637255 0.237716 0.833940 0.256931
H148  H     H_    0.640059 0.306417 0.898625 0.259052
H149  H     H_    0.696270 0.250260 0.915603 0.258157
O36   O     O_3   0.226466 0.715185 0.322375 -0.592824
C134  C     C_3   0.169510 0.733558 0.293751 0.078022
H150  H     H_    0.171873 0.780420 0.270331 0.176754
H151  H     H_    0.135199 0.730025 0.349056 0.121583
C135  C     C_3   0.150190 0.694117 0.213663 -0.313938
H152  H     H_    0.183167 0.697924 0.156767 0.224904
H153  H     H_    0.148803 0.646947 0.235891 0.235266
C136  C     C_3   0.088777 0.711831 0.179165 -0.943276
H154  H     H_    0.054781 0.706815 0.234311 0.256650
H155  H     H_    0.076391 0.682593 0.120728 0.258990
H156  H     H_    0.089203 0.758712 0.155712 0.255868

loop_
_geom_bond_atom_site_label_1
_geom_bond_atom_site_label_2
_ccdc_geom_bond_type
C133  H148  S    
C88   H42   S    
C126  H132  S    
Cu1   O1    S    
C106  H84   S    
C106  H86   S    
C5    O5    A    
C136  H154  S    
Cu4   O7    S    
O32   C122  S    
C133  H149  S    
C70   O17   S    
C113  H102  S    
C84   H33   S    
C115  H107  S    
C28   H14   S    
C31   C59   S    
C93   C94   S    
Cu4   O16   S    
C119  H115  S    
C70   C74   S    
C111  H97   S    
C23   H9    S    
O36   C134  S    
C15   C51   T    
C129  C130  S    
C98   C99   S    
C113  C114  S    
C112  H98   S    
C109  H92   S    
C27   C75   S    
C107  H87   S    
Cu3   O14   S    
C89   H46   S    
C111  C112  S    
C135  H152  S    
C59   O36   S    
C83   H31   S    
C19   N3    T    
C101  H73   S    
C24   H10   S    
C131  H143  S    
C109  H93   S    
C30   H2    S    
O23   C95   S    
C89   C90   S    
O27   C107  S    
C6    O6    A    
C87   H40   S    
C79   H23   S    
C91   H49   S    
C34   C54   S    
C88   H44   S    
C27   H13   S    
C28   C71   S    
C1    O1    A    
C127  H133  S    
C114  H104  S    
C85   H35   S    
C136  H156  S    
C3    O3    A    
C82   H29   S    
C123  C124  S    
C5    O13   A    
C44   O28   S    
O19   C83   S    
C1    C48   S    
C2    C47   S    
C3    C46   S    
C25   C76   S    
C123  H125  S    
C44   C55   S    
C14   C50   T    
C119  C120  S    
C39   C60   S    
C4    O4    A    
C54   O29   S    
Cu3   O8    S    
C108  C109  S    
C86   H39   S    
C77   H18   S    
C78   H20   S    
C8    O16   A    
C98   H66   S    
C96   H61   S    
C103  H77   S    
C81   H27   S    
C30   C61   S    
C99   H69   S    
C107  C108  S    
O31   C119  S    
C38   C62   S    
C132  H146  S    
C112  H99   S    
C97   H63   S    
Cu3   O15   S    
C83   C84   S    
O18   C80   S    
C102  C103  S    
C36   H8    S    
O29   C113  S    
C31   C43   S    
C131  C132  S    
C9    C61   S    
C11   C63   S    
C42   C53   S    
C114  H103  S    
C12   C64   S    
C118  H114  S    
C71   O20   S    
C2    O2    A    
C72   O19   S    
Cu4   O6    S    
C95   H59   S    
C33   H5    S    
C6    O14   A    
C59   C67   S    
C35   H7    S    
C91   H51   S    
C69   O18   S    
C117  H110  S    
C128  H137  S    
C115  H106  S    
C56   C64   S    
C25   C71   S    
C57   O34   S    
C127  H135  S    
C93   H55   S    
C90   H48   S    
C53   O30   S    
C122  C123  S    
C17   C73   S    
C100  H71   S    
C23   C70   S    
C105  H82   S    
C129  H139  S    
C33   C66   S    
C102  H75   S    
C4    C45   S    
C92   H53   S    
C26   H16   S    
C120  C121  S    
C134  H151  S    
C104  H80   S    
C121  H121  S    
C132  H145  S    
C21   C69   S    
O33   C125  S    
C103  H79   S    
C15   C67   S    
Cu2   N1    S    
C124  H126  S    
C110  H95   S    
C130  H141  S    
Cu4   N3    S    
C7    O7    A    
C112  H100  S    
C79   H22   S    
C80   H24   S    
O34   C128  S    
C29   C41   S    
C7    C50   S    
O30   C116  S    
C114  C115  S    
C118  H112  S    
C106  H85   S    
C38   O22   S    
C95   C96   S    
C94   H58   S    
O17   C77   S    
C117  C118  S    
C126  C127  S    
O24   C98   S    
Cu2   O9    S    
Cu4   O13   S    
C119  H116  S    
C122  H122  S    
C22   H12   S    
C121  H119  S    
C17   N1    T    
C22   C70   S    
C105  C106  S    
C98   H67   S    
C84   C85   S    
C9    C45   T    
Cu2   O2    S    
C26   C72   S    
C11   C47   T    
C110  H94   S    
C12   C48   T    
C107  H88   S    
O21   C89   S    
C82   H28   S    
Cu1   Cu2   S    
O22   C92   S    
C104  C105  S    
C135  H153  S    
C83   H32   S    
C125  H129  S    
C101  H74   S    
C124  H128  S    
C131  H144  S    
C126  H131  S    
Cu1   O11   S    
C96   C97   S    
C97   H65   S    
C1    O9    A    
C3    O11   A    
C135  C136  S    
C86   H38   S    
C69   C73   S    
C87   H41   S    
C80   C81   S    
C91   H50   S    
C133  H147  S    
O35   C131  S    
C88   H43   S    
C34   C38   S    
C10   C62   S    
C127  H134  S    
C85   H36   S    
C136  H155  S    
C32   H4    S    
Cu3   N4    S    
C87   C88   S    
C58   O33   S    
C13   C65   S    
C54   C62   S    
C113  H101  S    
O25   C101  S    
C33   C37   S    
C35   C39   S    
C29   H1    S    
C36   C56   S    
C116  C117  S    
C85   H37   S    
C20   N4    T    
C111  H96   S    
C108  H90   S    
C78   H19   S    
C125  C126  S    
C29   C57   S    
C21   C23   S    
C22   C24   S    
C104  H81   S    
C109  H91   S    
C32   C60   S    
C28   C76   S    
C37   O21   S    
C89   H45   S    
C21   H11   S    
O28   C110  S    
C2    O10   A    
C97   H64   S    
C16   C52   T    
C57   C65   S    
C134  H150  S    
C118  H113  S    
C116  H108  S    
C95   H60   S    
C42   O26   S    
C94   H56   S    
C60   C68   S    
C117  H111  S    
C128  H136  S    
C30   C42   S    
Cu1   O4    S    
Cu2   O12   S    
C56   O31   S    
C8    C49   S    
C39   O23   S    
C27   C72   S    
C82   H30   S    
C125  H130  S    
C130  H140  S    
C90   H47   S    
C122  H123  S    
C100  H70   S    
C72   C76   S    
C105  H83   S    
C36   C67   S    
C40   O24   S    
C92   H52   S    
C20   C76   S    
C120  H118  S    
C123  H124  S    
C38   C57   S    
C31   H3    S    
Cu3   O5    S    
C34   H6    S    
C86   C87   S    
C7    O15   A    
C77   H17   S    
C78   C79   S    
C124  H127  S    
C58   C66   S    
C81   H26   S    
C10   C46   T    
C55   O32   S    
C5    C52   S    
C99   H68   S    
C16   C68   S    
C6    C51   S    
C37   C58   S    
C4    O12   A    
C132  C133  S    
C18   C74   S    
C40   C59   S    
C53   C61   S    
C23   C73   S    
C8    O8    A    
C34   C65   S    
C43   O27   S    
C24   C69   S    
C60   O35   S    
C33   C53   S    
C35   C55   S    
C36   C40   S    
O26   C104  S    
C116  H109  S    
C41   C65   S    
C21   C74   S    
C55   C63   S    
C77   C78   S    
C128  C129  S    
C115  H105  S    
C99   C100  S    
C14   C66   S    
Cu1   N2    S    
C13   C49   T    
C43   C67   S    
C93   H54   S    
C120  H117  S    
C90   C91   S    
C100  H72   S    
C121  H120  S    
C44   C68   S    
C129  H138  S    
C92   C93   S    
C84   H34   S    
C29   C62   S    
Cu2   O3    S    
O20   C86   S    
C31   C64   S    
C32   C63   S    
C103  H78   S    
C134  C135  S    
C37   C61   S    
C25   H15   S    
C25   C27   S    
C39   C63   S    
C26   C28   S    
C40   C64   S    
C26   C75   S    
C19   C75   S    
C71   C75   S    
C101  C102  S    
C24   C74   S    
C35   C68   S    
C81   C82   S    
C30   C58   S    
C102  H76   S    
C110  C111  S    
C41   O25   S    
Cu1   O10   S    
C41   C54   S    
C96   H62   S    
Cu3   Cu4   S    
C43   C56   S    
C32   C44   S    
C130  H142  S    
C108  H89   S    
C42   C66   S    
C18   N2    T    
C22   C73   S    
C94   H57   S    
C79   H21   S    
C80   H25   S    
