data_mof_unit_59249.cif
_audit_creation_date              2012-12-10T17:59:41-0500
_audit_creation_method            fapswitch 2.2
_symmetry_space_group_name_H-M    P1
_symmetry_Int_Tables_number       1
_space_group_crystal_system       triclinic
_cell_length_a                    18.342214
_cell_length_b                    18.314568
_cell_length_c                    34.342888
_cell_angle_alpha                 89.963562
_cell_angle_beta                  89.876488
_cell_angle_gamma                 89.966054
_cell_volume                      11536.765787

loop_
_atom_site_label
_atom_site_type_symbol
_atom_type_description
_atom_site_fract_x
_atom_site_fract_y
_atom_site_fract_z
_atom_type_partial_charge
C1    C     C_R   0.013393 0.570437 0.417677 0.440772
C2    C     C_R   0.544125 0.950280 0.081176 0.442790
C3    C     C_R   0.433615 0.976381 0.540701 -0.122607
C4    C     C_R   0.005466 0.573874 0.458688 -0.088197
C5    C     C_R   0.009446 0.440104 0.540411 -0.134495
C6    C     C_R   0.434247 0.994688 0.459009 -0.110798
C7    C     C_R   0.566224 0.994646 0.541031 -0.109667
C8    C     C_R   0.520576 0.936461 0.958706 -0.115773
C9    C     C_R   0.464048 0.057471 0.040505 -0.119572
C10   C     C_R   0.066637 0.509151 0.959136 -0.103830
C11   C     C_R   0.941299 0.458910 0.040451 -0.112324
C12   C     C_R   0.478541 0.064361 0.958628 -0.112732
C13   C     C_R   0.935089 0.486358 0.917995 0.448281
C14   C     C_R   0.536621 0.944226 0.040431 -0.119408
C15   C     C_R   0.936722 0.474444 0.958539 -0.097748
C16   C     C_R   0.057116 0.525764 0.040383 -0.100182
C17   C     C_R   0.196200 0.696327 0.249975 0.013787
C18   C     C_R   0.803867 0.303571 0.749918 0.008223
C19   C     C_R   0.303682 0.196177 0.250071 0.014198
C20   C     C_R   0.696181 0.803649 0.750037 0.008573
C21   C     C_R   0.803550 0.303901 0.249775 0.014238
C22   C     C_R   0.196437 0.696074 0.750222 0.010851
C23   C     C_R   0.696030 0.803456 0.249684 0.015848
C24   C     C_R   0.046410 0.541553 0.079954 0.452056
C25   C     C_R   0.303866 0.196401 0.750139 0.011000
C26   C     C_R   0.196455 0.303918 0.750210 0.010515
C27   C     C_R   0.803635 0.696139 0.249799 0.011978
C28   C     C_R   0.304002 0.803418 0.750336 0.011586
C29   C     C_R   0.696175 0.196378 0.249833 0.010174
C30   C     C_R   0.803670 0.696180 0.750117 0.013293
C31   C     C_R   0.196161 0.303612 0.250029 0.009512
C32   C     C_R   0.696427 0.196093 0.749806 0.011696
C33   C     C_R   0.303764 0.803682 0.250004 0.010031
C34   C     C_R   0.997641 0.507688 0.479506 -0.166504
C35   C     C_R   0.513889 0.934688 0.917841 0.438601
C36   C     C_R   0.001430 0.507540 0.520489 -0.165648
C37   C     C_R   0.500589 0.987131 0.479511 -0.166864
C38   C     C_R   0.499985 0.986990 0.520498 -0.167320
C39   C     C_R   0.499768 0.000554 0.979043 -0.164194
C40   C     C_R   0.500211 0.000803 0.020036 -0.166762
C41   C     C_R   0.001277 0.491261 0.979132 -0.167250
C42   C     C_R   0.000109 0.491319 0.019984 -0.171770
C43   C     C_3   0.881623 0.299791 0.478262 0.108924
C44   C     C_3   0.878903 0.246961 0.512836 -0.308599
C45   C     C_3   0.800431 0.228351 0.523651 -1.037534
C46   C     C_R   0.456232 0.050973 0.081238 0.447115
C47   C     C_3   0.943286 0.750869 0.536518 0.143644
C48   C     C_3   0.961437 0.829311 0.548403 -0.377354
C49   C     C_3   0.973572 0.836613 0.592181 -0.773453
C50   C     C_3   0.692598 0.858942 0.471697 0.149171
C51   C     C_3   0.750235 0.835081 0.501230 -0.348813
C52   C     C_3   0.750796 0.751954 0.505206 -1.008875
C53   C     C_3   0.310603 0.857056 0.528155 0.146615
C54   C     C_3   0.256005 0.832191 0.497285 -0.350238
C55   C     C_3   0.258366 0.749194 0.492786 -1.010664
C56   C     C_3   0.066855 0.748507 0.462642 0.147573
C57   C     C_R   0.067518 0.505504 0.918101 0.437688
C58   C     C_3   0.052101 0.826148 0.448125 -0.386294
C59   C     C_3   0.039935 0.829055 0.404195 -0.759325
C60   C     C_3   0.104488 0.294947 0.521694 0.108070
C61   C     C_3   0.106094 0.241001 0.487649 -0.310018
C62   C     C_3   0.184282 0.222655 0.476057 -1.036839
C63   C     C_3   0.254858 0.039966 0.471979 0.162366
C64   C     C_3   0.175984 0.019536 0.462723 -0.366091
C65   C     C_3   0.163498 0.010036 0.419080 -0.778801
C66   C     C_3   0.745058 0.040062 0.529077 0.160366
C67   C     C_3   0.823659 0.021611 0.540086 -0.365719
C68   C     C_R   0.945630 0.454633 0.081574 0.446396
C69   C     C_3   0.833183 0.012515 0.583974 -0.769948
C70   C     C_3   0.503085 0.758979 0.970402 0.154826
C71   C     C_3   0.533795 0.691843 0.991283 -0.329382
C72   C     C_3   0.478326 0.629847 0.992363 -1.012958
C73   C     C_3   0.328727 0.181155 0.027336 0.107811
C74   C     C_3   0.291434 0.242472 0.050236 -0.329705
C75   C     C_3   0.210031 0.246284 0.041296 -1.003442
C76   C     C_3   0.245280 0.480200 0.974796 0.141267
C77   C     C_3   0.323843 0.503980 0.967049 -0.354333
C78   C     C_3   0.341230 0.507101 0.923605 -0.810247
C79   C     C_R   0.998088 0.504426 0.398107 -0.306040
C80   C     C_3   0.816285 0.324339 0.026359 0.101397
C81   C     C_3   0.747045 0.292294 0.044400 -0.316090
C82   C     C_3   0.735167 0.213370 0.031641 -0.998864
C83   C     C_3   0.492052 0.243681 0.970125 0.158881
C84   C     C_3   0.456502 0.313902 0.985068 -0.347280
C85   C     C_3   0.511220 0.376599 0.986185 -0.991927
C86   C     C_3   0.672225 0.820801 0.025735 0.100696
C87   C     C_3   0.708579 0.756109 0.046158 -0.328350
C88   C     C_3   0.788985 0.750094 0.035164 -0.997220
C89   C     C_3   0.755508 0.479085 0.969337 0.141538
C90   C     C_R   0.001912 0.504094 0.601905 -0.304982
C91   C     C_3   0.689149 0.463245 0.943904 -0.323695
C92   C     C_3   0.629939 0.520771 0.949627 -1.004487
C93   C     C_3   0.206372 0.636825 0.032768 0.152099
C94   C     C_3   0.277102 0.653713 0.054478 -0.389589
C95   C     C_3   0.264972 0.659410 0.098394 -0.723170
C96   C     C_3   0.106012 0.632616 0.383458 0.087782
C97   C     C_3   0.162214 0.590757 0.408658 -0.417429
C98   C     C_3   0.239940 0.605731 0.394925 -0.937460
C99   C     C_3   0.093953 0.363360 0.617998 0.138950
C100  C     C_3   0.158530 0.408549 0.601487 -0.417534
C101  C     C_R   0.502341 0.997208 0.398281 -0.307578
C102  C     C_3   0.230639 0.384076 0.619242 -0.934615
C103  C     C_3   0.365162 0.099298 0.389190 0.100569
C104  C     C_3   0.399334 0.154840 0.417806 -0.420161
C105  C     C_3   0.375689 0.232622 0.408064 -0.940036
C106  C     C_3   0.633568 0.100606 0.610799 0.097821
C107  C     C_3   0.598076 0.155696 0.582335 -0.420536
C108  C     C_3   0.619257 0.233924 0.592557 -0.937030
C109  C     C_3   0.889653 0.373350 0.384292 0.141797
C110  C     C_3   0.832002 0.426269 0.401647 -0.418164
C111  C     C_3   0.756106 0.409792 0.385919 -0.942948
C112  C     C_R   0.016069 0.439514 0.581151 0.423975
C113  C     C_R   0.497941 0.997110 0.601715 -0.308722
C114  C     C_3   0.907282 0.640364 0.618613 0.093068
C115  C     C_3   0.846013 0.602508 0.595044 -0.418271
C116  C     C_3   0.770804 0.625087 0.609766 -0.931471
C117  C     C_3   0.628816 0.889749 0.378451 0.135950
C118  C     C_3   0.574299 0.830773 0.393270 -0.410247
C119  C     C_3   0.582068 0.759970 0.370360 -0.933857
C120  C     C_3   0.371824 0.889075 0.621721 0.138031
C121  C     C_3   0.427023 0.830164 0.607517 -0.409163
C122  C     C_3   0.420111 0.760140 0.631222 -0.932812
C123  C     C_3   0.535723 0.158425 0.878533 0.102014
C124  C     C_R   0.499674 0.000177 0.897761 -0.305690
C125  C     C_3   0.608973 0.147989 0.900216 -0.432492
C126  C     C_3   0.668648 0.195773 0.882595 -0.918076
C127  C     C_3   0.660117 0.928256 0.108710 0.154504
C128  C     C_3   0.684322 0.000073 0.088528 -0.437760
C129  C     C_3   0.763510 0.017887 0.098161 -0.951317
C130  C     C_3   0.845913 0.548250 0.881229 0.095917
C131  C     C_3   0.864864 0.618720 0.903968 -0.421113
C132  C     C_3   0.822836 0.684181 0.888098 -0.910787
C133  C     C_3   0.045492 0.663716 0.097912 0.109361
C134  C     C_3   0.008359 0.685990 0.059220 -0.431187
C135  C     C_R   0.500189 0.000589 0.101506 -0.326451
C136  C     C_3   0.982127 0.765006 0.060652 -0.961698
C137  C     C_3   0.467576 0.841854 0.877169 0.106354
C138  C     C_3   0.392279 0.851520 0.896952 -0.433541
C139  C     C_3   0.334109 0.806129 0.876478 -0.910534
C140  C     C_3   0.338887 0.068493 0.108225 0.146843
C141  C     C_3   0.317242 0.997102 0.086909 -0.437993
C142  C     C_3   0.238482 0.976216 0.095956 -0.955166
C143  C     C_3   0.155990 0.451870 0.877225 0.120880
C144  C     C_3   0.135324 0.376754 0.894922 -0.425173
C145  C     C_3   0.179740 0.315381 0.876446 -0.912814
C146  C     C_R   0.000964 0.498704 0.897961 -0.316344
C147  C     C_3   0.918895 0.341350 0.111293 0.156935
C148  C     C_3   0.989853 0.313009 0.091776 -0.437231
C149  C     C_3   0.004785 0.233830 0.103076 -0.952782
C150  C     C_R   0.996091 0.499593 0.101324 -0.330405
C151  C     C_R   0.980704 0.375616 0.481093 0.403307
C152  C     C_R   0.999501 0.641399 0.520532 0.351911
C153  C     C_R   0.631761 0.966880 0.481196 0.387845
C154  C     C_R   0.368989 0.966213 0.518789 0.390448
C155  C     C_R   0.007624 0.641113 0.479277 0.350313
C156  C     C_R   0.436572 0.008173 0.418632 0.440488
C157  C     C_R   0.008456 0.374600 0.518827 0.404398
C158  C     C_R   0.367567 0.986607 0.479297 0.363398
C159  C     C_R   0.632953 0.986519 0.520807 0.364163
C160  C     C_R   0.546625 0.875563 0.979953 0.373959
C161  C     C_R   0.436182 0.118223 0.019729 0.372043
C162  C     C_R   0.129661 0.527928 0.980929 0.361590
C163  C     C_R   0.881171 0.431164 0.019272 0.356075
C164  C     C_R   0.452611 0.125521 0.979787 0.367409
C165  C     C_R   0.564389 0.883547 0.019596 0.375132
C166  C     C_R   0.875110 0.447868 0.979138 0.353925
C167  C     C_R   0.563708 0.008371 0.581379 0.441588
C168  C     C_R   0.122154 0.545354 0.020911 0.341189
C169  C     C_R   0.501473 0.999645 0.355871 0.909372
C170  C     C_R   0.498622 0.999656 0.644125 0.911743
C171  C     C_R   0.999715 0.501642 0.355796 0.914042
C172  C     C_R   0.000297 0.501447 0.644208 0.905748
C173  C     C_R   0.000498 0.499856 0.855758 0.884297
C174  C     C_R   0.998527 0.500039 0.143978 0.917243
C175  C     C_R   0.499922 0.000241 0.855679 0.876492
C176  C     C_R   0.500048 0.000222 0.144060 0.927570
C177  C     C_R   0.359868 0.140112 0.250034 0.787866
C178  C     C_R   0.977712 0.441468 0.418819 0.426763
C179  C     C_R   0.640093 0.859837 0.749997 0.792382
C180  C     C_R   0.859789 0.359905 0.249944 0.785278
C181  C     C_R   0.140185 0.640108 0.750040 0.790775
C182  C     C_R   0.640067 0.859754 0.249919 0.783619
C183  C     C_R   0.359884 0.140184 0.750028 0.789887
C184  C     C_R   0.140094 0.640182 0.249988 0.783825
C185  C     C_R   0.859899 0.359814 0.750005 0.792540
C186  C     C_R   0.359948 0.859735 0.750101 0.766278
C187  C     C_R   0.640140 0.140168 0.249966 0.793461
C188  C     C_R   0.859859 0.640108 0.750047 0.767423
C189  C     C_R   0.992010 0.571292 0.582382 0.441086
C190  C     C_R   0.140091 0.359828 0.249996 0.793301
C191  C     C_R   0.640160 0.140113 0.749938 0.771924
C192  C     C_R   0.359889 0.859826 0.250015 0.795011
C193  C     C_R   0.140222 0.359921 0.750069 0.765381
C194  C     C_R   0.859848 0.640138 0.249968 0.792931
C195  C     C_R   0.246976 0.806735 0.222778 -0.193984
C196  C     C_R   0.755991 0.190287 0.775137 -0.204662
C197  C     C_R   0.193575 0.246841 0.222721 -0.191422
C198  C     C_R   0.811460 0.758160 0.773639 -0.204318
C199  C     C_R   0.756688 0.189884 0.225058 -0.189385
C200  C     C_R   0.566117 0.974611 0.418209 0.424690
C201  C     C_R   0.239540 0.813920 0.771596 -0.203546
C202  C     C_R   0.813385 0.759936 0.227824 -0.192123
C203  C     C_R   0.184694 0.238121 0.770096 -0.207569
C204  C     C_R   0.238262 0.184709 0.770184 -0.176743
C205  C     C_R   0.759856 0.813398 0.227803 -0.195318
C206  C     C_R   0.186077 0.760435 0.771610 -0.179277
C207  C     C_R   0.810135 0.243381 0.225038 -0.194557
C208  C     C_R   0.757921 0.811574 0.773652 -0.179508
C209  C     C_R   0.247104 0.193399 0.222727 -0.189659
C210  C     C_R   0.809360 0.243819 0.775248 -0.180108
C211  C     C_R   0.434461 0.973828 0.581773 0.423798
C212  C     C_R   0.193468 0.753307 0.222757 -0.191174
C213  C     C_R   0.744503 0.309179 0.724426 -0.188204
C214  C     C_R   0.252990 0.693271 0.277183 -0.200679
C215  C     C_R   0.688386 0.741656 0.726521 -0.190161
C216  C     C_R   0.306190 0.252854 0.277429 -0.199589
C217  C     C_R   0.261030 0.685429 0.729131 -0.189579
C218  C     C_R   0.742812 0.310582 0.274326 -0.197525
C219  C     C_R   0.315664 0.262227 0.730294 -0.187644
C220  C     C_R   0.686004 0.739289 0.271259 -0.199896
C221  C     C_R   0.739653 0.686043 0.271480 -0.186000
C222  C     C_R   0.485330 0.065716 0.917750 0.442334
C223  C     C_R   0.262347 0.315881 0.730510 -0.199026
C224  C     C_R   0.689474 0.257049 0.274427 -0.185176
C225  C     C_R   0.314658 0.738684 0.729356 -0.200585
C226  C     C_R   0.252716 0.306345 0.277388 -0.184805
C227  C     C_R   0.741784 0.688110 0.726643 -0.198142
C228  C     C_R   0.306515 0.746665 0.277196 -0.186657
C229  C     C_R   0.691052 0.255703 0.724368 -0.199570
C230  C     C_R   0.984515 0.441130 0.459560 -0.136850
C231  C     C_R   0.998618 0.574151 0.541282 -0.089149
C232  C     C_R   0.567042 0.976985 0.459292 -0.121635
H1    H     H_    0.243937 0.850188 0.201426 0.157899
H2    H     H_    0.768614 0.862487 0.210815 0.151973
H3    H     H_    0.201272 0.256858 0.009792 0.266033
H4    H     H_    0.184749 0.291384 0.058209 0.272901
H5    H     H_    0.182972 0.194251 0.049533 0.264104
H6    H     H_    0.234403 0.429114 0.958617 0.129792
H7    H     H_    0.240966 0.467068 0.006357 0.123070
H8    H     H_    0.333146 0.558529 0.980196 0.222110
H9    H     H_    0.361486 0.464569 0.981150 0.176243
H10   H     H_    0.334271 0.452309 0.910283 0.235052
H11   H     H_    0.398693 0.524376 0.919364 0.228813
H12   H     H_    0.305101 0.546997 0.908755 0.292639
H13   H     H_    0.136557 0.769725 0.788122 0.162164
H14   H     H_    0.864178 0.291730 0.035804 0.123762
H15   H     H_    0.811681 0.318938 0.994276 0.181117
H16   H     H_    0.750890 0.294348 0.076662 0.228416
H17   H     H_    0.699275 0.325547 0.035302 0.222920
H18   H     H_    0.727417 0.210589 0.999598 0.267973
H19   H     H_    0.685675 0.191144 0.046071 0.272119
H20   H     H_    0.782730 0.179240 0.039928 0.263702
H21   H     H_    0.521378 0.256974 0.942779 0.160867
H22   H     H_    0.533787 0.225143 0.991679 0.105497
H23   H     H_    0.410270 0.329337 0.965854 0.226807
H24   H     H_    0.856492 0.237264 0.205711 0.150871
H25   H     H_    0.435304 0.304947 0.014920 0.246982
H26   H     H_    0.559126 0.361675 0.004272 0.270129
H27   H     H_    0.485252 0.425871 0.998924 0.268031
H28   H     H_    0.529683 0.389779 0.956199 0.272741
H29   H     H_    0.703044 0.871600 0.032248 0.124941
H30   H     H_    0.675623 0.810856 0.993887 0.180371
H31   H     H_    0.703791 0.762354 0.078227 0.233521
H32   H     H_    0.680472 0.704776 0.037751 0.216105
H33   H     H_    0.795046 0.741633 0.003288 0.269298
H34   H     H_    0.813855 0.702924 0.050543 0.275952
H35   H     H_    0.765050 0.859059 0.792036 0.165018
H36   H     H_    0.818356 0.800560 0.043772 0.267247
H37   H     H_    0.772835 0.536520 0.964613 0.127377
H38   H     H_    0.738967 0.472493 0.000286 0.166728
H39   H     H_    0.705531 0.462473 0.912759 0.241623
H40   H     H_    0.667067 0.408517 0.951435 0.215902
H41   H     H_    0.612214 0.522050 0.980555 0.278306
H42   H     H_    0.582184 0.507629 0.931112 0.272064
H43   H     H_    0.650771 0.575426 0.941081 0.268224
H44   H     H_    0.165252 0.678353 0.041002 0.135807
H45   H     H_    0.217685 0.642631 0.001169 0.134000
H46   H     H_    0.244272 0.150177 0.201261 0.150458
H47   H     H_    0.317787 0.610155 0.048455 0.216769
H48   H     H_    0.299609 0.706330 0.043679 0.165393
H49   H     H_    0.225683 0.703850 0.105099 0.231489
H50   H     H_    0.317491 0.671967 0.112938 0.223186
H51   H     H_    0.243831 0.607047 0.110193 0.297552
H52   H     H_    0.123709 0.690352 0.381770 0.152966
H53   H     H_    0.108683 0.614261 0.352868 0.178221
H54   H     H_    0.157353 0.607209 0.439659 0.210648
H55   H     H_    0.152262 0.531042 0.406628 0.228896
H56   H     H_    0.278956 0.575199 0.413501 0.267306
H57   H     H_    0.854784 0.238358 0.795141 0.164776
H58   H     H_    0.246947 0.587587 0.364297 0.266749
H59   H     H_    0.252493 0.664925 0.397072 0.259348
H60   H     H_    0.107781 0.304660 0.614649 0.159693
H61   H     H_    0.089330 0.371899 0.649865 0.159308
H62   H     H_    0.162060 0.402518 0.569523 0.206068
H63   H     H_    0.151190 0.467422 0.608004 0.238670
H64   H     H_    0.241071 0.325638 0.612600 0.258022
H65   H     H_    0.275875 0.417186 0.606958 0.263213
H66   H     H_    0.229327 0.391946 0.651251 0.275319
H67   H     H_    0.305750 0.110591 0.387680 0.160080
H68   H     H_    0.150227 0.756541 0.201389 0.154959
H69   H     H_    0.385663 0.109449 0.359349 0.171042
H70   H     H_    0.382777 0.142370 0.448179 0.213747
H71   H     H_    0.459778 0.152050 0.415941 0.222621
H72   H     H_    0.401863 0.271407 0.428557 0.266784
H73   H     H_    0.392384 0.246965 0.377900 0.264388
H74   H     H_    0.315580 0.238090 0.410836 0.263477
H75   H     H_    0.692739 0.113015 0.612140 0.158473
H76   H     H_    0.613335 0.110249 0.640725 0.174648
H77   H     H_    0.615389 0.144246 0.551967 0.213759
H78   H     H_    0.537717 0.151230 0.583968 0.223394
H79   H     H_    0.739266 0.354798 0.704538 0.162689
H80   H     H_    0.592567 0.272329 0.572009 0.266226
H81   H     H_    0.601336 0.247303 0.622643 0.264890
H82   H     H_    0.679244 0.241081 0.590313 0.264153
H83   H     H_    0.870250 0.316693 0.389161 0.154566
H84   H     H_    0.891410 0.379451 0.352190 0.168865
H85   H     H_    0.830582 0.421666 0.433756 0.206988
H86   H     H_    0.845441 0.483659 0.394125 0.237858
H87   H     H_    0.715837 0.447232 0.399543 0.265855
H88   H     H_    0.754989 0.418252 0.353937 0.269726
H89   H     H_    0.740308 0.352646 0.392742 0.256942
H90   H     H_    0.256058 0.649792 0.298491 0.155884
H91   H     H_    0.894075 0.699316 0.620472 0.157124
H92   H     H_    0.906286 0.622168 0.649304 0.169418
H93   H     H_    0.850273 0.616693 0.563702 0.209187
H94   H     H_    0.850846 0.542270 0.597879 0.230802
H95   H     H_    0.728132 0.597043 0.592452 0.265258
H96   H     H_    0.764304 0.609418 0.640802 0.268367
H97   H     H_    0.763253 0.685007 0.606699 0.260817
H98   H     H_    0.684567 0.866593 0.380609 0.150048
H99   H     H_    0.621706 0.899212 0.346846 0.169948
H100  H     H_    0.583317 0.818781 0.424352 0.195471
H101  H     H_    0.641021 0.734332 0.708152 0.162110
H102  H     H_    0.516994 0.849144 0.390457 0.240490
H103  H     H_    0.546487 0.717389 0.383385 0.260571
H104  H     H_    0.564679 0.768943 0.339825 0.283876
H105  H     H_    0.639360 0.740299 0.370939 0.255074
H106  H     H_    0.316303 0.865518 0.619296 0.150176
H107  H     H_    0.378200 0.899014 0.653327 0.171590
H108  H     H_    0.417991 0.816819 0.576631 0.194541
H109  H     H_    0.484152 0.849134 0.609992 0.240958
H110  H     H_    0.456113 0.717437 0.618636 0.259405
H111  H     H_    0.437481 0.770360 0.661639 0.285640
H112  H     H_    0.761392 0.144524 0.794915 0.162701
H113  H     H_    0.349254 0.255825 0.298906 0.155620
H114  H     H_    0.363034 0.739895 0.630915 0.255208
H115  H     H_    0.526481 0.217940 0.874727 0.161644
H116  H     H_    0.539768 0.136541 0.848523 0.133242
H117  H     H_    0.603009 0.161788 0.931501 0.210704
H118  H     H_    0.626628 0.090087 0.898105 0.229754
H119  H     H_    0.721045 0.185237 0.897733 0.266536
H120  H     H_    0.675516 0.183118 0.851191 0.269840
H121  H     H_    0.654602 0.254439 0.886004 0.258303
H122  H     H_    0.698811 0.884648 0.100229 0.146159
H123  H     H_    0.667785 0.933932 0.140591 0.184675
H124  H     H_    0.270405 0.635828 0.712697 0.160466
H125  H     H_    0.679167 0.994943 0.056431 0.212950
H126  H     H_    0.649779 0.046268 0.098557 0.231841
H127  H     H_    0.779448 0.069653 0.083665 0.268332
H128  H     H_    0.770343 0.024532 0.130099 0.265165
H129  H     H_    0.800044 0.973636 0.087674 0.258827
H130  H     H_    0.785655 0.545148 0.878896 0.162556
H131  H     H_    0.865558 0.552395 0.850768 0.141913
H132  H     H_    0.851854 0.612290 0.935305 0.212458
H133  H     H_    0.924041 0.630562 0.901266 0.228104
H134  H     H_    0.838862 0.734190 0.904208 0.262627
H135  H     H_    0.736323 0.357166 0.293361 0.154109
H136  H     H_    0.835321 0.692128 0.856722 0.269144
H137  H     H_    0.763248 0.675790 0.891833 0.263636
H138  H     H_    0.084252 0.707536 0.106260 0.155074
H139  H     H_    0.003356 0.662715 0.121021 0.173255
H140  H     H_    0.046033 0.680002 0.034227 0.218221
H141  H     H_    0.960317 0.650399 0.053909 0.217146
H142  H     H_    0.955480 0.779271 0.032663 0.274398
H143  H     H_    0.942133 0.772371 0.084670 0.266568
H144  H     H_    0.028924 0.802520 0.065131 0.262105
H145  H     H_    0.477521 0.782395 0.873637 0.160077
H146  H     H_    0.366244 0.272558 0.714917 0.159958
H147  H     H_    0.466413 0.863695 0.847070 0.132130
H148  H     H_    0.394866 0.834864 0.927959 0.208497
H149  H     H_    0.375329 0.909704 0.895777 0.230649
H150  H     H_    0.280366 0.815525 0.890553 0.265419
H151  H     H_    0.330289 0.822113 0.845351 0.272893
H152  H     H_    0.347456 0.747078 0.878499 0.258239
H153  H     H_    0.298841 0.111165 0.100300 0.144609
H154  H     H_    0.330873 0.060932 0.139983 0.184861
H155  H     H_    0.322820 0.004193 0.054922 0.211609
H156  H     H_    0.353007 0.951462 0.096374 0.230605
H157  H     H_    0.636586 0.729831 0.287684 0.157198
H158  H     H_    0.224506 0.924849 0.080520 0.265613
H159  H     H_    0.231274 0.967416 0.127743 0.265456
H160  H     H_    0.200759 0.019914 0.086081 0.259795
H161  H     H_    0.216303 0.454816 0.875474 0.167513
H162  H     H_    0.137255 0.455219 0.846594 0.128262
H163  H     H_    0.144375 0.376141 0.926784 0.211322
H164  H     H_    0.076696 0.365334 0.889826 0.233644
H165  H     H_    0.161917 0.262022 0.888512 0.264831
H166  H     H_    0.171508 0.314928 0.844443 0.273804
H167  H     H_    0.238636 0.322727 0.882814 0.260640
H168  H     H_    0.730763 0.636885 0.288388 0.161647
H169  H     H_    0.873857 0.303806 0.103567 0.146165
H170  H     H_    0.924151 0.335878 0.143329 0.183991
H171  H     H_    0.985236 0.316141 0.059587 0.212720
H172  H     H_    0.037143 0.346536 0.101124 0.231619
H173  H     H_    0.055894 0.215004 0.088891 0.269687
H174  H     H_    0.011165 0.228972 0.135137 0.266742
H175  H     H_    0.959311 0.198213 0.093380 0.258879
H176  H     H_    0.273017 0.366849 0.715593 0.153145
H177  H     H_    0.643063 0.263295 0.293697 0.162382
H178  H     H_    0.364547 0.728804 0.713399 0.156240
H179  H     H_    0.255599 0.349597 0.298826 0.162804
H180  H     H_    0.150460 0.243811 0.201275 0.159277
H181  H     H_    0.734403 0.640381 0.708509 0.155437
H182  H     H_    0.349802 0.743359 0.298532 0.162537
H183  H     H_    0.645661 0.261100 0.704442 0.156289
H184  H     H_    0.850703 0.275005 0.453876 0.162719
H185  H     H_    0.852352 0.351112 0.486278 0.097285
H186  H     H_    0.909032 0.196064 0.505595 0.226583
H187  H     H_    0.904204 0.272456 0.538723 0.266246
H188  H     H_    0.768606 0.278916 0.529235 0.276350
H189  H     H_    0.800275 0.195155 0.550683 0.267990
H190  H     H_    0.774154 0.196973 0.499848 0.260847
H191  H     H_    0.858886 0.765533 0.791952 0.160423
H192  H     H_    0.898811 0.730723 0.555277 0.142561
H193  H     H_    0.922175 0.752245 0.506273 0.139346
H194  H     H_    0.011296 0.847751 0.532873 0.211934
H195  H     H_    0.915788 0.865690 0.539821 0.168659
H196  H     H_    0.922167 0.825208 0.608173 0.229328
H197  H     H_    0.990842 0.893259 0.599010 0.226325
H198  H     H_    0.016782 0.798439 0.602119 0.300828
H199  H     H_    0.705959 0.831525 0.443833 0.160733
H200  H     H_    0.638532 0.837488 0.481524 0.092447
H201  H     H_    0.804953 0.854116 0.491718 0.213010
H202  H     H_    0.762854 0.143537 0.205745 0.157977
H203  H     H_    0.737932 0.858475 0.530223 0.267235
H204  H     H_    0.694964 0.731044 0.510991 0.272057
H205  H     H_    0.785462 0.735701 0.530043 0.256637
H206  H     H_    0.772368 0.726427 0.478202 0.273767
H207  H     H_    0.295600 0.829339 0.555725 0.161120
H208  H     H_    0.365804 0.836713 0.519539 0.093085
H209  H     H_    0.200094 0.849320 0.505777 0.211519
H210  H     H_    0.269709 0.856686 0.468717 0.267286
H211  H     H_    0.315277 0.729998 0.488460 0.272023
H212  H     H_    0.226770 0.732653 0.466865 0.257696
H213  H     H_    0.230248 0.863475 0.788081 0.162442
H214  H     H_    0.234931 0.722349 0.518983 0.274146
H215  H     H_    0.111556 0.724715 0.445341 0.142551
H216  H     H_    0.086220 0.752367 0.493138 0.139619
H217  H     H_    0.003206 0.848521 0.463068 0.212193
H218  H     H_    0.099362 0.861305 0.455419 0.172721
H219  H     H_    0.090887 0.814446 0.388555 0.228632
H220  H     H_    0.024300 0.885359 0.395598 0.223183
H221  H     H_    0.995541 0.791286 0.395465 0.302610
H222  H     H_    0.134487 0.270126 0.546443 0.163028
H223  H     H_    0.135213 0.345187 0.513214 0.098089
H224  H     H_    0.862424 0.768766 0.210838 0.156495
H225  H     H_    0.076767 0.190149 0.495826 0.222963
H226  H     H_    0.079282 0.265322 0.461858 0.268027
H227  H     H_    0.215166 0.273223 0.469174 0.275424
H228  H     H_    0.183701 0.187890 0.449615 0.269306
H229  H     H_    0.212092 0.193017 0.500026 0.260391
H230  H     H_    0.268670 0.091424 0.456759 0.134108
H231  H     H_    0.257856 0.050587 0.503873 0.114458
H232  H     H_    0.161781 0.968196 0.478114 0.209349
H233  H     H_    0.139112 0.063048 0.473733 0.180937
H234  H     H_    0.177418 0.061125 0.403304 0.238609
H235  H     H_    0.134095 0.227779 0.785454 0.162480
H236  H     H_    0.105220 0.997259 0.413756 0.227478
H237  H     H_    0.197171 0.964432 0.407583 0.292301
H238  H     H_    0.728850 0.091312 0.543741 0.134183
H239  H     H_    0.744165 0.050041 0.497084 0.117905
H240  H     H_    0.840288 0.970529 0.525153 0.207817
H241  H     H_    0.860135 0.066073 0.529797 0.178842
H242  H     H_    0.818157 0.063766 0.599275 0.237150
H243  H     H_    0.891082 0.999800 0.590469 0.226443
H244  H     H_    0.798848 0.967008 0.594991 0.292790
H245  H     H_    0.479688 0.740643 0.942303 0.164985
H246  H     H_    0.228055 0.134156 0.785643 0.161920
H247  H     H_    0.457133 0.782059 0.987973 0.090057
H248  H     H_    0.583895 0.672876 0.976148 0.229959
H249  H     H_    0.548023 0.706075 0.021678 0.255645
H250  H     H_    0.427223 0.648422 0.006643 0.258947
H251  H     H_    0.500698 0.583159 0.009158 0.271818
H252  H     H_    0.466067 0.611104 0.962353 0.274919
H253  H     H_    0.299283 0.128953 0.032544 0.124671
H254  H     H_    0.324102 0.194721 0.995923 0.177798
H255  H     H_    0.298952 0.233751 0.081972 0.237518
H256  H     H_    0.316742 0.295646 0.042545 0.209019
O1    O     O_3   0.500000 0.000000 0.250000 -0.475990
O2    O     O_R   0.500000 0.939270 0.662450 -0.657973
O3    O     O_R   0.939270 0.500000 0.337550 -0.659515
O4    O     O_R   0.060730 0.500000 0.662450 -0.656931
O5    O     O_R   0.000000 0.439270 0.837550 -0.646507
O6    O     O_R   0.000000 0.560730 0.162450 -0.646206
O7    O     O_R   0.560730 0.000000 0.837550 -0.642429
O8    O     O_R   0.439270 0.000000 0.162450 -0.650141
O9    O     O_R   0.000000 0.560730 0.837550 -0.645166
O10   O     O_R   0.000000 0.439270 0.162450 -0.653374
O11   O     O_R   0.439270 0.000000 0.837550 -0.641484
O12   O     O_3   0.500000 1.000000 0.750000 -0.480073
O13   O     O_R   0.560730 0.000000 0.162450 -0.650511
O14   O     O_R   0.414490 0.146150 0.273020 -0.658008
O15   O     O_R   0.585510 0.853850 0.726980 -0.648324
O16   O     O_R   0.853850 0.414490 0.273020 -0.661255
O17   O     O_R   0.146150 0.585510 0.726980 -0.647089
O18   O     O_R   0.585510 0.853850 0.273020 -0.667808
O19   O     O_R   0.414490 0.146150 0.726980 -0.648617
O20   O     O_R   0.146150 0.585510 0.273020 -0.662742
O21   O     O_R   0.853850 0.414490 0.726980 -0.646622
O22   O     O_R   0.414490 0.853850 0.726980 -0.669099
O23   O     O_3   0.000000 0.500000 0.250000 -0.476555
O24   O     O_R   0.585510 0.146150 0.273020 -0.646227
O25   O     O_R   0.853850 0.585510 0.726980 -0.660973
O26   O     O_R   0.146150 0.414490 0.273020 -0.644756
O27   O     O_R   0.585510 0.146150 0.726980 -0.659959
O28   O     O_R   0.414490 0.853850 0.273020 -0.645426
O29   O     O_R   0.146150 0.414490 0.726980 -0.660459
O30   O     O_R   0.853850 0.585510 0.273020 -0.645704
O31   O     O_R   0.914490 0.646150 0.773020 -0.653203
O32   O     O_R   0.085510 0.353850 0.226980 -0.652598
O33   O     O_R   0.353850 0.914490 0.773020 -0.651491
O34   O     O_3   0.000000 0.500000 0.750000 -0.480040
O35   O     O_R   0.646150 0.085510 0.226980 -0.653958
O36   O     O_R   0.085510 0.353850 0.773020 -0.652413
O37   O     O_R   0.914490 0.646150 0.226980 -0.655890
O38   O     O_R   0.646150 0.085510 0.773020 -0.651280
O39   O     O_R   0.353850 0.914490 0.226980 -0.653176
O40   O     O_R   0.914490 0.353850 0.226980 -0.660233
O41   O     O_R   0.085510 0.646150 0.773020 -0.643850
O42   O     O_R   0.353850 0.085510 0.226980 -0.657669
O43   O     O_R   0.646150 0.914490 0.773020 -0.642373
O44   O     O_R   0.085510 0.646150 0.226980 -0.648216
O45   O     O_R   0.500000 0.939270 0.337550 -0.659522
O46   O     O_R   0.914490 0.353850 0.773020 -0.643308
O47   O     O_R   0.646150 0.914490 0.226980 -0.657915
O48   O     O_R   0.353850 0.085510 0.773020 -0.642065
O49   O     O_3   0.954257 0.311412 0.465185 -0.609352
O50   O     O_3   0.005870 0.706455 0.541054 -0.587708
O51   O     O_3   0.693789 0.935658 0.465068 -0.602996
O52   O     O_3   0.307449 0.933728 0.534696 -0.602753
O53   O     O_3   0.002934 0.706095 0.458533 -0.589433
O54   O     O_3   0.032025 0.308906 0.534371 -0.609628
O55   O     O_3   0.302259 0.983854 0.459155 -0.581045
O56   O     O_R   0.500000 0.060730 0.662450 -0.654898
O57   O     O_3   0.698087 0.983029 0.541064 -0.582192
O58   O     O_3   0.559795 0.809216 0.961811 -0.608352
O59   O     O_3   0.402446 0.175372 0.039290 -0.600778
O60   O     O_3   0.196717 0.535993 0.962654 -0.581190
O61   O     O_3   0.823601 0.397834 0.038628 -0.608614
O62   O     O_3   0.437719 0.191135 0.961232 -0.608314
O63   O     O_3   0.599252 0.827014 0.038970 -0.605349
O64   O     O_3   0.811914 0.430015 0.959207 -0.607594
O65   O     O_3   0.182506 0.565760 0.042786 -0.590649
O66   O     O_3   0.032227 0.632780 0.396878 -0.615454
O67   O     O_R   0.060730 0.500000 0.337550 -0.658518
O68   O     O_3   0.024075 0.373428 0.600561 -0.617537
O69   O     O_3   0.372639 0.023868 0.398728 -0.609196
O70   O     O_3   0.627425 0.025085 0.601223 -0.610013
O71   O     O_3   0.962252 0.377060 0.399189 -0.616948
O72   O     O_3   0.979504 0.635063 0.603268 -0.612224
O73   O     O_3   0.629950 0.958483 0.398151 -0.619340
O74   O     O_3   0.370579 0.957592 0.601758 -0.619962
O75   O     O_3   0.472520 0.130336 0.897606 -0.598269
O76   O     O_3   0.587893 0.901799 0.101640 -0.602545
O77   O     O_3   0.869367 0.481033 0.898095 -0.602378
O78   O     O_R   0.939270 0.500000 0.662450 -0.654978
O79   O     O_3   0.086084 0.597126 0.097196 -0.604250
O80   O     O_3   0.528630 0.870250 0.897858 -0.598198
O81   O     O_3   0.410319 0.097696 0.101600 -0.602506
O82   O     O_3   0.132836 0.515023 0.898173 -0.599009
O83   O     O_3   0.895275 0.414058 0.102620 -0.604015
O84   O     O_R   0.500000 0.060730 0.337550 -0.656359
Zn1   Zn    Zn3+2 0.413190 0.000000 0.217350 0.962852
Zn2   Zn    Zn3+2 0.086810 0.500000 0.282650 0.962217
Zn3   Zn    Zn3+2 0.500000 0.913190 0.717350 0.949116
Zn4   Zn    Zn3+2 0.500000 0.086810 0.282650 0.964342
Zn5   Zn    Zn3+2 0.086810 0.500000 0.717350 0.954364
Zn6   Zn    Zn3+2 0.913190 0.500000 0.282650 0.961264
Zn7   Zn    Zn3+2 0.500000 0.086810 0.717350 0.956844
Zn8   Zn    Zn3+2 0.500000 0.913190 0.282650 0.957275
Zn9   Zn    Zn3+2 0.586810 0.000000 0.782650 0.966836
Zn10  Zn    Zn3+2 0.000000 0.413190 0.217350 0.959994
Zn11  Zn    Zn3+2 0.000000 0.586810 0.782650 0.962819
Zn12  Zn    Zn3+2 0.586810 0.000000 0.217350 0.959736
Zn13  Zn    Zn3+2 0.413190 0.000000 0.782650 0.964711
Zn14  Zn    Zn3+2 0.000000 0.586810 0.217350 0.965867
Zn15  Zn    Zn3+2 0.000000 0.413190 0.782650 0.963952
Zn16  Zn    Zn3+2 0.913190 0.500000 0.717350 0.956274

loop_
_geom_bond_atom_site_label_1
_geom_bond_atom_site_label_2
_ccdc_geom_bond_type
C37   C232  A    
C159  O57   S    
C125  H117  S    
C27   C202  A    
C32   C196  A    
C25   C204  A    
C70   H245  S    
C102  H65   S    
C114  O72   S    
C114  C115  S    
C101  C200  A    
C124  C175  S    
C55   H212  S    
C24   O79   S    
C62   H228  S    
C65   H234  S    
C96   H52   S    
C114  H92   S    
C13   C146  A    
C35   C124  A    
C18   C210  A    
C154  C158  A    
C22   C181  S    
C156  O69   S    
C151  C230  A    
C7    C159  A    
C106  C107  S    
C107  H78   S    
C143  C144  S    
C48   H195  S    
C5    C36   A    
C108  H81   S    
C216  H113  S    
C53   O52   S    
C73   C74   S    
O17   Zn5   S    
C110  C111  S    
C215  H101  S    
C71   H248  S    
C69   H243  S    
C103  H69   S    
O1    Zn12  S    
C192  O28   A    
C202  H224  S    
C29   C199  A    
C49   H196  S    
C201  C206  A    
C15   C166  A    
C157  O54   S    
C119  H104  S    
C59   H220  S    
C93   H45   S    
C60   H223  S    
C152  C231  A    
C196  C210  A    
O34   Zn11  S    
C106  O70   S    
C148  H171  S    
C9    C46   A    
C10   C162  A    
C137  O80   S    
C43   O49   S    
C149  H174  S    
C214  H90   S    
C10   C41   A    
O12   Zn9   S    
O1    Zn4   S    
C189  O72   S    
C120  H107  S    
C100  H63   S    
C175  O7    A    
O47   Zn12  S    
C168  O65   S    
C191  O38   A    
C227  H181  S    
C183  O19   A    
C76   O60   S    
C51   C52   S    
C20   C215  A    
O22   Zn3   S    
O5    Zn15  S    
C206  H13   S    
C140  C141  S    
C93   H44   S    
C120  O74   S    
C88   H36   S    
C128  H126  S    
C212  H68   S    
C187  O24   A    
C45   H189  S    
C133  O79   S    
C216  C226  A    
C169  O84   A    
C219  H146  S    
C137  H145  S    
C43   C44   S    
C109  O71   S    
C37   C38   A    
O1    Zn1   S    
C154  O52   S    
C145  H167  S    
C96   H53   S    
O39   Zn1   S    
C80   H15   S    
C183  O48   A    
C148  C149  S    
C95   H51   S    
C106  H76   S    
C45   H188  S    
C124  C222  A    
C162  O60   S    
C174  O6    A    
C72   H252  S    
C1    C79   A    
C83   O62   S    
C151  C157  A    
C91   C92   S    
C213  C229  A    
C229  H183  S    
C50   H200  S    
C190  O32   A    
C65   H236  S    
C211  O74   S    
C61   H225  S    
C130  H130  S    
C144  C145  S    
C139  H151  S    
C111  H87   S    
C113  C170  S    
C208  H35   S    
C78   H11   S    
O84   Zn4   S    
C26   C203  A    
C213  H79   S    
C72   H250  S    
C17   C184  S    
C134  H140  S    
C57   O82   S    
C147  H169  S    
C140  H154  S    
C49   H198  S    
C177  O42   A    
C130  C131  S    
O3    Zn6   S    
C2    C14   A    
C126  H121  S    
C94   H48   S    
C4    C155  A    
C74   H256  S    
C43   H184  S    
O23   Zn6   S    
C171  O67   A    
C63   H231  S    
C200  C232  A    
C86   H30   S    
O16   Zn6   S    
O67   Zn2   S    
C178  O71   S    
O24   Zn4   S    
C66   H238  S    
C29   C224  A    
C52   H204  S    
C197  C209  A    
C153  C159  A    
C131  H132  S    
C110  H85   S    
C147  C148  S    
C179  O43   A    
C17   C212  A    
C128  C129  S    
C97   C98   S    
C53   C54   S    
C31   C190  S    
C76   H7    S    
C48   H194  S    
C28   C201  A    
C43   H185  S    
C186  O33   A    
C82   H20   S    
C176  O8    A    
C178  C230  A    
C120  H106  S    
C64   H233  S    
C115  C116  S    
C22   C206  A    
C204  H246  S    
O8    Zn1   S    
C47   C48   S    
C129  H129  S    
C95   H49   S    
C77   H8    S    
C107  C108  S    
C176  O13   A    
C89   C91   S    
C19   C177  S    
C50   O51   S    
C66   C67   S    
C32   C229  A    
C181  O17   A    
C225  H178  S    
O7    Zn9   S    
C158  O55   S    
O33   Zn13  S    
C59   H221  S    
C116  H96   S    
C164  O62   S    
C220  C221  A    
C6    C158  A    
C20   C179  S    
C3    C211  A    
C126  H120  S    
C27   C221  A    
C144  H163  S    
C83   H22   S    
C89   H38   S    
C13   O77   S    
C173  O9    A    
C84   H25   S    
O29   Zn5   S    
C91   H40   S    
C54   H210  S    
C121  H108  S    
C39   C40   A    
O28   Zn8   S    
C226  H179  S    
C102  H64   S    
O4    Zn5   S    
C3    C154  A    
C175  O11   A    
C207  H24   S    
C28   C186  S    
C64   H232  S    
O34   Zn15  S    
C129  H127  S    
C83   C84   S    
C185  O46   A    
C11   C163  A    
O12   Zn13  S    
C75   H4    S    
C153  C232  A    
C27   C194  S    
C85   H27   S    
C9    C161  A    
C170  O2    A    
C12   C222  A    
C182  O47   A    
O13   Zn12  S    
C24   C150  A    
C218  H135  S    
C162  C168  A    
C184  O20   A    
C30   C198  A    
C22   C217  A    
C52   H206  S    
O41   Zn11  S    
C53   H207  S    
C109  H84   S    
C80   H14   S    
O43   Zn9   S    
C114  H91   S    
C217  H124  S    
C17   C214  A    
C87   H31   S    
C26   C223  A    
C120  C121  S    
C7    C167  A    
C54   C55   S    
C99   O68   S    
O25   Zn16  S    
C82   H18   S    
C201  H213  S    
C122  H110  S    
C79   C178  A    
C28   C225  A    
C102  H66   S    
C123  H116  S    
O42   Zn1   S    
C56   O53   S    
C5    C112  A    
C191  O27   A    
C88   H33   S    
C62   H229  S    
O32   Zn10  S    
C2    C135  A    
C60   H222  S    
C21   C218  A    
C135  C176  S    
C71   C72   S    
C117  C118  S    
O19   Zn7   S    
C107  H77   S    
C108  H82   S    
C73   H254  S    
C100  H62   S    
C56   C58   S    
C228  H182  S    
C215  C227  A    
C222  O75   S    
C172  O4    A    
C61   C62   S    
O23   Zn2   S    
C68   C150  A    
C63   C64   S    
C55   H214  S    
C31   C226  A    
C8    C39   A    
C132  H134  S    
C59   H219  S    
C92   H41   S    
C57   C146  A    
C6    C156  A    
C86   O63   S    
C99   H60   S    
C217  C225  A    
C127  H122  S    
C87   C88   S    
C148  H172  S    
O21   Zn16  S    
C47   H192  S    
C149  H173  S    
C41   C42   A    
C187  O35   A    
C143  H162  S    
C70   H247  S    
C77   C78   S    
C11   C68   A    
C103  H67   S    
C180  O40   A    
C131  H133  S    
C180  O16   A    
C140  O81   S    
C205  H2    S    
C98   H58   S    
O12   Zn3   S    
C117  O73   S    
C115  H94   S    
O48   Zn13  S    
C123  C125  S    
C169  O45   A    
C108  H80   S    
O23   Zn10  S    
C11   C42   A    
C76   H6    S    
C79   C171  S    
C104  C105  S    
C142  H158  S    
C147  O83   S    
C46   C135  A    
C117  H99   S    
C136  H143  S    
C145  H166  S    
C202  C205  A    
C179  O15   A    
C89   O64   S    
C101  C169  S    
C70   C71   S    
C133  H138  S    
C58   H217  S    
C105  H74   S    
C142  H160  S    
C125  H118  S    
C97   H54   S    
C81   H16   S    
O2    Zn3   S    
C167  O70   S    
C127  O76   S    
O11   Zn13  S    
C118  H102  S    
C139  H152  S    
C143  O82   S    
C62   H227  S    
C80   O61   S    
C163  C166  A    
C119  H103  S    
C84   C85   S    
C113  C211  A    
C199  C207  A    
C86   C87   S    
C101  C156  A    
C58   C59   S    
C72   H251  S    
C9    C40   A    
C78   H12   S    
C29   C187  S    
C60   C61   S    
C30   C188  S    
C188  O25   A    
C153  O51   S    
C69   H244  S    
C130  H131  S    
C134  H141  S    
C152  C155  A    
C84   H23   S    
C181  O41   A    
C50   C51   S    
C132  H136  S    
O44   Zn14  S    
C144  H164  S    
C198  H191  S    
C92   H43   S    
C15   C41   A    
C121  C122  S    
C112  O68   S    
C23   C182  S    
C70   O58   S    
C48   C49   S    
C161  O59   S    
O15   Zn3   S    
C186  O22   A    
C104  H71   S    
C55   H211  S    
C151  O49   S    
C46   O81   S    
C133  C134  S    
O38   Zn9   S    
C77   H9    S    
C75   H5    S    
C127  C128  S    
C8    C160  A    
C172  O78   A    
C31   C197  A    
C161  C164  A    
C51   H201  S    
C44   C45   S    
C66   H239  S    
C23   C220  A    
C223  H176  S    
C18   C185  S    
C137  H147  S    
C35   O80   S    
C19   C209  A    
C30   C227  A    
C110  H86   S    
C220  H157  S    
C66   O57   S    
O18   Zn8   S    
C99   H61   S    
C113  C167  A    
C63   H230  S    
C218  C224  A    
C128  H125  S    
C44   H187  S    
C45   H190  S    
C63   O55   S    
C64   C65   S    
C12   C39   A    
C56   H215  S    
C109  C110  S    
O31   Zn11  S    
C71   H249  S    
C67   H240  S    
C200  O73   S    
C36   C231  A    
C51   H203  S    
C199  H202  S    
C98   H59   S    
C94   C95   S    
C138  C139  S    
C219  C223  A    
C147  H170  S    
C106  H75   S    
C195  C212  A    
O37   Zn14  S    
C33   C195  A    
C203  H235  S    
O10   Zn10  S    
O36   Zn15  S    
C90   C172  S    
C103  C104  S    
C195  H1    S    
C122  H114  S    
C26   C193  S    
C8    C35   A    
C118  H100  S    
C50   H199  S    
O1    Zn8   S    
C203  C204  A    
C65   H237  S    
C93   C94   S    
C47   O50   S    
C61   H226  S    
C177  O14   A    
C90   C112  A    
C32   C191  S    
C33   C228  A    
C93   O65   S    
C60   O54   S    
C56   H216  S    
C81   C82   S    
C111  H88   S    
C73   O59   S    
C194  O37   A    
C96   O66   S    
C127  H123  S    
C78   H10   S    
C83   H21   S    
C33   C192  S    
C89   H37   S    
C189  C231  A    
C91   H39   S    
C119  H105  S    
C197  H180  S    
C12   C164  A    
C140  H153  S    
C209  H46   S    
C146  C173  S    
C25   C183  S    
O20   Zn2   S    
C19   C216  A    
C116  H95   S    
C190  O26   A    
C118  C119  S    
C47   H193  S    
C94   H47   S    
C194  O30   A    
C193  O36   A    
O14   Zn4   S    
C21   C180  S    
C170  O56   A    
C3    C38   A    
C152  O50   S    
C74   H255  S    
C160  O58   S    
C75   H3    S    
C210  H57   S    
C85   H26   S    
C214  C228  A    
C86   H29   S    
C34   C36   A    
C224  H177  S    
C141  H155  S    
C136  H142  S    
C16   C24   A    
C109  H83   S    
C34   C230  A    
C221  H168  S    
O34   Zn16  S    
O46   Zn15  S    
C111  H89   S    
C97   H55   S    
C49   H197  S    
C98   H56   S    
C138  H148  S    
O23   Zn14  S    
C4    C34   A    
C74   C75   S    
C174  O10   A    
C198  C208  A    
C82   H19   S    
C103  O69   S    
C10   C57   A    
O40   Zn10  S    
C76   C77   S    
C73   H253  S    
C123  H115  S    
C134  C136  S    
C160  C165  A    
C133  H139  S    
C69   H242  S    
C67   C69   S    
C105  H72   S    
C184  O44   A    
C138  H149  S    
C99   C100  S    
C67   H241  S    
C95   H50   S    
C96   C97   S    
O35   Zn12  S    
C100  C102  S    
O9    Zn11  S    
C6    C37   A    
C141  H156  S    
C165  O63   S    
C171  O3    A    
C14   C165  A    
C188  O31   A    
C2    O76   S    
O56   Zn7   S    
O78   Zn16  S    
C150  C174  S    
C122  H111  S    
C13   C15   A    
O45   Zn8   S    
C18   C213  A    
C20   C208  A    
C92   H42   S    
C16   C42   A    
C132  H137  S    
C139  H150  S    
C123  O75   S    
O34   Zn5   S    
C126  H119  S    
C166  O64   S    
C104  H70   S    
O12   Zn7   S    
O27   Zn7   S    
C81   H17   S    
C80   C81   S    
C143  H161  S    
C54   H209  S    
C121  H109  S    
C130  O77   S    
C192  O39   A    
C155  O53   S    
C137  C138  S    
C5    C157  A    
O6    Zn14  S    
C1    C4    A    
C21   C207  A    
C149  H175  S    
C116  H97   S    
C141  C142  S    
C185  O21   A    
C115  H93   S    
C129  H128  S    
C88   H34   S    
C125  C126  S    
C44   H186  S    
C16   C168  A    
C163  O61   S    
C7    C38   A    
C173  O5    A    
C85   H28   S    
C182  O18   A    
C196  H112  S    
C193  O29   A    
C25   C219  A    
C142  H159  S    
C14   C40   A    
C117  H98   S    
O26   Zn2   S    
C1    O66   S    
O30   Zn6   S    
C52   H205  S    
C136  H144  S    
C145  H165  S    
C53   H208  S    
C87   H32   S    
C58   H218  S    
C23   C205  A    
C131  C132  S    
C68   O83   S    
C105  H73   S    
C90   C189  A    
