data_mof_unit_6789.cif
_audit_creation_date              2012-12-11T15:06:53-0500
_audit_creation_method            fapswitch 2.2
_symmetry_space_group_name_H-M    P1
_symmetry_Int_Tables_number       1
_space_group_crystal_system       triclinic
_cell_length_a                    19.653557
_cell_length_b                    11.510542
_cell_length_c                    18.713756
_cell_angle_alpha                 89.999681
_cell_angle_beta                  89.232295
_cell_angle_gamma                 90.000662
_cell_volume                      4233.10375057

loop_
_atom_site_label
_atom_site_type_symbol
_atom_type_description
_atom_site_fract_x
_atom_site_fract_y
_atom_site_fract_z
_atom_type_partial_charge
C1    C     C_R   0.767686 0.501866 0.633900 0.593060
C2    C     C_R   0.232384 0.502100 0.366055 0.593595
C3    C     C_R   0.267686 0.001866 0.633900 0.593060
C4    C     C_R   0.732384 0.002100 0.366055 0.593595
C5    C     C_3   0.809244 0.112386 0.443442 0.111358
C6    C     C_3   0.190796 0.112272 0.556573 0.111608
C7    C     C_3   0.309244 0.612386 0.443442 0.111358
C8    C     C_3   0.690796 0.612272 0.556573 0.111608
C9    C     C_3   0.743165 0.044181 0.439550 0.067992
C10   C     C_3   0.256882 0.044051 0.560424 0.067930
C11   C     C_3   0.243165 0.544181 0.439550 0.067992
C12   C     C_3   0.756882 0.544051 0.560424 0.067930
C13   C     C_3   0.762410 0.098023 0.573241 -0.030277
C14   C     C_3   0.237589 0.098039 0.426762 -0.030324
C15   C     C_3   0.262410 0.598023 0.573241 -0.030277
C16   C     C_3   0.737589 0.598039 0.426762 -0.030324
C17   C     C_3   0.751640 0.968553 0.567633 -0.229701
C18   C     C_3   0.248383 0.968574 0.432317 -0.229565
C19   C     C_3   0.251640 0.468553 0.567633 -0.229701
C20   C     C_3   0.748383 0.468574 0.432317 -0.229565
C21   C     C_3   0.823413 0.135115 0.523347 -0.225281
C22   C     C_3   0.176602 0.135078 0.476685 -0.225389
C23   C     C_3   0.323413 0.635115 0.523347 -0.225281
C24   C     C_3   0.676601 0.635078 0.476685 -0.225389
C25   C     C_3   0.001879 0.206772 0.458794 -0.232715
C26   C     C_3   0.998139 0.206762 0.541215 -0.232703
C27   C     C_3   0.501879 0.706772 0.458794 -0.232715
C28   C     C_3   0.498139 0.706762 0.541215 -0.232703
C29   C     C_3   0.063629 0.402529 0.470884 -0.227010
C30   C     C_3   0.936410 0.402537 0.529132 -0.226971
C31   C     C_3   0.563629 0.902529 0.470884 -0.227010
C32   C     C_3   0.436410 0.902537 0.529132 -0.226971
C33   C     C_3   0.942051 0.393801 0.447661 -0.276726
C34   C     C_3   0.057992 0.393763 0.552359 -0.276729
C35   C     C_3   0.442051 0.893801 0.447661 -0.276726
C36   C     C_3   0.557992 0.893763 0.552359 -0.276729
C37   C     C_3   0.008912 0.333007 0.430360 0.058703
C38   C     C_3   0.991118 0.332996 0.569654 0.058721
C39   C     C_3   0.508912 0.833007 0.430360 0.058703
C40   C     C_3   0.491118 0.832996 0.569654 0.058721
C41   C     C_3   0.819645 0.026672 0.045804 -0.237117
C42   C     C_3   0.180351 0.026686 0.954191 -0.237125
C43   C     C_3   0.319645 0.526672 0.045804 -0.237117
C44   C     C_3   0.680351 0.526686 0.954191 -0.237125
C45   C     C_R   0.777412 0.129140 0.647065 0.547369
C46   C     C_R   0.222564 0.129198 0.352953 0.547362
C47   C     C_R   0.277412 0.629140 0.647065 0.547369
C48   C     C_R   0.722564 0.629198 0.352953 0.547362
C49   C     C_3   0.818828 0.024306 0.965136 -0.231555
C50   C     C_3   0.181164 0.024326 0.034860 -0.231556
C51   C     C_3   0.318828 0.524306 0.965136 -0.231555
C52   C     C_3   0.681164 0.524326 0.034860 -0.231556
C53   C     C_3   0.691712 0.015637 0.032967 -0.229370
C54   C     C_3   0.308277 0.015629 0.967031 -0.229382
C55   C     C_3   0.191712 0.515637 0.032967 -0.229370
C56   C     C_3   0.808277 0.515629 0.967031 -0.229382
C57   C     C_3   0.745401 0.200926 0.061428 -0.248299
C58   C     C_3   0.254607 0.200933 0.938568 -0.248285
C59   C     C_3   0.245401 0.700926 0.061428 -0.248299
C60   C     C_3   0.754607 0.700933 0.938568 -0.248285
C61   C     C_3   0.749728 0.071200 0.075696 0.056729
C62   C     C_3   0.250270 0.071209 0.924300 0.056715
C63   C     C_3   0.249728 0.571200 0.075696 0.056729
C64   C     C_3   0.750270 0.571209 0.924300 0.056715
C65   C     C_3   0.760438 0.104126 0.936277 0.060333
C66   C     C_3   0.239560 0.104135 0.063719 0.060324
C67   C     C_3   0.260438 0.604126 0.936277 0.060333
C68   C     C_3   0.739560 0.604135 0.063719 0.060324
C69   C     C_3   0.693789 0.042078 0.951755 -0.252601
C70   C     C_3   0.306208 0.042083 0.048238 -0.252598
C71   C     C_3   0.193789 0.542078 0.951755 -0.252601
C72   C     C_3   0.806208 0.542083 0.048238 -0.252598
C73   C     C_3   0.757421 0.218300 0.980113 -0.234279
C74   C     C_3   0.242580 0.218308 0.019883 -0.234281
C75   C     C_3   0.257420 0.718300 0.980113 -0.234279
C76   C     C_3   0.742580 0.718308 0.019883 -0.234281
C77   C     C_3   0.999041 0.478134 0.040721 -0.236091
C78   C     C_3   0.000954 0.478133 0.959281 -0.236092
C79   C     C_3   0.499041 0.978134 0.040721 -0.236091
C80   C     C_3   0.500954 0.978133 0.959281 -0.236092
C81   C     C_3   0.068448 0.294138 0.023672 -0.236770
C82   C     C_3   0.931542 0.294142 0.976332 -0.236765
C83   C     C_3   0.568448 0.794138 0.023672 -0.236770
C84   C     C_3   0.431542 0.794142 0.976332 -0.236765
C85   C     C_3   0.948153 0.280912 0.056236 -0.249405
C86   C     C_3   0.051835 0.280905 0.943770 -0.249408
C87   C     C_3   0.448153 0.780912 0.056236 -0.249405
C88   C     C_3   0.551835 0.780905 0.943770 -0.249408
C89   C     C_R   0.970491 0.342194 0.646015 0.544538
C90   C     C_R   0.029521 0.342196 0.353994 0.544586
C91   C     C_R   0.470491 0.842194 0.646015 0.544538
C92   C     C_R   0.529521 0.842196 0.353994 0.544586
C93   C     C_3   0.011656 0.352153 0.069220 0.061628
C94   C     C_3   0.988336 0.352152 0.930784 0.061628
C95   C     C_3   0.511656 0.852153 0.069220 0.061628
C96   C     C_3   0.488336 0.852152 0.930784 0.061628
C97   C     C_R   0.759549 0.534943 0.847963 0.559553
C98   C     C_R   0.240449 0.534933 0.152033 0.559498
C99   C     C_R   0.259549 0.034943 0.847963 0.559553
C100  C     C_R   0.740449 0.034933 0.152033 0.559498
C101  C     C_R   0.773922 0.132654 0.858788 0.541482
C102  C     C_R   0.226078 0.132655 0.141211 0.541485
C103  C     C_R   0.273922 0.632654 0.858788 0.541482
C104  C     C_R   0.726078 0.632655 0.141211 0.541485
C105  C     C_R   0.966743 0.353670 0.854433 0.536259
C106  C     C_R   0.033253 0.353670 0.145569 0.536268
C107  C     C_R   0.466743 0.853670 0.854433 0.536259
C108  C     C_R   0.533253 0.853670 0.145569 0.536268
C109  C     C_3   0.682859 0.117381 0.471385 0.152053
C110  C     C_3   0.317171 0.117315 0.528595 0.152153
C111  C     C_3   0.182859 0.617381 0.471385 0.152053
C112  C     C_3   0.817171 0.617315 0.528595 0.152153
C113  C     C_3   0.695841 0.153438 0.548093 -0.197856
C114  C     C_3   0.304157 0.153453 0.451904 -0.197831
C115  C     C_3   0.195841 0.653438 0.548093 -0.197856
C116  C     C_3   0.804157 0.653453 0.451904 -0.197831
C117  C     C_3   0.754694 0.936742 0.488564 -0.322534
C118  C     C_3   0.245343 0.936672 0.511369 -0.322649
C119  C     C_3   0.254694 0.436742 0.488564 -0.322534
C120  C     C_3   0.745343 0.436672 0.511369 -0.322649
Cr1   Cr    Cr6+3 0.885690 0.492860 0.745310 1.067169
Cr2   Cr    Cr6+3 0.114310 0.492860 0.254690 1.067128
Cr3   Cr    Cr6+3 0.385690 0.992860 0.745310 1.067169
Cr4   Cr    Cr6+3 0.614310 0.992860 0.254690 1.067128
Cr5   Cr    Cr6+3 0.729880 0.332270 0.748190 1.015483
Cr6   Cr    Cr6+3 0.270120 0.332270 0.251810 1.015474
Cr7   Cr    Cr6+3 0.229880 0.832270 0.748190 1.015483
Cr8   Cr    Cr6+3 0.770120 0.832270 0.251810 1.015474
Cr9   Cr    Cr6+3 0.888120 0.178590 0.753010 1.025279
Cr10  Cr    Cr6+3 0.111880 0.178590 0.246990 1.025304
Cr11  Cr    Cr6+3 0.388120 0.678590 0.753010 1.025279
Cr12  Cr    Cr6+3 0.611880 0.678590 0.246990 1.025304
H1    H     H_    0.642742 0.058116 0.477104 0.108211
H2    H     H_    0.357301 0.058080 0.522817 0.108095
H3    H     H_    0.142742 0.558116 0.477104 0.108211
H4    H     H_    0.857301 0.558080 0.522817 0.108095
H5    H     H_    0.865391 0.075745 0.537464 0.118212
H6    H     H_    0.134614 0.075736 0.462556 0.118210
H7    H     H_    0.365391 0.575745 0.537464 0.118212
H8    H     H_    0.634614 0.575736 0.462556 0.118210
H9    H     H_    0.807558 0.907073 0.479523 0.164125
H10   H     H_    0.192482 0.906991 0.520405 0.164208
H11   H     H_    0.307558 0.407073 0.479523 0.164125
H12   H     H_    0.692482 0.406991 0.520405 0.164208
H13   H     H_    0.790629 0.921587 0.598079 0.260540
H14   H     H_    0.209409 0.921610 0.401851 0.260603
H15   H     H_    0.290629 0.421587 0.598079 0.260540
H16   H     H_    0.709409 0.421610 0.401851 0.260603
H17   H     H_    0.043204 0.151378 0.439306 0.141800
H18   H     H_    0.956813 0.151361 0.560702 0.141802
H19   H     H_    0.543204 0.651378 0.439306 0.141800
H20   H     H_    0.456813 0.651361 0.560702 0.141802
H21   H     H_    0.955138 0.166418 0.437353 0.142552
H22   H     H_    0.044880 0.166391 0.562651 0.142524
H23   H     H_    0.455138 0.666418 0.437353 0.142552
H24   H     H_    0.544881 0.666391 0.562651 0.142524
H25   H     H_    0.614816 0.883004 0.450438 0.088724
H26   H     H_    0.385217 0.883009 0.549565 0.088674
H27   H     H_    0.114816 0.383004 0.450438 0.088724
H28   H     H_    0.885217 0.383009 0.549565 0.088674
H29   H     H_    0.600159 0.844622 0.572845 0.194315
H30   H     H_    0.399881 0.844694 0.427167 0.194375
H31   H     H_    0.100159 0.344622 0.572845 0.194315
H32   H     H_    0.899881 0.344695 0.427167 0.194375
H33   H     H_    0.939395 0.481684 0.423023 0.132000
H34   H     H_    0.060659 0.481635 0.577010 0.131990
H35   H     H_    0.439395 0.981684 0.423023 0.132000
H36   H     H_    0.560659 0.981635 0.577010 0.131990
H37   H     H_    0.948235 0.494675 0.541893 0.173667
H38   H     H_    0.051809 0.494671 0.458139 0.173619
H39   H     H_    0.448235 0.994675 0.541893 0.173667
H40   H     H_    0.551809 0.994671 0.458139 0.173619
H41   H     H_    0.833981 0.938297 0.063308 0.139411
H42   H     H_    0.166019 0.938304 0.936693 0.139411
H43   H     H_    0.333981 0.438297 0.063308 0.139411
H44   H     H_    0.666019 0.438304 0.936693 0.139411
H45   H     H_    0.860664 0.084533 0.064736 0.119977
H46   H     H_    0.139333 0.084546 0.935254 0.119985
H47   H     H_    0.360664 0.584533 0.064736 0.119977
H48   H     H_    0.639333 0.584546 0.935254 0.119985
H49   H     H_    0.870752 0.046343 0.946522 0.137852
H50   H     H_    0.129243 0.046385 0.053471 0.137846
H51   H     H_    0.370752 0.546343 0.946522 0.137852
H52   H     H_    0.629243 0.546385 0.053471 0.137846
H53   H     H_    0.810543 0.934041 0.946223 0.121563
H54   H     H_    0.189440 0.934060 0.053777 0.121569
H55   H     H_    0.310543 0.434041 0.946223 0.121563
H56   H     H_    0.689440 0.434060 0.053777 0.121569
H57   H     H_    0.700711 0.924909 0.041341 0.104811
H58   H     H_    0.299258 0.924901 0.958666 0.104820
H59   H     H_    0.200711 0.424909 0.041341 0.104811
H60   H     H_    0.799258 0.424901 0.958666 0.104820
H61   H     H_    0.689908 0.960577 0.920216 0.109018
H62   H     H_    0.310092 0.960588 0.079783 0.109021
H63   H     H_    0.189908 0.460576 0.920216 0.109018
H64   H     H_    0.810092 0.460588 0.079783 0.109021
H65   H     H_    0.694338 0.234249 0.077546 0.127281
H66   H     H_    0.305676 0.234244 0.922457 0.127285
H67   H     H_    0.194338 0.734249 0.077546 0.127281
H68   H     H_    0.805676 0.734244 0.922457 0.127285
H69   H     H_    0.784080 0.248783 0.092691 0.114046
H70   H     H_    0.215934 0.248805 0.907300 0.114043
H71   H     H_    0.284080 0.748783 0.092691 0.114046
H72   H     H_    0.715934 0.748805 0.907300 0.114043
H73   H     H_    0.807245 0.253059 0.973519 0.106322
H74   H     H_    0.192754 0.253064 0.026470 0.106325
H75   H     H_    0.307245 0.753059 0.973519 0.106322
H76   H     H_    0.692754 0.753064 0.026470 0.106325
H77   H     H_    0.718690 0.277647 0.958572 0.123720
H78   H     H_    0.281304 0.277662 0.041432 0.123724
H79   H     H_    0.218690 0.777648 0.958572 0.123720
H80   H     H_    0.781304 0.777662 0.041432 0.123724
H81   H     H_    0.642073 0.041608 0.055526 0.131251
H82   H     H_    0.357922 0.041564 0.944465 0.131252
H83   H     H_    0.142073 0.541608 0.055526 0.131251
H84   H     H_    0.857922 0.541564 0.944465 0.131252
H85   H     H_    0.697893 0.245523 0.555157 0.167398
H86   H     H_    0.302079 0.245548 0.444883 0.167413
H87   H     H_    0.197893 0.745523 0.555157 0.167398
H88   H     H_    0.802078 0.745548 0.444883 0.167413
H89   H     H_    0.650822 0.099717 0.937148 0.120485
H90   H     H_    0.349178 0.099722 0.062836 0.120487
H91   H     H_    0.150821 0.599717 0.937148 0.120485
H92   H     H_    0.849178 0.599723 0.062836 0.120487
H93   H     H_    0.035465 0.543987 0.059349 0.134145
H94   H     H_    0.964533 0.543990 0.940652 0.134144
H95   H     H_    0.535465 0.043987 0.059349 0.134145
H96   H     H_    0.464533 0.043990 0.940652 0.134144
H97   H     H_    0.948792 0.508550 0.060384 0.120575
H98   H     H_    0.051205 0.508545 0.939619 0.120574
H99   H     H_    0.448792 0.008550 0.060384 0.120575
H100  H     H_    0.551205 0.008545 0.939619 0.120574
H101  H     H_    0.609165 0.854683 0.026079 0.107751
H102  H     H_    0.390824 0.854688 0.973922 0.107743
H103  H     H_    0.109165 0.354683 0.026079 0.107751
H104  H     H_    0.890824 0.354688 0.973922 0.107743
H105  H     H_    0.594895 0.811617 0.909546 0.109734
H106  H     H_    0.405094 0.811630 0.090457 0.109735
H107  H     H_    0.094896 0.311617 0.909546 0.109734
H108  H     H_    0.905094 0.311630 0.090457 0.109735
H109  H     H_    0.957975 0.188209 0.069230 0.126555
H110  H     H_    0.042008 0.188201 0.930779 0.126557
H111  H     H_    0.457975 0.688209 0.069230 0.126555
H112  H     H_    0.542009 0.688201 0.930779 0.126557
H113  H     H_    0.917518 0.209529 0.953824 0.131949
H114  H     H_    0.082470 0.209527 0.046182 0.131947
H115  H     H_    0.417518 0.709529 0.953824 0.131949
H116  H     H_    0.582470 0.709527 0.046182 0.131947
H117  H     H_    0.652286 0.126469 0.583204 0.108332
H118  H     H_    0.347710 0.126553 0.416752 0.108379
H119  H     H_    0.152286 0.626468 0.583204 0.108332
H120  H     H_    0.847710 0.626553 0.416752 0.108379
H121  H     H_    0.719335 0.866774 0.477844 0.129316
H122  H     H_    0.280706 0.866695 0.522042 0.129496
H123  H     H_    0.219335 0.366774 0.477844 0.129316
H124  H     H_    0.780706 0.366695 0.522042 0.129496
H125  H     H_    0.701300 0.946844 0.591172 0.178971
H126  H     H_    0.298728 0.946933 0.408764 0.178993
H127  H     H_    0.201300 0.446844 0.591172 0.178971
H128  H     H_    0.798728 0.446933 0.408764 0.178993
H129  H     H_    0.852674 0.059669 0.422498 0.149226
H130  H     H_    0.147365 0.059551 0.577510 0.149274
H131  H     H_    0.352674 0.559669 0.422498 0.149226
H132  H     H_    0.647365 0.559551 0.577510 0.149274
H133  H     H_    0.841476 0.222289 0.533079 0.120130
H134  H     H_    0.158562 0.222286 0.467009 0.120196
H135  H     H_    0.341476 0.722289 0.533079 0.120130
H136  H     H_    0.658562 0.722286 0.467009 0.120196
O1    O     O_R   0.957210 0.449410 0.665480 -0.515712
O2    O     O_R   0.042790 0.449410 0.334520 -0.515673
O3    O     O_R   0.457210 0.949410 0.665480 -0.515712
O4    O     O_R   0.542790 0.949410 0.334520 -0.515673
O5    O     O_R   0.736260 0.212010 0.826560 -0.510413
O6    O     O_R   0.263740 0.212010 0.173440 -0.510401
O7    O     O_R   0.236260 0.712010 0.826560 -0.510413
O8    O     O_R   0.763740 0.712010 0.173440 -0.510401
O9    O     O_R   0.832520 0.095300 0.836000 -0.525048
O10   O     O_R   0.167480 0.095300 0.164000 -0.525043
O11   O     O_R   0.332520 0.595300 0.836000 -0.525048
O12   O     O_R   0.667480 0.595300 0.164000 -0.525043
O13   O     O_R   0.946380 0.253940 0.826940 -0.511860
O14   O     O_R   0.053620 0.253940 0.173060 -0.511865
O15   O     O_R   0.446380 0.753940 0.826940 -0.511860
O16   O     O_R   0.553620 0.753940 0.173060 -0.511865
O17   O     O_3   0.834560 0.334570 0.748840 -0.315697
O18   O     O_3   0.165440 0.334570 0.251160 -0.315642
O19   O     O_3   0.334560 0.834570 0.748840 -0.315697
O20   O     O_3   0.665440 0.834570 0.251160 -0.315642
O21   O     O_R   0.820730 0.541240 0.668250 -0.418712
O22   O     O_R   0.179270 0.541240 0.331750 -0.419012
O23   O     O_R   0.320730 0.041240 0.668250 -0.418712
O24   O     O_R   0.679270 0.041240 0.331750 -0.419012
O25   O     O_R   0.714240 0.455060 0.663710 -0.521208
O26   O     O_R   0.285760 0.455060 0.336290 -0.521409
O27   O     O_R   0.214240 0.955060 0.663710 -0.521208
O28   O     O_R   0.785760 0.955060 0.336290 -0.521409
O29   O     O_R   0.736780 0.204870 0.675910 -0.524072
O30   O     O_R   0.263220 0.204870 0.324090 -0.524010
O31   O     O_R   0.236780 0.704870 0.675910 -0.524072
O32   O     O_R   0.763220 0.704870 0.324090 -0.524010
O33   O     O_R   0.833070 0.087590 0.673490 -0.501335
O34   O     O_R   0.166930 0.087590 0.326510 -0.501338
O35   O     O_R   0.333070 0.587590 0.673490 -0.501335
O36   O     O_R   0.666930 0.587590 0.326510 -0.501338
O37   O     O_R   0.946890 0.246800 0.676300 -0.508729
O38   O     O_R   0.053110 0.246800 0.323700 -0.508727
O39   O     O_R   0.446890 0.746800 0.676300 -0.508729
O40   O     O_R   0.553110 0.746800 0.323700 -0.508727
O41   O     O_R   0.956650 0.457120 0.827980 -0.530749
O42   O     O_R   0.043350 0.457120 0.172020 -0.530741
O43   O     O_R   0.456650 0.957120 0.827980 -0.530749
O44   O     O_R   0.543350 0.957120 0.172020 -0.530741
O45   O     O_R   0.820220 0.548390 0.818890 -0.498779
O46   O     O_R   0.179780 0.548390 0.181110 -0.498802
O47   O     O_R   0.320220 0.048390 0.818890 -0.498779
O48   O     O_R   0.679780 0.048390 0.181110 -0.498802
O49   O     O_R   0.713680 0.462770 0.826210 -0.523776
O50   O     O_R   0.286320 0.462770 0.173790 -0.523803
O51   O     O_R   0.213680 0.962770 0.826210 -0.523776
O52   O     O_R   0.786320 0.962770 0.173790 -0.523803
Cl1   Cl    Cl    0.645625 0.230753 0.419819 -0.600393
Cl2   Cl    Cl    0.354393 0.230679 0.580186 -0.600231
Cl3   Cl    Cl    0.145625 0.730753 0.419819 -0.600393
Cl4   Cl    Cl    0.854393 0.730679 0.580186 -0.600231
Cl5   Cl    Cl    0.806235 0.229610 0.382215 -0.659496
Cl6   Cl    Cl    0.193816 0.229492 0.617807 -0.659135
Cl7   Cl    Cl    0.306235 0.729610 0.382215 -0.659496
Cl8   Cl    Cl    0.693816 0.729492 0.617807 -0.659135

loop_
_geom_bond_atom_site_label_1
_geom_bond_atom_site_label_2
_ccdc_geom_bond_type
C78   H94   S    
C82   C94   S    
C119  H11   S    
C10   C110  S    
C120  H12   S    
C41   C61   S    
C53   C69   S    
C104  O12   A    
C56   H60   S    
C43   C63   S    
Cr5   O5    S    
C44   C64   S    
C84   H115  S    
C114  H86   S    
C63   C98   S    
C51   H51   S    
C19   H127  S    
C31   H40   S    
C28   C40   S    
C72   H92   S    
C36   H36   S    
C30   C38   S    
Cr8   O28   S    
C79   H95   S    
C75   H75   S    
C56   C72   S    
C105  O13   A    
C21   H5    S    
C8    H132  S    
C18   C118  S    
C81   C86   S    
C108  O16   A    
C83   C88   S    
C87   H106  S    
C5    H129  S    
C90   O2    A    
C41   C49   S    
Cr8   O32   S    
Cr5   O17   S    
Cr2   O46   S    
C109  H1    S    
Cr7   O19   S    
Cr8   O20   S    
C18   H14   S    
C26   C38   S    
Cr10  O38   S    
C14   C114  S    
C60   C76   S    
C24   H8    S    
C55   H59   S    
C30   H37   S    
C88   H112  S    
C22   H134  S    
C54   C70   S    
C68   C72   S    
C75   H79   S    
C69   H61   S    
C13   C21   S    
C98   O46   A    
C102  O6    A    
C99   O51   A    
C79   H99   S    
C31   H25   S    
C64   C97   S    
C36   H29   S    
C15   C115  S    
C20   C120  S    
Cr7   O27   S    
C54   H82   S    
C5    Cl5   S    
C57   H65   S    
C59   C63   S    
C52   H52   S    
Cr7   O7    S    
Cr4   O24   S    
C72   H64   S    
C57   C61   S    
C82   C85   S    
C77   H97   S    
C60   C64   S    
Cr9   O17   S    
C13   C45   S    
C66   C70   S    
C78   C94   S    
C23   H135  S    
C69   H89   S    
C95   C108  S    
C60   H68   S    
C62   C99   S    
C5    C21   S    
C58   H70   S    
C31   C36   S    
C97   O49   A    
C48   O32   A    
C55   C71   S    
C76   H76   S    
Cr6   O26   S    
C91   O39   A    
Cr2   O22   S    
C65   C101  S    
Cr10  O18   S    
C111  H3    S    
C46   O34   A    
C67   C103  S    
C37   C90   S    
C41   H45   S    
C42   H46   S    
C55   H83   S    
C115  H119  S    
C66   C74   S    
C113  H117  S    
C25   H17   S    
C57   C73   S    
C6    Cl6   S    
C105  O41   A    
C53   C61   S    
C60   H72   S    
C83   H101  S    
C107  O43   A    
C55   C63   S    
Cr5   O49   S    
C56   C64   S    
C7    H131  S    
C2    O22   A    
C45   O33   A    
C116  H88   S    
C104  O8    A    
C76   H80   S    
Cr6   O6    S    
C50   H50   S    
C1    C12   S    
Cr9   O37   S    
C80   H100  S    
C2    C11   S    
Cr12  O12   S    
C112  H4    S    
C42   H42   S    
C15   C47   S    
C112  Cl4   S    
C25   C26   S    
C106  O14   A    
C110  Cl2   S    
C84   H102  S    
C5    C9    S    
C93   C106  S    
C71   H63   S    
C8    C12   S    
C6    H130  S    
C51   C67   S    
C42   C50   S    
C49   H49   S    
Cr6   O18   S    
Cr3   O47   S    
C110  H2    S    
C61   C100  S    
C67   C75   S    
C17   H125  S    
C50   H54   S    
Cr1   O1    S    
C112  C116  S    
C58   C74   S    
Cr3   O3    S    
C41   H41   S    
Cr4   O4    S    
C53   H81   S    
C54   H58   S    
C81   H114  S    
C33   H33   S    
C44   H44   S    
C68   C76   S    
C13   C17   S    
C98   O50   A    
C85   H108  S    
C14   C22   S    
C99   O47   A    
C103  O7    A    
C7    Cl7   S    
C20   H16   S    
C7    C23   S    
C8    C24   S    
C40   C91   S    
C117  H121  S    
C56   H84   S    
Cr7   O31   S    
C49   H53   S    
Cr1   O41   S    
C57   H69   S    
Cr9   O33   S    
Cr3   O43   S    
C52   H56   S    
C4    C9    S    
C53   H57   S    
C24   H136  S    
C86   H110  S    
C58   C62   S    
C88   C96   S    
C94   C105  S    
C77   H93   S    
C82   H104  S    
C12   C112  S    
C44   H48   S    
C14   C46   S    
C77   C78   S    
C15   C19   S    
C43   H47   S    
C101  O9    A    
C101  O5    A    
C92   O4    A    
C108  O44   A    
C6    C22   S    
C66   C102  S    
Cr11  O39   S    
C21   H133  S    
Cr7   O51   S    
Cr8   O52   S    
C103  O11   A    
Cr3   O23   S    
Cr11  O11   S    
C82   H113  S    
C17   C117  S    
C42   C62   S    
C19   C119  S    
Cr10  O34   S    
C9    C109  S    
C2    O26   A    
Cr12  O40   S    
C16   C116  S    
Cr11  O15   S    
C100  O48   A    
C27   H23   S    
C117  H9    S    
C25   H21   S    
C26   H18   S    
C106  O42   A    
C92   O40   A    
C118  H10   S    
C11   C111  S    
C29   C34   S    
C33   C37   S    
C45   O29   A    
C47   O31   A    
C4    O24   A    
C79   C95   S    
C89   O37   A    
Cr5   O29   S    
C70   H62   S    
C85   H109  S    
C86   H107  S    
Cr1   O17   S    
C80   H96   S    
Cr3   O19   S    
Cr4   O20   S    
Cr12  O16   S    
C32   H39   S    
C39   C92   S    
Cr11  O35   S    
C27   H19   S    
C107  O15   A    
C68   C104  S    
C111  Cl3   S    
C119  H123  S    
C17   H13   S    
C6    C10   S    
C1    O25   A    
C78   H98   S    
C54   C62   S    
C22   H6    S    
C43   C51   S    
C65   C69   S    
C77   C93   S    
C70   H90   S    
Cr4   O44   S    
C67   C71   S    
C19   H15   S    
C18   H126  S    
C51   H55   S    
Cr2   O2    S    
C3    O27   A    
C59   H71   S    
Cr12  O36   S    
C29   C37   S    
C34   H34   S    
C46   O30   A    
C30   H28   S    
C43   H43   S    
C9    C117  S    
C14   C18   S    
C35   C39   S    
C84   C87   S    
C3    O23   A    
C11   C119  S    
C16   C48   S    
C29   H27   S    
C7    C11   S    
C38   C89   S    
C49   C65   S    
C74   H78   S    
C89   O1    A    
C23   H7    S    
C91   O3    A    
Cr1   O45   S    
C114  H118  S    
Cr2   O42   S    
C65   C73   S    
C84   C96   S    
Cr4   O48   S    
Cr8   O8    S    
C118  H122  S    
C25   C37   S    
C12   C120  S    
C59   H67   S    
C83   H116  S    
C35   H35   S    
Cr9   O9    S    
C29   H38   S    
C80   C96   S    
C86   C94   S    
C52   C68   S    
C16   C20   S    
C15   C23   S    
C16   C24   S    
C97   O45   A    
C115  H87   S    
C85   C93   S    
C102  O10   A    
C113  H85   S    
C32   H26   S    
C35   H30   S    
C71   H91   S    
C1    O21   A    
C32   C35   S    
C36   C40   S    
C33   H32   S    
C34   H31   S    
C27   C39   S    
Cr6   O50   S    
C116  H120  S    
C73   H73   S    
C87   C95   S    
Cr10  O10   S    
C120  H124  S    
C109  Cl1   S    
C10   C118  S    
C81   C93   S    
C87   H111  S    
C83   C95   S    
C81   H103  S    
Cr9   O13   S    
C50   C66   S    
C100  O52   A    
C20   H128  S    
C28   H20   S    
C26   H22   S    
C59   C75   S    
C74   H74   S    
C110  C114  S    
C58   H66   S    
C30   C33   S    
C34   C38   S    
C96   C107  S    
C47   O35   A    
C4    O28   A    
C48   O36   A    
Cr5   O25   S    
C90   O38   A    
Cr6   O30   S    
C109  C113  S    
Cr1   O21   S    
Cr2   O18   S    
Cr10  O14   S    
C3    C10   S    
Cr11  O19   S    
C44   C52   S    
Cr12  O20   S    
C88   H105  S    
C31   C39   S    
C73   H77   S    
C32   C40   S    
C8    Cl8   S    
C79   C80   S    
C27   C28   S    
C28   H24   S    
C111  C115  S    
C13   C113  S    
