data_mof_unit_53328.cif
_audit_creation_date              2012-12-10T17:17:19-0500
_audit_creation_method            fapswitch 2.2
_symmetry_space_group_name_H-M    P1
_symmetry_Int_Tables_number       1
_space_group_crystal_system       triclinic
_cell_length_a                    27.844286
_cell_length_b                    13.154153
_cell_length_c                    11.762667
_cell_angle_alpha                 100.357492
_cell_angle_beta                  95.711497
_cell_angle_gamma                 91.082963
_cell_volume                      4214.06580691

loop_
_atom_site_label
_atom_site_type_symbol
_atom_type_description
_atom_site_fract_x
_atom_site_fract_y
_atom_site_fract_z
_atom_type_partial_charge
C1    C     C_R   0.500228 0.298967 0.478145 0.925512
C2    C     C_R   0.499502 0.700843 0.521798 0.923136
C3    C     C_R   0.100229 0.501892 0.478735 -0.183679
C4    C     C_R   0.898645 0.503834 0.485504 -0.183471
C5    C     C_R   0.122939 0.408041 0.444235 -0.153837
C6    C     C_R   0.872488 0.585844 0.450884 -0.153386
C7    C     C_R   0.095021 0.314165 0.418659 0.378767
C8    C     C_R   0.897691 0.670746 0.422438 0.381557
C9    C     C_R   0.127983 0.595205 0.512434 -0.154186
C10   C     C_R   0.874392 0.422271 0.522132 -0.153147
C11   C     C_R   0.354060 0.499215 0.492207 -0.176071
C12   C     C_R   0.645879 0.504507 0.501324 -0.147676
C13   C     C_R   0.974233 0.412949 0.495327 -0.059552
C14   C     C_R   0.025798 0.596887 0.491930 -0.060068
C15   C     C_R   0.974693 0.593077 0.468895 -0.060361
C16   C     C_R   0.022846 0.408359 0.468673 -0.059608
C17   C     C_R   0.949152 0.503291 0.483268 -0.067562
C18   C     C_R   0.049661 0.502395 0.479690 -0.067745
C19   C     C_R   0.950444 0.333333 0.537535 0.418805
C20   C     C_R   0.053651 0.690185 0.530857 0.418002
C21   C     C_R   0.900593 0.336586 0.547763 0.380052
C22   C     C_R   0.104353 0.689669 0.537940 0.380892
C23   C     C_R   0.407473 0.500147 0.498172 0.882605
C24   C     C_R   0.592566 0.502712 0.501308 0.874745
C25   C     C_R   0.045056 0.314697 0.427715 0.417693
C26   C     C_R   0.948393 0.672936 0.428293 0.417661
C27   C     C_R   0.499424 0.814621 0.534833 -0.213850
C28   C     C_R   0.500829 0.184974 0.465178 -0.201654
C29   C     C_R   0.493547 0.013082 0.346033 -0.194462
C30   C     C_R   0.507937 0.985746 0.654953 -0.198344
C31   C     C_R   0.496697 0.119635 0.353643 -0.118740
C32   C     C_R   0.501944 0.879343 0.646118 -0.098139
C33   C     C_R   0.504051 0.139376 0.566578 0.479552
C34   C     C_R   0.499423 0.860397 0.434345 0.427582
C35   C     C_R   0.504053 0.031332 0.555838 -0.012409
C36   C     C_R   0.498597 0.968209 0.445252 -0.008914
C37   C     C_R   0.442417 0.437063 0.020988 -0.174353
C38   C     C_R   0.556456 0.567149 0.980989 -0.157427
C39   C     C_R   0.450125 0.434407 0.141916 0.094487
C40   C     C_R   0.549502 0.565951 0.859130 0.108752
C41   C     C_R   0.525382 0.524867 0.157678 0.085965
C42   C     C_R   0.473791 0.478075 0.843279 0.059370
C43   C     C_R   0.520666 0.523248 0.035235 -0.026960
C44   C     C_R   0.478505 0.479654 0.966010 -0.029754
C45   C     C_R   0.172946 0.411694 0.434810 0.649185
C46   C     C_R   0.821695 0.578863 0.443606 0.651637
C47   C     C_R   0.178709 0.590312 0.522123 0.653873
C48   C     C_R   0.824674 0.430342 0.533895 0.650635
C49   C     C_R   0.276826 0.563272 0.420704 -0.043974
C50   C     C_R   0.717954 0.419866 0.432245 -0.038236
C51   C     C_R   0.327903 0.567391 0.430848 -0.129918
C52   C     C_R   0.667787 0.417224 0.441847 -0.127016
C53   C     C_R   0.329088 0.426879 0.542803 -0.106640
C54   C     C_R   0.674433 0.595137 0.551053 -0.173681
C55   C     C_R   0.278520 0.432519 0.545533 -0.031227
C56   C     C_R   0.725451 0.592307 0.554362 -0.035591
C57   C     C_R   0.252287 0.499037 0.482253 0.172459
C58   C     C_R   0.747027 0.505647 0.492695 0.182455
Cu1   Cu    Cu3+1 0.503580 0.507730 0.615930 1.050089
Cu2   Cu    Cu3+1 0.496420 0.492270 0.384070 1.045870
H1    H     H_    0.488938 0.964723 0.260457 0.218777
H2    H     H_    0.512541 0.033252 0.740916 0.214883
H3    H     H_    0.442231 0.442053 0.789407 0.143933
H4    H     H_    0.556185 0.562890 0.212685 0.150105
N1    N     N_R   0.200140 0.500422 0.479493 -0.452384
N2    N     N_R   0.798983 0.505189 0.490343 -0.454266
N3    N     N_R   0.508960 0.519350 0.790140 -0.228631
N4    N     N_R   0.491040 0.480650 0.209860 -0.226712
O1    O     O_R   0.502540 0.354460 0.582000 -0.545965
O2    O     O_R   0.497460 0.645540 0.418000 -0.544260
O3    O     O_R   0.496500 0.341410 0.386200 -0.548041
O4    O     O_R   0.503500 0.658590 0.613800 -0.553607
O5    O     O_R   0.433290 0.506540 0.597890 -0.581943
O6    O     O_R   0.566710 0.493460 0.402110 -0.585512
O7    O     O_R   0.427240 0.493490 0.402090 -0.593418
O8    O     O_R   0.572760 0.506510 0.597910 -0.575195
O9    O     O_2   0.194462 0.327663 0.381914 -0.456731
O10   O     O_2   0.795038 0.644604 0.390231 -0.457290
O11   O     O_2   0.801947 0.364117 0.587843 -0.455843
O12   O     O_2   0.206556 0.674189 0.573670 -0.455423
C59   C     C_2   0.355177 0.340052 0.583095 0.863533
O13   O     O_2   0.382608 0.290692 0.521123 -0.605274
O14   O     O_R   0.347035 0.311900 0.688683 -0.741761
H5    H     H_    0.363270 0.245926 0.701022 0.350326
C60   C     C_2   0.650940 0.694239 0.591293 0.916561
O15   O     O_2   0.667199 0.752547 0.680437 -0.520650
O16   O     O_R   0.610818 0.722492 0.524776 -0.795027
H6    H     H_    0.599639 0.793523 0.558098 0.337068
C61   C     C_2   0.495334 0.841654 0.755312 0.955576
O17   O     O_2   0.523604 0.870793 0.842081 -0.535059
O18   O     O_R   0.455132 0.778072 0.761016 -0.708390
H7    H     H_    0.454512 0.758026 0.840177 0.344296
C62   C     C_2   0.497845 0.155961 0.241419 0.957152
O19   O     O_2   0.467358 0.122582 0.160350 -0.530242
O20   O     O_R   0.535563 0.221643 0.225037 -0.718265
H8    H     H_    0.532397 0.239691 0.144430 0.349669
C63   C     C_2   0.588931 0.611607 0.809145 0.940778
O21   O     O_2   0.583227 0.691410 0.771205 -0.541149
O22   O     O_R   0.634109 0.566893 0.815135 -0.726445
H9    H     H_    0.660604 0.610002 0.791981 0.355591
C64   C     C_2   0.411620 0.384227 0.192870 0.939854
O23   O     O_2   0.419710 0.307527 0.235313 -0.539817
O24   O     O_R   0.365086 0.422480 0.187601 -0.721035
H10   H     H_    0.341682 0.381361 0.224154 0.350685
C65   C     C_2   0.395463 0.399679 0.954208 0.868523
O25   O     O_2   0.382250 0.308933 0.943082 -0.557662
O26   O     O_R   0.365766 0.470116 0.908258 -0.695168
H11   H     H_    0.333010 0.438377 0.872940 0.382433
C66   C     C_2   0.601677 0.613991 0.050905 0.826461
O27   O     O_2   0.613172 0.704465 0.052462 -0.551527
O28   O     O_R   0.631209 0.553802 0.113344 -0.712001
H12   H     H_    0.660716 0.594180 0.157698 0.362357
C67   C     C_2   0.252007 0.368153 0.612234 0.915987
O29   O     O_2   0.254454 0.273983 0.592537 -0.535266
O30   O     O_R   0.222579 0.415632 0.694332 -0.753106
H13   H     H_    0.205507 0.363972 0.732392 0.332597
C68   C     C_2   0.757234 0.679856 0.619770 0.913165
O31   O     O_2   0.752960 0.766641 0.597169 -0.533698
O32   O     O_R   0.793575 0.661430 0.703704 -0.749247
H14   H     H_    0.813696 0.726192 0.740436 0.331267
O33   O     O_3   0.115891 0.221093 0.381301 -0.518663
C69   C     C_3   0.126148 0.171986 0.477718 -0.136890
H15   H     H_    0.092475 0.150311 0.512651 0.169074
H16   H     H_    0.150595 0.221297 0.547611 0.154194
H17   H     H_    0.144944 0.099697 0.449057 0.189105
O34   O     O_3   0.873110 0.751170 0.385205 -0.514862
C70   C     C_3   0.871858 0.832264 0.481231 -0.142135
H18   H     H_    0.908736 0.865148 0.514734 0.166746
H19   H     H_    0.853901 0.806406 0.552160 0.152453
H20   H     H_    0.850476 0.895146 0.452649 0.190319
C71   C     C_2   0.637944 0.323215 0.388288 0.943517
O35   O     O_2   0.635476 0.291991 0.283412 -0.510546
O36   O     O_R   0.613813 0.269262 0.458882 -0.740572
H21   H     H_    0.597710 0.202323 0.414023 0.343953
C72   C     C_2   0.354128 0.642513 0.376718 0.951437
O37   O     O_2   0.346315 0.642208 0.272483 -0.507590
O38   O     O_R   0.387524 0.713994 0.445709 -0.747323
H22   H     H_    0.402082 0.762642 0.399595 0.352883
C73   C     C_2   0.740736 0.333248 0.359342 0.911688
O39   O     O_2   0.731690 0.243608 0.367336 -0.544540
O40   O     O_R   0.773434 0.354872 0.283231 -0.746309
H23   H     H_    0.787182 0.290065 0.239927 0.336603
C74   C     C_2   0.248365 0.626338 0.346845 0.921096
O41   O     O_2   0.258634 0.718288 0.354362 -0.541234
O42   O     O_R   0.208983 0.580542 0.270570 -0.752010
H24   H     H_    0.191926 0.631370 0.226585 0.332971
O43   O     O_3   0.878214 0.256421 0.586580 -0.518031
C75   C     C_3   0.865682 0.176056 0.490667 -0.143361
H25   H     H_    0.898322 0.142795 0.453071 0.165539
H26   H     H_    0.841023 0.202871 0.422475 0.154624
H27   H     H_    0.846215 0.113188 0.520828 0.191763
O44   O     O_3   0.130455 0.782355 0.573903 -0.515088
C76   C     C_3   0.133769 0.829860 0.476407 -0.143090
H28   H     H_    0.097613 0.851112 0.440432 0.164619
H29   H     H_    0.151657 0.779559 0.407581 0.151148
H30   H     H_    0.156256 0.902269 0.504169 0.193151
O45   O     O_3   0.975680 0.254094 0.575635 -0.522707
C77   C     C_3   0.996504 0.289845 0.690497 -0.252456
H31   H     H_    0.968382 0.314027 0.749832 0.174284
H32   H     H_    0.023440 0.354389 0.694926 0.138850
H33   H     H_    0.015843 0.225536 0.721741 0.189639
O46   O     O_3   0.032239 0.782428 0.569043 -0.522199
C78   C     C_3   0.022825 0.785896 0.685237 -0.248775
H34   H     H_    0.056709 0.781445 0.742697 0.178209
H35   H     H_    0.996440 0.723419 0.692639 0.135593
H36   H     H_    0.006610 0.860842 0.716455 0.188469
O47   O     O_3   0.018213 0.223145 0.389827 -0.522989
C79   C     C_3   0.997896 0.221197 0.274735 -0.247810
H37   H     H_    0.026398 0.225884 0.215659 0.173232
H38   H     H_    0.972116 0.284259 0.269783 0.139481
H39   H     H_    0.977344 0.146691 0.243581 0.190629
O48   O     O_3   0.971289 0.751322 0.387480 -0.521861
C80   C     C_3   0.980159 0.714506 0.271584 -0.248145
H40   H     H_    0.945919 0.690433 0.214910 0.177936
H41   H     H_    0.005386 0.649596 0.265666 0.136392
H42   H     H_    0.997528 0.778166 0.238188 0.187904
O49   O     O_3   0.495998 0.800006 0.324077 -0.572037
C81   C     C_3   0.542422 0.792427 0.285093 -0.227513
H43   H     H_    0.538196 0.758863 0.191085 0.198668
H44   H     H_    0.564695 0.739972 0.330463 0.200170
H45   H     H_    0.561954 0.868678 0.295471 0.167800
O50   O     O_3   0.511846 0.199833 0.676769 -0.551345
C82   C     C_3   0.467545 0.211883 0.725954 -0.237961
H46   H     H_    0.445782 0.268969 0.687704 0.186471
H47   H     H_    0.475303 0.242176 0.820435 0.195573
H48   H     H_    0.445739 0.138403 0.715642 0.156592

loop_
_geom_bond_atom_site_label_1
_geom_bond_atom_site_label_2
_ccdc_geom_bond_type
C30   C32   A    
O16   H6    S    
O45   C77   S    
O36   H21   S    
C33   O50   S    
O20   H8    S    
C8    C26   A    
C39   N4    A    
C14   C18   A    
C35   C36   A    
C75   H27   S    
O43   C75   S    
C82   H46   S    
O42   H24   S    
C72   O37   D    
C60   O15   D    
C25   O47   S    
C65   O26   S    
C29   C36   A    
C1    O3    A    
C30   C35   A    
C21   O43   S    
C48   O11   S    
C78   H35   S    
C75   H26   S    
C46   N2    A    
C10   C48   A    
C68   O32   S    
C9    C22   A    
C74   O41   D    
C63   O21   D    
C49   C57   A    
C42   H3    S    
C3    C18   A    
C53   C59   S    
C56   C68   S    
C11   C23   S    
O50   C82   S    
C77   H33   S    
C63   O22   S    
C51   C72   S    
C58   N2    S    
C79   H39   S    
C78   H34   S    
C49   C51   A    
C40   N3    A    
C1    C28   S    
C50   C52   A    
O26   H11   S    
C2    C27   S    
C76   H29   S    
Cu1   O5    S    
C11   C53   A    
Cu1   O4    S    
Cu1   N3    S    
C60   O16   S    
C49   C74   S    
C26   O48   S    
Cu1   Cu2   S    
C64   O24   S    
C72   O38   S    
C77   H32   S    
C41   C43   A    
C27   C34   A    
O40   H23   S    
C42   C44   A    
C47   O12   S    
C23   O5    A    
C2    O4    A    
C59   O14   S    
C39   C64   S    
C41   N4    A    
C22   O44   S    
C53   C55   A    
C10   C21   A    
C29   H1    S    
C13   C19   A    
C19   O45   S    
C64   O23   D    
C81   H43   S    
C78   H36   S    
C75   H25   S    
C4    C6    A    
C82   H48   S    
C57   N1    S    
O18   H7    S    
C5    C7    A    
C50   C73   S    
C24   O8    A    
C15   C26   A    
C6    C8    A    
C55   C67   S    
Cu2   O3    S    
C3    C5    A    
C80   H40   S    
C5    C45   A    
C1    O1    A    
C76   H30   S    
C50   C58   A    
C43   C44   A    
C70   H19   S    
C37   C65   S    
C3    C9    A    
C14   C20   A    
C82   H47   S    
C7    O33   S    
O14   H5    S    
Cu2   O2    S    
O32   H14   S    
C20   O46   S    
C59   O13   D    
C62   O19   D    
C38   C66   S    
O33   C69   S    
C80   H41   S    
Cu1   O1    S    
C4    C17   A    
C8    O34   S    
C79   H37   S    
C20   C22   A    
C28   C33   A    
C9    C47   A    
C55   C57   A    
C32   C61   S    
C45   N1    A    
C42   N3    A    
C61   O18   S    
C4    C10   A    
C71   O35   D    
C61   O17   D    
O47   C79   S    
O48   C80   S    
C46   O10   S    
C67   O29   D    
O38   H22   S    
C80   H42   S    
C16   C25   A    
C74   O42   S    
C6    C46   A    
O28   H12   S    
C19   C21   A    
C27   C32   A    
C29   C31   A    
C52   C71   S    
C28   C31   A    
C23   O7    A    
C71   O36   S    
C54   C60   S    
C81   H44   S    
C73   O39   D    
C54   C56   A    
C15   C17   A    
O46   C78   S    
C65   O25   D    
C12   C24   S    
Cu2   O7    S    
C7    C25   A    
O22   H9    S    
C13   C17   A    
C79   H38   S    
C16   C18   A    
C69   H17   S    
C30   H2    S    
C12   C52   A    
C70   H20   S    
C38   C43   A    
C37   C39   A    
C31   C62   S    
C68   O31   D    
C38   C40   A    
C73   O40   S    
C24   O6    A    
O30   H13   S    
C77   H31   S    
C37   C44   A    
O34   C70   S    
C66   O28   S    
Cu2   O6    S    
C33   C35   A    
C56   C58   A    
C34   C36   A    
C81   H45   S    
C11   C51   A    
C40   C63   S    
O44   C76   S    
Cu2   N4    S    
C62   O20   S    
O49   C81   S    
C13   C16   A    
C66   O27   D    
O24   H10   S    
C69   H15   S    
C14   C15   A    
C34   O49   S    
C45   O9    S    
C41   H4    S    
C48   N2    A    
C76   H28   S    
C2    O2    A    
C69   H16   S    
Cu1   O8    S    
C47   N1    A    
C12   C54   A    
C70   H18   S    
C67   O30   S    
