data_mof_unit_25458.cif
_audit_creation_date              2012-12-10T18:07:31-0500
_audit_creation_method            fapswitch 2.2
_symmetry_space_group_name_H-M    P1
_symmetry_Int_Tables_number       1
_space_group_crystal_system       triclinic
_cell_length_a                    11.53776
_cell_length_b                    12.773729
_cell_length_c                    13.318297
_cell_angle_alpha                 83.210023
_cell_angle_beta                  93.778715
_cell_angle_gamma                 102.011343
_cell_volume                      1904.68975066

loop_
_atom_site_label
_atom_site_type_symbol
_atom_type_description
_atom_site_fract_x
_atom_site_fract_y
_atom_site_fract_z
_atom_type_partial_charge
C1    C     C_R   0.492278 0.440051 0.690454 0.872473
C2    C     C_R   0.537042 0.590110 0.202907 -0.100586
C3    C     C_R   0.417592 0.299920 0.826519 -0.356261
C4    C     C_R   0.384029 0.270074 0.926011 0.407844
C5    C     C_R   0.417472 0.344657 0.997937 0.401989
C6    C     C_R   0.496975 0.445501 0.971646 -0.047244
C7    C     C_R   0.537129 0.468821 0.872209 -0.009404
C8    C     C_R   0.535371 0.526855 0.038156 0.101799
C9    C     C_R   0.599646 0.630233 0.002031 0.155007
C10   C     C_R   0.649201 0.644570 0.908033 -0.224561
C11   C     C_R   0.625196 0.560856 0.847620 -0.123213
C12   C     C_R   0.717597 0.500984 0.500667 0.873757
C13   C     C_R   0.518530 0.507184 0.140808 -0.169754
C14   C     C_R   0.585437 0.695484 0.163609 -0.191682
C15   C     C_R   0.486985 0.401265 0.798266 -0.149753
C16   C     C_R   0.340095 0.094468 0.338689 -0.383238
C17   C     C_R   0.651241 0.802008 0.622428 0.552084
C18   C     C_R   0.692558 0.908464 0.642215 -0.482575
C19   C     C_R   0.646140 0.991555 0.587438 0.502014
C20   C     C_R   0.543639 0.965873 0.522547 -0.158541
C21   C     C_R   0.506214 0.856303 0.501073 0.005013
C22   C     C_R   0.481678 0.045210 0.472896 0.044323
C23   C     C_R   0.515713 0.559169 0.309857 0.877485
C24   C     C_R   0.398799 0.018727 0.392213 0.057231
C25   C     C_R   0.371542 0.916010 0.365848 -0.336814
C26   C     C_R   0.419376 0.834320 0.420186 0.493399
C27   C     C_R   0.495092 0.149843 0.500794 -0.128366
C28   C     C_R   0.360211 0.197261 0.367917 0.635626
C29   C     C_R   0.282389 0.498883 0.499576 0.915430
C30   C     C_1   0.838836 0.502771 0.500991 -0.169456
C31   C     C_1   0.940876 0.501369 0.500532 -0.014132
C32   C     C_1   0.059064 0.498333 0.499616 -0.011470
C33   C     C_1   0.161124 0.497019 0.499202 -0.200116
C34   C     C_R   0.621339 0.714716 0.063925 -0.200434
H1    H     H_    0.603030 0.760562 0.211279 0.167553
H2    H     H_    0.307958 0.897840 0.303351 0.149214
H3    H     H_    0.278782 0.073926 0.275410 0.158205
H4    H     H_    0.546013 0.176325 0.566935 0.217078
H5    H     H_    0.766208 0.927634 0.696163 0.156639
H6    H     H_    0.709538 0.718693 0.883024 0.145781
H7    H     H_    0.667734 0.794503 0.035841 0.142789
H8    H     H_    0.501880 0.425700 0.175216 0.238934
H9    H     H_    0.382334 0.246187 0.769754 0.178998
H10   H     H_    0.674327 0.567946 0.780414 0.205308
N1    N     N_R   0.440320 0.222190 0.444690 -0.163871
N2    N     N_R   0.559060 0.776980 0.554780 -0.113977
O1    O     O_R   0.471500 0.366730 0.627160 -0.629918
O2    O     O_R   0.509620 0.544830 0.662520 -0.576630
O3    O     O_R   0.646490 0.410960 0.482310 -0.627031
O4    O     O_R   0.684610 0.589050 0.517670 -0.562207
O5    O     O_R   0.490380 0.455170 0.337480 -0.582749
O6    O     O_R   0.528500 0.633270 0.372840 -0.563359
O7    O     O_R   0.315390 0.410950 0.482330 -0.608768
O8    O     O_R   0.353510 0.589040 0.517690 -0.539280
Zn1   Zn    Zn3+2 0.474550 0.381080 0.476390 0.974105
Zn2   Zn    Zn3+2 0.525450 0.618920 0.523610 1.033453
O9    O     O_3   0.709693 0.722629 0.663289 -0.756695
H11   H     H_    0.779688 0.754338 0.705078 0.300231
O10   O     O_3   0.703826 0.097510 0.594501 -0.640935
C35   C     C_3   0.819957 0.118109 0.557301 0.125792
H12   H     H_    0.872651 0.058037 0.590774 0.090461
H13   H     H_    0.868695 0.196150 0.581696 0.167173
C36   C     C_3   0.819280 0.125172 0.441232 -0.413478
H14   H     H_    0.910159 0.124713 0.418739 0.177358
H15   H     H_    0.759099 0.053831 0.413347 0.219408
C37   C     C_3   0.783140 0.227746 0.390543 -0.786712
H16   H     H_    0.771611 0.224215 0.307569 0.240691
H17   H     H_    0.852583 0.299033 0.405885 0.243306
H18   H     H_    0.698244 0.236923 0.418515 0.298553
O11   O     O_3   0.382011 0.733929 0.390587 -0.716505
H19   H     H_    0.320502 0.732009 0.334708 0.308648
O12   O     O_3   0.364689 0.322824 0.089916 -0.789648
H20   H     H_    0.343399 0.243941 0.107677 0.375607
O13   O     O_3   0.309618 0.172293 0.952795 -0.791872
H21   H     H_    0.294617 0.129778 0.893906 0.335130
O14   O     O_3   0.307447 0.276839 0.315916 -0.596525
C38   C     C_3   0.181820 0.248490 0.317435 0.058434
H22   H     H_    0.151019 0.308197 0.357891 0.178399
H23   H     H_    0.145947 0.167657 0.357854 0.095906
C39   C     C_3   0.129505 0.254744 0.208811 -0.298987
H24   H     H_    0.166938 0.334565 0.168278 0.276514
H25   H     H_    0.152969 0.190718 0.169265 0.229260
C40   C     C_3   0.995036 0.240459 0.205297 -0.985775
H26   H     H_    0.954477 0.159875 0.242293 0.268848
H27   H     H_    0.961196 0.246989 0.125278 0.278249
H28   H     H_    0.969192 0.304356 0.243418 0.271023

loop_
_geom_bond_atom_site_label_1
_geom_bond_atom_site_label_2
_ccdc_geom_bond_type
C16   C28   A    
C37   H17   S    
C21   C26   A    
C36   H15   S    
C8    C13   A    
C19   C20   A    
C12   O3    A    
O9    H11   S    
C38   H22   S    
C7    C11   A    
C3    H9    S    
C35   C36   S    
C10   H6    S    
C5    O12   S    
C5    C6    A    
C37   H18   S    
C29   O8    A    
C27   H4    S    
C29   C33   S    
C35   H13   S    
C18   C19   A    
C2    C13   A    
C31   C32   S    
C8    C9    A    
O11   H19   S    
C1    C15   S    
C9    C10   A    
C4    O13   S    
C16   H3    S    
C27   N1    A    
C38   H23   S    
C37   H16   S    
C36   C37   S    
O10   C35   S    
C16   C24   A    
C34   H7    S    
C39   C40   S    
C13   H8    S    
O14   C38   S    
O7    Zn1   S    
O8    Zn2   S    
C28   N1    A    
O13   H21   S    
C24   C25   A    
C39   H25   S    
C14   H1    S    
O12   H20   S    
C6    C8    A    
C19   O10   S    
C25   C26   A    
O3    Zn1   S    
O4    Zn2   S    
C35   H12   S    
C18   H5    S    
C23   O5    A    
C40   H26   S    
C17   C18   A    
C11   H10   S    
C17   N2    A    
C40   H27   S    
C20   C22   A    
C22   C27   A    
C9    C34   A    
C26   O11   S    
C22   C24   A    
C3    C4    A    
C28   O14   S    
C3    C15   A    
O1    Zn1   S    
C21   N2    A    
C38   C39   S    
O2    Zn2   S    
C12   C30   S    
C1    O1    A    
C39   H24   S    
C14   C34   A    
C12   O4    A    
C1    O2    A    
C6    C7    A    
C32   C33   T    
C23   O6    A    
C30   C31   T    
C29   O7    A    
C7    C15   A    
O5    Zn1   S    
C2    C14   A    
C10   C11   A    
C25   H2    S    
C36   H14   S    
C4    C5    A    
C40   H28   S    
C20   C21   A    
N1    Zn1   S    
N2    Zn2   S    
C2    C23   S    
O6    Zn2   S    
C17   O9    S    
