data_mof_unit_47479.cif
_audit_creation_date              2012-12-10T16:43:25-0500
_audit_creation_method            fapswitch 2.2
_symmetry_space_group_name_H-M    P1
_symmetry_Int_Tables_number       1
_space_group_crystal_system       triclinic
_cell_length_a                    10.728634
_cell_length_b                    8.763498
_cell_length_c                    7.538542
_cell_angle_alpha                 102.735069
_cell_angle_beta                  94.801465
_cell_angle_gamma                 93.131104
_cell_volume                      686.964687803

loop_
_atom_site_label
_atom_site_type_symbol
_atom_type_description
_atom_site_fract_x
_atom_site_fract_y
_atom_site_fract_z
_atom_type_partial_charge
C1    C     C_R   0.492283 0.200216 0.455054 0.868004
C2    C     C_R   0.072012 0.651040 0.528600 0.056695
C3    C     C_R   0.129009 0.507252 0.502386 -0.056255
C4    C     C_R   0.056848 0.364731 0.467584 -0.166295
C5    C     C_R   0.927766 0.362956 0.464176 -0.176082
C6    C     C_R   0.870342 0.503932 0.498381 -0.024187
C7    C     C_2   0.491450 0.033079 0.435438 -0.483274
C8    C     C_2   0.477210 0.962539 0.575091 0.239131
C9    C     C_R   0.262932 0.501376 0.501157 0.756598
C10   C     C_R   0.497368 0.798681 0.546738 0.744620
C11   C     C_R   0.736561 0.496622 0.498486 0.772679
C12   C     C_R   0.141661 0.795520 0.546462 -0.099289
C13   C     C_R   0.082329 0.935384 0.572381 -0.090762
C14   C     C_R   0.954028 0.934588 0.586807 -0.143842
C15   C     C_R   0.883359 0.793027 0.567765 -0.048396
C16   C     C_R   0.940771 0.649486 0.532711 0.108547
Cu1   Cu    Cu3+1 0.513920 0.517380 0.684380 1.127495
Cu2   Cu    Cu3+1 0.486080 0.482620 0.315620 1.089737
H1    H     H_    0.100804 0.254799 0.440698 0.135188
H2    H     H_    0.241317 0.800712 0.536698 0.135370
H3    H     H_    0.135573 0.044848 0.580722 0.179986
H4    H     H_    0.908860 0.043692 0.610581 0.146586
H5    H     H_    0.783627 0.797015 0.578242 0.149921
H6    H     H_    0.872355 0.251630 0.435945 0.135961
H7    H     H_    0.511935 0.966202 0.302963 0.195374
H8    H     H_    0.381778 0.413284 0.962754 0.241842
N1    N     N_2   0.465100 0.456430 0.038520 -0.134679
N2    N     N_2   0.534900 0.543570 0.961480 0.073267
O1    O     O_R   0.509050 0.286130 0.619770 -0.516249
O2    O     O_R   0.485540 0.256780 0.308360 -0.563574
O3    O     O_R   0.331410 0.514680 0.655740 -0.582958
O4    O     O_R   0.307900 0.485330 0.344330 -0.598632
O5    O     O_R   0.514460 0.743220 0.691640 -0.525122
O6    O     O_R   0.490950 0.713870 0.380230 -0.574203
O7    O     O_R   0.692100 0.514670 0.655670 -0.526340
O8    O     O_R   0.668590 0.485320 0.344260 -0.498571
S1    S     S_3+6 0.681968 0.635212 0.053305 0.176166
O9    O     O_2   0.684496 0.738146 0.240378 -0.337066
O10   O     O_2   0.775460 0.513562 0.053625 -0.232218
O11   O     O_3   0.731068 0.754442 0.922172 -0.503538
H9    H     H_    0.691248 0.853836 0.963570 0.364378
S2    S     S_3+6 0.426671 0.052610 0.791574 -0.015026
O12   O     O_2   0.537802 0.141687 0.911852 -0.271572
O13   O     O_2   0.327219 0.161810 0.765813 -0.365684
O14   O     O_3   0.366194 0.917950 0.895360 -0.532089
H10   H     H_    0.342812 0.979027 0.013227 0.368362

loop_
_geom_bond_atom_site_label_1
_geom_bond_atom_site_label_2
_ccdc_geom_bond_type
C4    H1    S    
S2    O13   D    
S1    O9    D    
C3    C9    S    
C13   C14   A    
S1    O11   S    
Cu1   O1    S    
C7    H7    S    
C2    C12   A    
C12   H2    S    
C11   O7    A    
C2    C3    A    
C13   H3    S    
C7    C8    D    
S1    O10   D    
O14   H10   S    
C1    O2    A    
Cu2   O6    S    
C14   H4    S    
H8    N1    S    
C5    H6    S    
Cu1   O5    S    
N2    S1    S    
Cu2   O2    S    
C15   H5    S    
O11   H9    S    
C8    S2    S    
Cu1   Cu2   S    
C10   O5    A    
C5    C6    A    
Cu1   O3    S    
Cu2   O4    S    
S2    O12   D    
C1    O1    A    
C6    C16   A    
C3    C4    A    
N1    N2    D    
C2    C16   A    
C12   C13   A    
C10   O6    A    
C6    C11   S    
C9    O3    A    
C14   C15   A    
C11   O8    A    
Cu1   O7    S    
C9    O4    A    
C1    C7    S    
Cu1   N2    S    
Cu2   O8    S    
C8    C10   S    
Cu2   N1    S    
C15   C16   A    
C4    C5    A    
S2    O14   S    
