data_mof_unit_36450.cif
_audit_creation_date              2012-12-11T16:24:24-0500
_audit_creation_method            fapswitch 2.2
_symmetry_space_group_name_H-M    P1
_symmetry_Int_Tables_number       1
_space_group_crystal_system       triclinic
_cell_length_a                    14.750569
_cell_length_b                    14.742444
_cell_length_c                    33.298941
_cell_angle_alpha                 96.192631
_cell_angle_beta                  96.612581
_cell_angle_gamma                 61.194101
_cell_volume                      6291.4898575

loop_
_atom_site_label
_atom_site_type_symbol
_atom_type_description
_atom_site_fract_x
_atom_site_fract_y
_atom_site_fract_z
_atom_type_partial_charge
C1    C     C_R   0.390827 0.699113 0.445653 0.584333
C2    C     C_1   0.299547 0.331383 0.230856 0.051200
C3    C     C_1   0.305457 0.335623 0.267200 0.051957
C4    C     C_R   0.405245 0.385939 0.434167 0.544205
C5    C     C_R   0.290556 0.291214 0.102856 0.002886
C6    C     C_R   0.757448 0.370715 0.410618 0.001367
C7    C     C_R   0.826078 0.404443 0.400001 0.078281
C8    C     C_R   0.856722 0.384041 0.359682 0.265998
C9    C     C_R   0.821918 0.326563 0.331530 0.057748
C10   C     C_R   0.763801 0.284297 0.344108 -0.164262
C11   C     C_R   0.731342 0.306717 0.382964 -0.156453
C12   C     C_R   0.319134 0.338990 0.310484 0.049741
C13   C     C_R   0.845240 0.311566 0.206818 0.341290
C14   C     C_R   0.836893 0.317718 0.288034 0.382481
C15   C     C_R   0.858796 0.386847 0.145918 -0.116733
C16   C     C_R   0.701938 0.409183 0.447932 0.562208
C17   C     C_R   0.884671 0.375385 0.106254 -0.137795
C18   C     C_R   0.893929 0.205299 0.098460 0.081091
C19   C     C_R   0.867887 0.217815 0.138495 -0.086485
C20   C     C_R   0.855248 0.306105 0.163027 0.010386
C21   C     C_R   0.908732 0.282460 0.082674 0.017901
C22   C     C_R   0.371542 0.748843 0.406810 0.030667
C23   C     C_R   0.404454 0.257823 0.330123 0.100142
C24   C     C_R   0.298574 0.741037 0.376685 0.216272
C25   C     C_R   0.296506 0.765572 0.336611 0.239297
C26   C     C_R   0.371827 0.789148 0.326229 0.018001
C27   C     C_R   0.436778 0.806328 0.356355 -0.152424
C28   C     C_R   0.393323 0.702511 0.561090 0.586051
C29   C     C_R   0.436011 0.788355 0.396598 0.034778
C30   C     C_R   0.371811 0.814752 0.203173 0.350459
C31   C     C_R   0.381866 0.794544 0.283473 0.386130
C32   C     C_R   0.272916 0.821332 0.135658 0.088735
C33   C     C_R   0.249882 0.851440 0.095206 0.250590
C34   C     C_R   0.427873 0.270350 0.371473 -0.097328
C35   C     C_R   0.382822 0.906121 0.104620 -0.183249
C36   C     C_R   0.409086 0.871786 0.143505 -0.154121
C37   C     C_R   0.352775 0.832734 0.159838 0.007381
C38   C     C_R   0.300233 0.900943 0.080850 0.040941
C39   C     C_R   0.373052 0.368750 0.585230 0.019730
C40   C     C_R   0.407658 0.388738 0.549024 0.547849
C41   C     C_R   0.286143 0.447678 0.603896 -0.118521
C42   C     C_R   0.267990 0.438392 0.643039 -0.110031
C43   C     C_R   0.336566 0.350126 0.664071 0.030772
C44   C     C_R   0.418012 0.267533 0.644005 -0.102853
C45   C     C_R   0.368268 0.228967 0.169317 -0.131579
C46   C     C_R   0.435986 0.276670 0.604905 -0.108062
C47   C     C_R   0.321842 0.347088 0.788589 0.351267
C48   C     C_R   0.329005 0.347428 0.707584 0.348935
C49   C     C_R   0.222218 0.406510 0.850458 -0.108237
C50   C     C_R   0.208323 0.388543 0.889382 0.239190
C51   C     C_R   0.385051 0.246196 0.892615 -0.172974
C52   C     C_R   0.703720 0.411890 0.562307 0.568142
C53   C     C_R   0.397644 0.264626 0.854134 -0.133462
C54   C     C_R   0.314756 0.341487 0.831939 0.001598
C55   C     C_R   0.289104 0.303777 0.909776 0.061308
C56   C     C_R   0.364823 0.213285 0.127517 -0.147018
C57   C     C_R   0.759721 0.375942 0.602291 0.005250
C58   C     C_R   0.780189 0.445665 0.628884 -0.137072
C59   C     C_R   0.803822 0.429480 0.670015 -0.140338
C60   C     C_R   0.807296 0.343449 0.685397 0.023117
C61   C     C_R   0.796286 0.267615 0.659106 0.127632
C62   C     C_R   0.777122 0.281169 0.617046 0.102624
C63   C     C_R   0.884922 0.218500 0.822228 -0.123370
C64   C     C_R   0.366881 0.363502 0.393469 -0.001340
C65   C     C_R   0.914764 0.203782 0.863346 -0.134101
C66   C     C_R   0.863066 0.386837 0.875368 -0.086387
C67   C     C_R   0.224677 0.390216 0.121096 0.093918
C68   C     C_R   0.832966 0.401842 0.834262 0.099096
C69   C     C_R   0.847060 0.316608 0.807414 0.046879
C70   C     C_1   0.831223 0.326940 0.764478 0.047642
C71   C     C_1   0.820351 0.334859 0.728460 0.047212
C72   C     C_R   0.907661 0.287184 0.890043 -0.001846
C73   C     C_R   0.377069 0.757327 0.601884 0.034792
C74   C     C_R   0.276172 0.827988 0.613996 0.057376
C75   C     C_R   0.261420 0.859862 0.655397 0.113843
C76   C     C_R   0.276780 0.440530 0.374175 -0.121731
C77   C     C_R   0.347179 0.822973 0.683976 -0.015107
C78   C     C_R   0.226926 0.404733 0.163837 0.122668
C79   C     C_R   0.446831 0.761763 0.671539 -0.133258
C80   C     C_R   0.463168 0.728727 0.630787 0.214871
C81   C     C_R   0.386346 0.893721 0.831025 -0.098724
C82   C     C_R   0.370799 0.917779 0.872217 -0.117094
C83   C     C_R   0.223865 0.884143 0.862764 -0.120822
C84   C     C_R   0.239602 0.860174 0.821619 -0.101467
C85   C     C_R   0.318966 0.867784 0.805565 0.039727
C86   C     C_1   0.328052 0.853731 0.762712 0.013106
C87   C     C_1   0.335439 0.841710 0.726739 0.030938
C88   C     C_R   0.253550 0.428601 0.332786 -0.112911
C89   C     C_R   0.297593 0.322518 0.187536 0.020307
C90   C     C_R   0.287224 0.916528 0.888246 0.020300
C91   C     C_R   0.963419 0.264188 0.045650 0.548953
C92   C     C_R   0.273028 0.259806 0.060109 0.556863
C93   C     C_R   0.259758 0.959289 0.043801 0.578496
C94   C     C_R   0.962019 0.267923 0.930793 0.540589
C95   C     C_R   0.270491 0.264300 0.945254 0.571460
C96   C     C_R   0.255598 0.965341 0.928884 0.541897
Cr1   Cr    Cr6+3 0.576280 0.580550 0.506370 1.125470
Cr2   Cr    Cr6+3 0.346780 0.572400 0.496520 1.091220
Cr3   Cr    Cr6+3 0.576960 0.347070 0.497150 1.077700
Cr4   Cr    Cr6+3 0.087320 0.083240 0.984860 1.088476
Cr5   Cr    Cr6+3 0.087720 0.316210 0.996740 1.107235
Cr6   Cr    Cr6+3 0.317350 0.090340 0.995890 1.027258
H1    H     H_    0.416926 0.137167 0.114697 0.149026
H2    H     H_    0.470451 0.880664 0.161717 0.154295
H3    H     H_    0.235904 0.519344 0.589353 0.152369
H4    H     H_    0.503043 0.214070 0.591150 0.166310
H5    H     H_    0.203762 0.502806 0.657557 0.151460
H6    H     H_    0.471077 0.197647 0.659157 0.158558
H7    H     H_    0.158578 0.467788 0.833880 0.135358
H8    H     H_    0.448983 0.182197 0.907873 0.147896
H9    H     H_    0.470916 0.214849 0.841014 0.154065
H10   H     H_    0.949410 0.126042 0.873678 0.141331
H11   H     H_    0.895855 0.152356 0.801687 0.147408
H12   H     H_    0.680032 0.278656 0.390486 0.160071
H13   H     H_    0.772488 0.516081 0.618276 0.169362
H14   H     H_    0.856413 0.452361 0.895412 0.166233
H15   H     H_    0.497041 0.209370 0.385781 0.163003
H16   H     H_    0.814620 0.486890 0.690170 0.146981
H17   H     H_    0.420648 0.942837 0.890959 0.138204
H18   H     H_    0.448414 0.899149 0.818787 0.132221
H19   H     H_    0.512208 0.735872 0.694027 0.125724
H20   H     H_    0.187515 0.839485 0.802083 0.136885
H21   H     H_    0.158770 0.882554 0.874124 0.140616
H22   H     H_    0.227574 0.512450 0.390506 0.167834
H23   H     H_    0.892287 0.437521 0.095055 0.166466
H24   H     H_    0.187339 0.491382 0.317836 0.152107
H25   H     H_    0.921727 0.473402 0.365815 0.356088
H26   H     H_    0.219499 0.666553 0.362029 0.326205
H27   H     H_    0.168069 0.780613 0.078732 0.359354
H28   H     H_    0.157607 0.786195 0.319855 0.348634
H29   H     H_    0.067304 0.503684 0.888279 0.329548
H30   H     H_    0.612881 0.654992 0.642771 0.316251
H31   H     H_    0.737021 0.239449 0.323022 0.167366
H32   H     H_    0.846525 0.457280 0.163714 0.163399
H33   H     H_    0.861726 0.156176 0.150858 0.170477
H34   H     H_    0.423870 0.166107 0.187586 0.158055
H35   H     H_    0.490689 0.830534 0.348343 0.177014
H36   H     H_    0.424037 0.942026 0.094052 0.147909
I1    I     I_    0.911158 0.065845 0.066150 -0.233508
I2    I     I_    0.121679 0.547378 0.193592 -0.223384
I3    I     I_    0.125949 0.519146 0.085135 -0.238176
I4    I     I_    0.890480 0.476180 0.445432 -0.269847
I5    I     I_    0.536282 0.822422 0.439176 -0.248574
I6    I     I_    0.171355 0.781487 0.161702 -0.168568
I7    I     I_    0.505336 0.118309 0.298355 -0.327732
I8    I     I_    0.800745 0.137580 0.684227 -0.270303
I9    I     I_    0.782197 0.154444 0.577171 -0.195158
I10   I     I_    0.773957 0.553148 0.814046 -0.393134
I11   I     I_    0.147014 0.890982 0.569945 -0.194912
I12   I     I_    0.110920 0.961192 0.675947 -0.250717
N1    N     N_R   0.847251 0.390697 0.231138 -0.212294
N2    N     N_R   0.382739 0.877679 0.270049 -0.194857
N3    N     N_R   0.377740 0.887568 0.230464 -0.201443
N4    N     N_R   0.243883 0.422940 0.766783 -0.219507
N5    N     N_R   0.247708 0.423474 0.727081 -0.219610
N6    N     N_R   0.406868 0.271783 0.729418 -0.215271
N7    N     N_R   0.403185 0.271417 0.769069 -0.218779
N8    N     N_R   0.842612 0.394004 0.270917 -0.135307
N9    N     N_R   0.834783 0.238528 0.263740 -0.217149
N10   N     N_R   0.839612 0.235118 0.223926 -0.209229
N11   N     N_R   0.376405 0.729258 0.216772 -0.174068
N12   N     N_R   0.380788 0.719626 0.256237 -0.141170
O1    O     O_R   0.679450 0.499830 0.463150 -0.469098
O2    O     O_R   0.340240 0.172500 0.045430 -0.519362
O3    O     O_R   0.309670 0.000990 0.032050 -0.523745
O4    O     O_R   0.480650 0.664000 0.464630 -0.488862
O5    O     O_R   0.168330 0.982130 0.939200 -0.513953
O6    O     O_R   0.000140 0.178170 0.944610 -0.503872
O7    O     O_R   0.983010 0.336750 0.948660 -0.488759
O8    O     O_R   0.181800 0.312190 0.959860 -0.423919
O9    O     O_R   0.338500 0.175680 0.956950 -0.534361
O10   O     O_R   0.308050 0.003930 0.950020 -0.502992
O11   O     O_3   0.164130 0.163270 0.992500 -0.271222
O12   O     O_R   0.356040 0.477400 0.534170 -0.502264
O13   O     O_R   0.323930 0.675950 0.455370 -0.434940
O14   O     O_R   0.354700 0.475360 0.451930 -0.489144
O15   O     O_R   0.494470 0.320860 0.448390 -0.513997
O16   O     O_R   0.662580 0.357570 0.460050 -0.504071
O17   O     O_R   0.680900 0.502040 0.551870 -0.471949
O18   O     O_R   0.481990 0.666040 0.546870 -0.432791
O19   O     O_R   0.325370 0.678160 0.544080 -0.499974
O20   O     O_3   0.920714 0.417655 0.346803 -0.653862
O21   O     O_3   0.234514 0.703588 0.386309 -0.672768
O22   O     O_3   0.175606 0.838306 0.069826 -0.637054
O23   O     O_R   0.495910 0.323070 0.537100 -0.496457
O24   O     O_3   0.222286 0.766699 0.306941 -0.652043
O25   O     O_3   0.115211 0.449231 0.906791 -0.662351
O26   O     O_3   0.562392 0.664023 0.619153 -0.670100
O27   O     O_R   0.663920 0.359620 0.542290 -0.476155
O28   O     O_3   0.500010 0.500010 0.500010 -0.281581
O29   O     O_R   0.170070 0.978950 0.027680 -0.419747
O30   O     O_R   0.001760 0.175230 0.026640 -0.468879
O31   O     O_R   0.984760 0.333570 0.037150 -0.512088
O32   O     O_R   0.183410 0.309240 0.041890 -0.470095

loop_
_geom_bond_atom_site_label_1
_geom_bond_atom_site_label_2
_ccdc_geom_bond_type
C66   C68   A    
C63   C65   A    
Cr2   O13   S    
C22   C29   A    
C27   C29   A    
C18   C21   A    
C41   C42   A    
C5    C56   A    
Cr5   O11   S    
C35   C36   A    
C28   O18   A    
C10   H31   S    
Cr3   O23   S    
C4    O15   A    
Cr2   O28   S    
C17   H23   S    
H30   O26   S    
C81   C82   A    
C7    C8    A    
C39   C41   A    
C15   H32   S    
C53   C54   A    
Cr6   O11   S    
C23   I7    S    
C12   C23   A    
C26   C27   A    
C27   H35   S    
C41   H3    S    
C14   N8    A    
Cr4   O5    S    
N6    N7    A    
Cr3   O15   S    
C92   O32   A    
C94   O7    A    
C47   N7    A    
Cr2   O12   S    
Cr1   O17   S    
C50   O25   S    
C75   I12   S    
C19   H33   S    
Cr1   O4    S    
C29   I5    S    
Cr2   O14   S    
C18   C19   A    
C73   C74   A    
C11   H12   S    
C88   H24   S    
C3    C12   S    
C30   N3    A    
C66   C72   A    
C63   C69   A    
C45   C56   A    
Cr5   O31   S    
C8    C9    A    
Cr1   O1    S    
C74   I11   S    
Cr5   O7    S    
C70   C71   T    
C45   C89   A    
C9    C10   A    
C76   C88   A    
C13   N10   A    
C1    C22   S    
C61   C62   A    
C68   I10   S    
C5    C67   A    
C72   C94   S    
C92   O2    A    
C34   H15   S    
C93   O29   A    
C48   N6    A    
C31   N12   A    
C93   O3    A    
C59   C60   A    
C16   O1    A    
C24   O21   S    
N9    N10   A    
Cr4   O30   S    
C67   C78   A    
C82   H17   S    
C28   C73   S    
C16   O16   A    
N11   N12   A    
C44   H6    S    
C78   C89   A    
Cr6   O10   S    
C15   C20   A    
C74   C75   A    
C12   C88   A    
C25   O24   S    
C76   H22   S    
N1    N8    A    
C57   C62   A    
C35   C38   A    
C77   C79   A    
C84   C85   A    
C13   N1    A    
Cr3   O16   S    
C55   C95   S    
C10   C11   A    
C94   O6    A    
C39   C40   S    
Cr3   O27   S    
C86   C87   T    
C68   C69   A    
Cr1   O18   S    
C40   O23   A    
C44   C46   A    
C60   C71   S    
C25   C26   A    
C85   C86   S    
C17   C21   A    
C30   C37   S    
C60   C61   A    
C51   C53   A    
C2    C89   S    
C9    C14   S    
C65   H10   S    
C79   H19   S    
C83   C84   A    
C81   H18   S    
C23   C34   A    
C33   O22   S    
C34   C64   A    
C64   C76   A    
C96   O5    A    
Cr5   O8    S    
C32   C37   A    
C24   C25   A    
C75   C77   A    
H26   O21   S    
N4    N5    A    
C66   H14   S    
C47   C54   S    
C18   I1    S    
Cr6   O2    S    
Cr1   O28   S    
C48   N5    A    
C59   H16   S    
C62   I9    S    
C39   C46   A    
C43   C44   A    
C96   O10   A    
C58   H13   S    
C42   H5    S    
C22   C24   A    
Cr4   O29   S    
C42   C43   A    
C67   I3    S    
C6    C11   A    
Cr5   O32   S    
C49   H7    S    
C21   C91   S    
C8    O20   S    
Cr6   O9    S    
C15   C17   A    
C83   C90   A    
C1    O13   A    
C45   H34   S    
C13   C20   S    
H27   O22   S    
C50   C55   A    
C56   H1    S    
C78   I2    S    
Cr3   O28   S    
H28   O24   S    
C90   C96   S    
C6    C7    A    
C47   N4    A    
C51   H8    S    
C65   C72   A    
C91   O30   A    
C4    C64   S    
C33   C38   A    
C82   C90   A    
C36   H2    S    
C14   N9    A    
Cr4   O6    S    
C43   C48   S    
C32   C33   A    
C19   C20   A    
C2    C3    T    
C58   C59   A    
C52   O17   A    
C35   H36   S    
C40   O12   A    
C31   N2    A    
C53   H9    S    
C57   C58   A    
C95   O9    A    
C1    O4    A    
Cr2   O19   S    
C28   O19   A    
C91   O31   A    
C46   H4    S    
C38   C93   S    
Cr6   O3    S    
C73   C80   A    
C51   C55   A    
C52   O27   A    
C69   C70   S    
C95   O8    A    
C32   I6    S    
C5    C92   S    
C52   C57   S    
C6    C16   S    
C79   C80   A    
C63   H11   S    
C26   C31   S    
N2    N3    A    
C77   C87   S    
C36   C37   A    
C49   C50   A    
C4    O14   A    
Cr4   O11   S    
H25   O20   S    
C61   I8    S    
C30   N11   A    
C83   H21   S    
C84   H20   S    
C7    I4    S    
C81   C85   A    
C49   C54   A    
C80   O26   S    
H29   O25   S    
