data_mof_unit_26725.cif
_audit_creation_date              2012-12-10T17:17:25-0500
_audit_creation_method            fapswitch 2.2
_symmetry_space_group_name_H-M    P1
_symmetry_Int_Tables_number       1
_space_group_crystal_system       triclinic
_cell_length_a                    10.183223
_cell_length_b                    10.842772
_cell_length_c                    12.385143
_cell_angle_alpha                 90.664725
_cell_angle_beta                  108.885707
_cell_angle_gamma                 96.11092
_cell_volume                      1284.98506087

loop_
_atom_site_label
_atom_site_type_symbol
_atom_type_description
_atom_site_fract_x
_atom_site_fract_y
_atom_site_fract_z
_atom_type_partial_charge
C1    C     C_R   0.050497 0.732229 0.490030 0.955490
C2    C     C_R   0.436215 0.534630 0.981800 -0.022661
C3    C     C_R   0.337768 0.476985 0.880784 0.024027
C4    C     C_R   0.570669 0.492993 0.017998 0.092060
C5    C     C_R   0.610510 0.410986 0.946879 0.164171
C6    C     C_R   0.510369 0.354074 0.849809 -0.240536
C7    C     C_R   0.373632 0.379677 0.822422 -0.166239
C8    C     C_R   0.660730 0.518680 0.128289 -0.202506
C9    C     C_R   0.838581 0.412091 0.089168 -0.194306
C10   C     C_R   0.207342 0.521827 0.835994 -0.120202
C11   C     C_2   0.074242 0.863538 0.475643 -0.382711
C12   C     C_R   0.132796 0.507404 0.713709 0.878740
C13   C     C_2   0.972281 0.932083 0.473801 -0.148860
C14   C     C_2   0.911069 0.134735 0.499407 -0.387684
C15   C     C_2   0.993985 0.063860 0.469177 -0.146316
C16   C     C_2   0.432364 0.511509 0.509123 -0.135539
C17   C     C_2   0.567454 0.489089 0.490262 -0.145275
C18   C     C_R   0.946438 0.267431 0.504733 0.940888
C19   C     C_R   0.866228 0.488654 0.286543 0.874925
C20   C     C_R   0.746791 0.377247 0.980110 -0.197555
C21   C     C_R   0.791498 0.476902 0.165032 -0.083824
C22   C     C_R   0.164243 0.605187 0.900671 -0.254339
C23   C     C_R   0.258047 0.660583 0.000988 -0.250157
C24   C     C_R   0.396873 0.632445 0.040211 0.469893
H1    H     H_    0.940581 0.379373 0.117020 0.158275
H2    H     H_    0.873665 0.892030 0.482175 0.190983
H3    H     H_    0.820960 0.095140 0.521491 0.148961
H4    H     H_    0.172906 0.904106 0.467817 0.146072
H5    H     H_    0.565401 0.416428 0.428556 0.165205
H6    H     H_    0.434306 0.584599 0.570404 0.172456
H7    H     H_    0.684115 0.621735 0.602884 0.164209
H8    H     H_    0.315951 0.377969 0.397395 0.155992
H9    H     H_    0.535927 0.284407 0.798764 0.147551
H10   H     H_    0.779045 0.317712 0.924780 0.140672
H11   H     H_    0.623753 0.558454 0.190971 0.203065
H12   H     H_    0.063051 0.638900 0.867269 0.182541
H13   H     H_    0.225064 0.734993 0.041148 0.145254
H14   H     H_    0.296450 0.324382 0.752680 0.164975
H15   H     H_    0.084175 0.103015 0.446846 0.187314
N1    N     N_2   0.313640 0.446500 0.454900 -0.198112
N2    N     N_2   0.686360 0.553430 0.545150 -0.194009
O1    O     O_R   0.936910 0.692950 0.509080 -0.616376
O2    O     O_R   0.138320 0.658600 0.480130 -0.609707
O3    O     O_R   0.002900 0.525670 0.675280 -0.608807
O4    O     O_R   0.204310 0.491320 0.646330 -0.606205
O5    O     O_R   0.861680 0.341400 0.519870 -0.607517
O6    O     O_R   0.063090 0.307050 0.490920 -0.617046
O7    O     O_R   0.795690 0.508680 0.353670 -0.629566
O8    O     O_R   0.997100 0.474330 0.324720 -0.612825
Zn1   Zn    Zn3+2 0.865520 0.522940 0.519330 0.926206
Zn2   Zn    Zn3+2 0.134480 0.477060 0.480670 0.929762
O9    O     O_3   0.497903 0.714328 0.119245 -0.619876
C25   C     C_3   0.463080 0.731617 0.219890 0.065692
H16   H     H_    0.423533 0.642043 0.248247 0.134216
H17   H     H_    0.383921 0.797884 0.206614 0.151652
C26   C     C_3   0.592650 0.787862 0.315621 -0.812178
H18   H     H_    0.632994 0.878817 0.291220 0.258283
H19   H     H_    0.566182 0.802169 0.394747 0.198714
H20   H     H_    0.675554 0.725125 0.333280 0.272689

loop_
_geom_bond_atom_site_label_1
_geom_bond_atom_site_label_2
_ccdc_geom_bond_type
N2    Zn1   S    
C24   O9    S    
C2    C4    A    
C23   C24   A    
C6    H9    S    
C6    C7    A    
C14   H3    S    
N1    Zn2   S    
C17   H5    S    
O5    Zn1   S    
C9    C20   A    
C1    C11   S    
C26   H20   S    
O1    Zn1   S    
C4    C8    A    
C20   H10   S    
C18   O6    A    
O7    Zn1   S    
C2    C3    A    
C9    H1    S    
C12   O3    A    
C3    C10   A    
C23   H13   S    
C25   H16   S    
C10   C22   A    
C11   C13   D    
C15   H15   S    
C16   C17   S    
C10   C12   S    
C11   H4    S    
O2    Zn2   S    
C18   O5    A    
C19   C21   S    
C7    H14   S    
C16   N1    D    
C8    C21   A    
C3    C7    A    
C25   H17   S    
C13   C15   S    
C2    C24   A    
C5    C6    A    
C17   N2    D    
C13   H2    S    
O4    Zn2   S    
C16   H6    S    
C9    C21   A    
C1    O1    A    
H8    N1    S    
C22   H12   S    
C26   H18   S    
C25   C26   S    
O3    Zn1   S    
C5    C20   A    
C14   C18   S    
C22   C23   A    
C4    C5    A    
O6    Zn2   S    
H7    N2    S    
C14   C15   D    
C26   H19   S    
C19   O8    A    
C1    O2    A    
C19   O7    A    
O9    C25   S    
C12   O4    A    
O8    Zn2   S    
C8    H11   S    
