data_mof_unit_43973.cif
_audit_creation_date              2012-10-26T18:43:28-0400
_audit_creation_method            fapswitch 2.2
_symmetry_space_group_name_H-M    P1
_symmetry_Int_Tables_number       1
_space_group_crystal_system       triclinic
_cell_length_a                    10.760979
_cell_length_b                    10.809779
_cell_length_c                    9.540607
_cell_angle_alpha                 90.0138
_cell_angle_beta                  90.260149
_cell_angle_gamma                 90.888156
_cell_volume                      1109.65488097

loop_
_atom_site_label
_atom_site_type_symbol
_atom_type_description
_atom_site_fract_x
_atom_site_fract_y
_atom_site_fract_z
_atom_type_partial_charge
C1    C     C_R   0.497083 0.262245 0.499909 0.543308
C2    C     C_R   0.475523 0.936138 0.625306 0.026343
C3    C     C_3   0.556703 0.930526 0.752629 -0.258870
C4    C     C_R   0.259937 0.498823 0.499892 0.533536
C5    C     C_3   0.557748 0.071026 0.752368 -0.265659
C6    C     C_R   0.561460 0.591244 0.074143 0.156087
C7    C     C_R   0.429673 0.417214 0.074064 -0.014970
C8    C     C_R   0.429657 0.417207 0.925118 -0.016629
C9    C     C_R   0.561735 0.591025 0.926632 0.155296
C10   C     C_3   0.697792 0.618491 0.922568 -0.276781
C11   C     C_3   0.697130 0.620080 0.081301 -0.274225
C12   C     C_3   0.878842 0.506293 0.501012 0.026761
C13   C     C_R   0.493837 0.737394 0.499934 0.607279
C14   C     C_R   0.740377 0.503312 0.500347 0.596429
C15   C     C_3   0.072734 0.513121 0.651996 -0.224662
C16   C     C_3   0.930494 0.509903 0.653081 -0.220401
C17   C     C_3   0.076932 0.611423 0.411413 -0.186271
C18   C     C_3   0.068289 0.379941 0.435395 -0.254705
C19   C     C_3   0.122342 0.500657 0.499825 0.003594
C20   C     C_3   0.933373 0.619536 0.416937 0.157607
C21   C     C_3   0.924994 0.385306 0.431238 -0.281387
C22   C     C_R   0.476638 0.063413 0.625129 0.016959
C23   C     C_R   0.482824 0.128997 0.499343 0.012353
C24   C     C_R   0.468915 0.063954 0.372403 -0.148046
C25   C     C_R   0.467601 0.934973 0.372521 -0.135737
C26   C     C_R   0.480224 0.870320 0.499561 0.041876
Cu1   Cu    Cu3+1 0.499990 0.499980 0.640670 0.951292
Cu2   Cu    Cu3+1 0.500010 0.500020 0.359330 0.949691
H1    H     H_    0.107118 0.601404 0.699362 0.175832
H2    H     H_    0.650793 0.112605 0.730181 0.146791
H3    H     H_    0.374672 0.348679 0.129674 0.109569
H4    H     H_    0.107290 0.436193 0.718531 0.121444
H5    H     H_    0.374638 0.348676 0.868921 0.112000
H6    H     H_    0.751106 0.539918 0.880271 0.141952
H7    H     H_    0.719538 0.710181 0.875370 0.141178
H8    H     H_    0.751682 0.543613 0.127388 0.143442
H9    H     H_    0.716724 0.713165 0.126573 0.158733
H10   H     H_    0.897754 0.426647 0.711826 0.105962
H11   H     H_    0.896451 0.592282 0.709694 0.189631
H12   H     H_    0.892795 0.380542 0.320286 0.123081
H13   H     H_    0.123285 0.697972 0.449275 0.182338
H14   H     H_    0.104156 0.366696 0.327258 0.130050
H15   H     H_    0.097714 0.299017 0.498855 0.132757
H16   H     H_    0.885248 0.302979 0.486157 0.134661
H17   H     H_    0.941017 0.886393 0.658803 0.363480
H18   H     H_    0.105880 0.599925 0.300322 0.097726
H19   H     H_    0.897391 0.614176 0.307688 0.101941
H20   H     H_    0.465521 0.111987 0.272866 0.129534
H21   H     H_    0.463490 0.886709 0.273056 0.133503
H22   H     H_    0.507265 0.889737 0.844088 0.132412
H23   H     H_    0.649306 0.890929 0.730949 0.181429
H24   H     H_    0.508663 0.111299 0.843527 0.132501
N1    N     N_R   0.500800 0.500930 0.147930 -0.232864
N2    N     N_R   0.500800 0.500890 0.852020 -0.233443
O1    O     O_R   0.500000 0.319640 0.618810 -0.509719
O2    O     O_2   0.755357 0.771256 0.518386 -0.316022
O3    O     O_3   0.974232 0.806265 0.626893 -0.573747
O4    O     O_R   0.500010 0.319680 0.381230 -0.514711
O5    O     O_R   0.317690 0.499960 0.618790 -0.514689
O6    O     O_R   0.317700 0.500000 0.381210 -0.515077
O7    O     O_R   0.499990 0.680320 0.618770 -0.486007
O8    O     O_R   0.500000 0.680360 0.381190 -0.494655
O9    O     O_R   0.682300 0.500000 0.618790 -0.498667
O10   O     O_R   0.682310 0.500040 0.381210 -0.505851
O11   O     O_2   0.916463 0.864594 0.371398 -0.293098
S1    S     S_3+6 0.890646 0.769586 0.482936 -0.053463

loop_
_geom_bond_atom_site_label_1
_geom_bond_atom_site_label_2
_ccdc_geom_bond_type
C2    C22   A    
Cu2   N1    S    
C5    H24   S    
C1    C23   S    
C10   H7    S    
Cu2   O4    S    
C21   H16   S    
Cu1   O7    S    
C9    C10   S    
O3    S1    S    
C23   C24   A    
C14   O10   A    
C4    O6    A    
C6    C9    A    
C18   H14   S    
C2    C3    S    
C1    O1    A    
Cu1   N2    S    
C15   H4    S    
C10   H6    S    
Cu1   O5    S    
C1    O4    A    
C24   C25   A    
C15   C19   S    
C12   C20   S    
C21   H12   S    
Cu1   O9    S    
O2    S1    D    
C14   O9    A    
Cu2   O10   S    
C4    O5    A    
C20   S1    S    
C11   H8    S    
C17   C19   S    
C3    H22   S    
C12   C14   S    
C15   H1    S    
C13   O8    A    
Cu1   O1    S    
C8    H5    S    
Cu2   O6    S    
Cu2   O8    S    
H17   O3    S    
C25   H21   S    
C13   C26   S    
C20   H19   S    
C7    H3    S    
C10   C11   S    
C7    N1    A    
C6    N1    A    
C15   C16   S    
C18   C21   S    
C7    C8    A    
C17   C20   S    
C13   O7    A    
C17   H18   S    
C2    C26   A    
O11   S1    D    
C5    H2    S    
C8    N2    A    
C6    C11   S    
C11   H9    S    
C3    H23   S    
C22   C23   A    
C18   C19   S    
C9    N2    A    
C16   H11   S    
C17   H13   S    
C3    C5    S    
C25   C26   A    
C18   H15   S    
C4    C19   S    
C12   C21   S    
C5    C22   S    
C12   C16   S    
C16   H10   S    
Cu1   Cu2   S    
C24   H20   S    
