data_mof_unit_47306.cif
_audit_creation_date              2013-03-05T16:12:07-0500
_audit_creation_method            fapswitch 2.2
_symmetry_space_group_name_H-M    P1
_symmetry_Int_Tables_number       1
_space_group_crystal_system       triclinic
_cell_length_a                    11.215784
_cell_length_b                    9.837642
_cell_length_c                    27.65322
_cell_angle_alpha                 92.541041
_cell_angle_beta                  91.98702
_cell_angle_gamma                 89.198169
_cell_volume                      3046.09956814

loop_
_atom_site_label
_atom_site_type_symbol
_atom_site_description
_atom_site_fract_x
_atom_site_fract_y
_atom_site_fract_z
_atom_type_partial_charge
O1    O     O_R   0.317570 0.620260 0.500030 -0.509841
O2    O     O_R   0.317570 0.379740 0.500030 -0.544492
C1    C     C_R   0.259499 0.500573 0.497276 0.842424
O3    O     O_R   0.499900 0.620250 0.430280 -0.560510
O4    O     O_R   0.499900 0.379750 0.430280 -0.501956
C2    C     C_R   0.493389 0.498665 0.407955 0.852842
Cu1   Cu    Cu3+1 0.499860 0.642410 0.500020 1.101392
Cu2   Cu    Cu3+1 0.499860 0.357590 0.500020 1.128275
O5    O     O_R   0.682190 0.620260 0.500010 -0.517227
O6    O     O_R   0.682190 0.379740 0.500010 -0.519968
O7    O     O_R   0.499860 0.620280 0.569750 -0.502289
O8    O     O_R   0.499860 0.379720 0.569750 -0.520404
C3    C     C_R   0.736580 0.498708 0.492753 0.923093
C4    C     C_R   0.497128 0.502716 0.592109 0.932405
C5    C     C_R   0.357708 0.567734 0.175407 0.589765
O9    O     O_2   0.252015 0.551940 0.196158 -0.467655
N1    N     N_R   0.460657 0.564563 0.203382 -0.475924
C6    C     C_R   0.569582 0.577349 0.183285 0.601080
C7    C     C_R   0.530292 0.435835 0.273224 -0.109148
C8    C     C_R   0.541002 0.420745 0.322856 -0.104435
C9    C     C_R   0.394542 0.599631 0.335677 -0.161797
C10   C     C_R   0.387687 0.619513 0.285867 -0.019398
C11   C     C_R   0.457025 0.538513 0.254270 0.270477
C12   C     C_R   0.474836 0.578565 0.103445 -0.145879
C13   C     C_R   0.362299 0.582978 0.124933 -0.040204
C14   C     C_R   0.258520 0.601889 0.095421 0.166929
C15   C     C_R   0.580258 0.569120 0.132684 -0.138190
C16   C     C_R   0.473291 0.501443 0.354830 -0.044464
H1    H     H_    0.342149 0.665106 0.359531 0.190518
H2    H     H_    0.331591 0.700656 0.272217 0.188092
C17   C     C_R   0.500117 0.509934 0.645684 -0.151124
C18   C     C_R   0.390021 0.535131 0.973097 0.008506
C19   C     C_R   0.599835 0.598966 0.980251 -0.024346
C20   C     C_R   0.499469 0.558381 0.951257 0.070194
C21   C     C_R   0.299717 0.468043 0.945612 -0.276052
C22   C     C_R   0.309143 0.438185 0.896097 0.404760
C23   C     C_R   0.414122 0.476584 0.872684 -0.111341
C24   C     C_R   0.507900 0.540902 0.900544 -0.125020
C25   C     C_R   0.610009 0.587157 0.877742 -0.188438
C26   C     C_R   0.603574 0.591637 0.826658 0.615052
N2    N     N_R   0.518190 0.520170 0.800260 -0.463817
C27   C     C_R   0.431184 0.452978 0.822711 0.597863
C28   C     C_R   0.406970 0.550606 0.723168 -0.098751
C29   C     C_R   0.397533 0.541230 0.672674 0.377230
C30   C     C_R   0.609068 0.486243 0.670816 -0.176871
C31   C     C_R   0.615847 0.489058 0.721341 -0.058936
C32   C     C_R   0.514524 0.521258 0.747974 0.216733
O10   O     O_2   0.363314 0.363221 0.796406 -0.423738
C33   C     C_R   0.377213 0.571031 0.022939 0.019690
C34   C     C_R   0.481978 0.579955 0.052526 0.065990
C35   C     C_R   0.594319 0.585300 0.031108 0.003002
C36   C     C_R   0.265323 0.596638 0.044610 0.065968
H3    H     H_    0.328562 0.575575 0.743715 0.221307
H4    H     H_    0.222636 0.432992 0.963318 0.180886
O11   O     O_2   0.666313 0.601850 0.212509 -0.421399
C37   C     C_R   0.690990 0.547133 0.110064 0.449968
H5    H     H_    0.611634 0.356259 0.335759 0.259467
H6    H     H_    0.585395 0.372990 0.249582 0.199212
C38   C     C_R   0.701540 0.648289 0.957461 0.055806
C39   C     C_R   0.709799 0.635002 0.906631 0.373440
O12   O     O_2   0.676574 0.672725 0.803579 -0.423431
C40   C     C_R   0.696694 0.560069 0.060106 -0.274224
H7    H     H_    0.689801 0.464998 0.651687 0.200748
H8    H     H_    0.699960 0.465409 0.739678 0.195861
H9    H     H_    0.780074 0.536368 0.043339 0.199070
C41   C     C_3   0.058523 0.644775 0.506117 0.259710
C42   C     C_3   0.063442 0.394871 0.526012 0.223650
H10   H     H_    0.081598 0.662758 0.545213 0.166463
H11   H     H_    0.099827 0.420664 0.562883 0.175678
C43   C     C_3   0.920774 0.641416 0.502245 -0.443044
C44   C     C_3   0.927150 0.411807 0.528141 -0.434540
H12   H     H_    0.887294 0.676751 0.537982 0.218129
H13   H     H_    0.905128 0.458413 0.564315 0.169682
H14   H     H_    0.880704 0.713534 0.477104 0.302546
H15   H     H_    0.881724 0.314693 0.527479 0.312993
H16   H     H_    0.105645 0.544158 0.416234 0.220759
H17   H     H_    0.118881 0.372989 0.425206 0.241031
C45   C     C_3   0.072610 0.464625 0.439493 -0.416438
C46   C     C_3   0.118572 0.501200 0.491830 -0.217844
C47   C     C_3   0.874432 0.498858 0.487412 -0.194698
C48   C     C_3   0.930851 0.453473 0.434903 0.619900
C49   C     C_3   0.619540 0.082788 0.520801 0.276009
C50   C     C_3   0.615692 0.916666 0.524491 0.243835
H18   H     H_    0.683360 0.099324 0.492730 0.174876
H19   H     H_    0.690210 0.881830 0.502157 0.157226
C51   C     C_3   0.413532 0.087675 0.535892 -0.061867
C52   C     C_3   0.400161 0.923929 0.528048 -0.031155
C53   C     C_3   0.458758 0.065343 0.452966 0.222580
C54   C     C_3   0.492552 0.909533 0.450795 0.110499
N3    N     N_3   0.500250 0.143650 0.501060 -0.286346
N4    N     N_3   0.500250 0.856350 0.501060 -0.301124
H20   H     H_    0.359989 0.063154 0.453240 0.137278
H21   H     H_    0.417625 0.855606 0.431279 0.180024
H22   H     H_    0.327852 0.130049 0.525847 0.248277
H23   H     H_    0.324498 0.912624 0.502916 0.236832
S1    S     S_3+6 0.819693 0.479755 0.140227 0.053867
O13   O     O_2   0.888391 0.593900 0.165447 -0.200361
O14   O     O_2   0.783878 0.380389 0.176722 -0.237044
O15   O     O_3   0.907208 0.397794 0.099905 -0.573921
H24   H     H_    0.967909 0.349107 0.119719 0.387091
N5    N     N_3   0.785739 0.735195 0.983810 -0.507258
H25   H     H_    0.744026 0.791446 0.011540 0.239674
H26   H     H_    0.856272 0.677730 0.998111 0.252076
S2    S     S_3+6 0.851311 0.663752 0.881087 0.128098
O16   O     O_2   0.851786 0.804946 0.862475 -0.154926
O17   O     O_2   0.952152 0.650626 0.917875 -0.251829
O18   O     O_3   0.875941 0.550379 0.835034 -0.415798
H27   H     H_    0.863507 0.460322 0.848576 0.361904
S3    S     S_3+6 0.103820 0.797755 0.478423 0.023190
O19   O     O_2   0.139389 0.889401 0.520758 -0.298444
O20   O     O_2   0.204261 0.773980 0.444387 -0.346544
O21   O     O_3   0.994892 0.882562 0.448834 -0.438474
H28   H     H_    0.035759 0.932282 0.423993 0.436247
S4    S     S_3+6 0.096702 0.215070 0.515571 0.060276
O22   O     O_2   0.177862 0.188501 0.474268 -0.252355
O23   O     O_2   0.151385 0.166375 0.562191 -0.318214
O24   O     O_3   0.976227 0.120069 0.502285 -0.387655
H29   H     H_    0.980797 0.043761 0.524180 0.442563
S5    S     S_3+6 0.885524 0.556948 0.384197 0.064447
O25   O     O_2   0.919492 0.702692 0.390924 -0.234165
O26   O     O_2   0.946271 0.500557 0.339818 -0.230530
O27   O     O_3   0.738509 0.548247 0.373387 -0.523270
H30   H     H_    0.723745 0.602156 0.344294 0.412860
S6    S     S_3+6 0.888378 0.281702 0.413053 0.101404
O28   O     O_2   0.813744 0.218819 0.449093 -0.228219
O29   O     O_2   0.814646 0.281882 0.366613 -0.219745
O30   O     O_3   0.006530 0.179196 0.402375 -0.464188
H31   H     H_    0.031549 0.199866 0.369514 0.367503
S7    S     S_3+6 0.697179 0.169073 0.576478 0.092669
O31   O     O_2   0.703614 0.319812 0.580322 -0.332118
O32   O     O_2   0.648019 0.130505 0.623543 -0.192559
O33   O     O_3   0.841944 0.127187 0.578426 -0.494781
H32   H     H_    0.874002 0.165178 0.609965 0.400487
S8    S     S_3+6 0.679379 0.843690 0.582325 0.073899
O34   O     O_2   0.803971 0.893797 0.590154 -0.236250
O35   O     O_2   0.611273 0.884747 0.626429 -0.251132
O36   O     O_3   0.704090 0.676046 0.585305 -0.544254
H33   H     H_    0.756915 0.664636 0.614350 0.355161
N6    N     N_3   0.434777 0.136065 0.586478 -0.427082
H34   H     H_    0.435121 0.058841 0.610865 0.259522
H35   H     H_    0.366370 0.202870 0.597352 0.276653
N7    N     N_3   0.362473 0.850456 0.569626 -0.413745
H36   H     H_    0.429106 0.841948 0.595805 0.285983
H37   H     H_    0.292365 0.903765 0.586079 0.273102
S9    S     S_3+6 0.441565 0.128755 0.392977 0.086478
O37   O     O_2   0.558802 0.174214 0.376051 -0.209278
O38   O     O_2   0.397733 0.015412 0.358929 -0.261230
O39   O     O_3   0.334708 0.250771 0.390543 -0.537149
H38   H     H_    0.315519 0.260304 0.355611 0.364110
S10   S     S_3+6 0.620325 0.873115 0.411790 0.075356
O40   O     O_2   0.694594 0.757325 0.428626 -0.259229
O41   O     O_2   0.575622 0.836782 0.361086 -0.223980
O42   O     O_3   0.712422 0.004655 0.409864 -0.438341
H39   H     H_    0.773817 0.974657 0.386647 0.426393
N8    N     N_3   0.146251 0.632470 0.117004 -0.456477
H40   H     H_    0.116873 0.728324 0.106383 0.257031
H41   H     H_    0.084698 0.560516 0.103574 0.273839
S11   S     S_3+6 0.252781 0.551491 0.646491 -0.024535
O43   O     O_2   0.255640 0.609387 0.597494 -0.375729
O44   O     O_2   0.203366 0.410173 0.642313 -0.285525
O45   O     O_3   0.164844 0.650354 0.681822 -0.476812
H42   H     H_    0.085345 0.648168 0.665048 0.386486
S12   S     S_3+6 0.181238 0.365181 0.865729 0.100342
O46   O     O_2   0.143904 0.448693 0.823437 -0.151092
O47   O     O_2   0.210109 0.222484 0.847652 -0.211612
O48   O     O_3   0.065838 0.360474 0.902945 -0.511111
H43   H     H_    0.077277 0.275210 0.920390 0.355191
N9    N     N_3   0.160852 0.637292 0.016874 -0.578211
H44   H     H_    0.104420 0.554119 0.011070 0.245395
H45   H     H_    0.183129 0.676741 0.983955 0.278176

loop_
_geom_bond_atom_site_label_1
_geom_bond_atom_site_label_2
_geom_bond_distance
_ccdc_geom_bond_type
C41   H10   1.109952 S    
C45   C46   1.548256 S    
N5    H25   1.045521 S    
C52   N4    1.500783 S    
N8    H41   1.043161 S    
C29   S11   1.757996 S    
N2    C27   1.367871 A    
C21   C22   1.394919 A    
C12   C15   1.413416 A    
C4    C17   1.479326 S    
C1    C46   1.582516 S    
S8    O36   1.673676 S    
S2    O17   1.502837 D    
S4    O22   1.496810 D    
Cu1   Cu2   2.801956 S    
C30   C31   1.395656 A    
Cu1   O7    1.950077 S    
C41   C46   1.595943 S    
N1    C11   1.443571 S    
C22   C23   1.426618 A    
S12   O47   1.503884 D    
C42   S4    1.815206 S    
H16   C45   1.110150 S    
S3    O20   1.502103 D    
S9    O37   1.491892 D    
O4    C2    1.346667 A    
O7    C4    1.336622 A    
C5    C13   1.413174 A    
C5    O9    1.348669 S    
S1    O15   1.682522 S    
Cu1   O5    2.053524 S    
C23   C27   1.410272 A    
O5    C3    1.345029 A    
C41   S3    1.805568 S    
O21   H28   0.989513 S    
C50   S8    1.895153 S    
C51   H22   1.074668 S    
S11   O45   1.681945 S    
C28   H3    1.082946 S    
C2    C16   1.479911 S    
C53   H20   1.108572 S    
O33   H32   0.991327 S    
S10   O42   1.670843 S    
C52   H23   1.081845 S    
C43   H14   1.096286 S    
C22   S12   1.780665 S    
O18   H27   0.990495 S    
C54   N4    1.506038 S    
S7    O33   1.669160 S    
N9    H45   1.044753 S    
C19   C38   1.423468 A    
C3    C47   1.558268 S    
C38   C39   1.412025 A    
N5    H26   1.042780 S    
C20   C24   1.411580 A    
C9    C10   1.399099 A    
C21   H4    1.076441 S    
S11   O44   1.502047 D    
C14   N8    1.434529 S    
C35   C40   1.403155 A    
O3    Cu1   1.931205 S    
S2    O16   1.502686 D    
S9    O38   1.503854 D    
O45   H42   0.990766 S    
S5    O26   1.505024 D    
C7    H6    1.083097 S    
C12   C34   1.413805 A    
C24   C25   1.416435 A    
N6    H34   1.037849 S    
C17   C29   1.415931 A    
C48   S6    1.832906 S    
C43   C47   1.536169 S    
C38   N5    1.439896 S    
C18   C21   1.399970 A    
N9    H44   1.044820 S    
S12   O48   1.683683 S    
C42   C46   1.586287 S    
C12   C13   1.412892 A    
O3    C2    1.323252 A    
C51   N3    1.517898 S    
S3    O21   1.679526 S    
C25   C26   1.414595 A    
C44   H13   1.115859 S    
C15   C37   1.419444 A    
S8    O35   1.498785 D    
C8    C16   1.398637 A    
C34   C35   1.413330 A    
C13   C14   1.413148 A    
H17   C45   1.098915 S    
C9    H1    1.083481 S    
C30   H7    1.077751 S    
C54   H21   1.111106 S    
C26   O12   1.346717 S    
S1    O14   1.503999 D    
O1    C1    1.351453 A    
C18   C20   1.412599 A    
C7    C11   1.401481 A    
C28   C29   1.395718 A    
C23   C24   1.421052 A    
S10   O41   1.502297 D    
C14   C36   1.408397 A    
S4    O23   1.503094 D    
O15   H24   0.990658 S    
Cu2   O8    1.930895 S    
C33   C36   1.423849 A    
Cu1   N4    2.103650 S    
S1    O13   1.502833 D    
N1    C6    1.369205 A    
N2    C32   1.445553 S    
C53   S9    1.801261 S    
C27   O10   1.345996 S    
O39   H38   0.990591 S    
C49   S7    1.913412 S    
C6    O11   1.348129 S    
S6    O30   1.680325 S    
C51   N6    1.470090 S    
C26   N2    1.367159 A    
C50   H19   1.098374 S    
C9    C16   1.408102 A    
C53   N3    1.566852 S    
C49   C50   1.643201 S    
C49   H18   1.092879 S    
S11   O43   1.494393 D    
C37   C40   1.396702 A    
Cu2   N3    2.106077 S    
O30   H31   0.990725 S    
S9    O39   1.686132 S    
C51   C52   1.624188 S    
S6    O29   1.503197 D    
S7    O31   1.484599 D    
S5    O27   1.668238 S    
C5    N1    1.368163 A    
C31   C32   1.400531 A    
C54   S10   1.844999 S    
C10   H2    1.082472 S    
C40   H9    1.076236 S    
O1    Cu1   2.059146 S    
C10   C11   1.404011 A    
O2    Cu2   2.053079 S    
C6    C15   1.407203 A    
O8    C4    1.334630 A    
C47   C48   1.645144 S    
O6    C3    1.353313 A    
O4    Cu2   1.950414 S    
C44   C47   1.541651 S    
S5    O25   1.490704 D    
S8    O34   1.493791 D    
C19   C35   1.422245 A    
C50   N4    1.541949 S    
O36   H33   0.990894 S    
C48   S5    1.823031 S    
C49   N3    1.549992 S    
C7    C8    1.387923 A    
O2    C1    1.351283 A    
C8    H5    1.069453 S    
C39   S2    1.790555 S    
O24   H29   0.984801 S    
C36   N9    1.439782 S    
C44   H15   1.088150 S    
N6    H35   1.046599 S    
C45   C48   1.595531 S    
C41   C43   1.545679 S    
O48   H43   0.990628 S    
C25   C39   1.425418 A    
S7    O32   1.497075 D    
C19   C20   1.411037 A    
C42   C44   1.538229 S    
C52   N7    1.462543 S    
C37   S1    1.776951 S    
C18   C33   1.419241 A    
S12   O46   1.503204 D    
C53   C54   1.572863 S    
Cu2   O6    2.059591 S    
C33   C34   1.409832 A    
C17   C30   1.406430 A    
C31   H8    1.082770 S    
N8    H40   1.045556 S    
N7    H36   1.027480 S    
S10   O40   1.483823 D    
C43   H12   1.109088 S    
S4    O24   1.674730 S    
C42   H11   1.105252 S    
O27   H30   0.990994 S    
S3    O19   1.492192 D    
C28   C32   1.399826 A    
S2    O18   1.682835 S    
N7    H37   1.045206 S    
S6    O28   1.484449 D    
O42   H39   0.990765 S    
