data_mof_unit_66887.cif
_audit_creation_date              2013-03-05T15:57:24-0500
_audit_creation_method            fapswitch 2.2
_symmetry_space_group_name_H-M    P1
_symmetry_Int_Tables_number       1
_space_group_crystal_system       triclinic
_cell_length_a                    17.515248
_cell_length_b                    18.914058
_cell_length_c                    8.414994
_cell_angle_alpha                 90.000077
_cell_angle_beta                  101.997923
_cell_angle_gamma                 89.994368
_cell_volume                      2726.85820775

loop_
_atom_site_label
_atom_site_type_symbol
_atom_site_description
_atom_site_fract_x
_atom_site_fract_y
_atom_site_fract_z
_atom_type_partial_charge
P1    P     P_3+3 0.834140 0.419320 0.003900 0.458849
P2    P     P_3+3 0.834140 0.580680 0.503900 0.458710
P3    P     P_3+3 0.334140 0.919320 0.003900 0.458925
P4    P     P_3+3 0.334140 0.080680 0.503900 0.458533
O1    O     O_2   0.841960 0.394640 0.833410 -0.377597
O2    O     O_2   0.841960 0.605360 0.333410 -0.377267
O3    O     O_2   0.341960 0.894640 0.833410 -0.377586
O4    O     O_2   0.341960 0.105360 0.333410 -0.376459
O5    O     O_3   0.907950 0.463080 0.102990 -0.405021
O6    O     O_3   0.907950 0.536920 0.602990 -0.405290
O7    O     O_3   0.407950 0.963080 0.102990 -0.405057
O8    O     O_3   0.407950 0.036920 0.602990 -0.405991
O9    O     O_3   0.972780 0.329600 0.629720 -0.378619
O10   O     O_3   0.972780 0.670400 0.129720 -0.378578
O11   O     O_3   0.472780 0.829600 0.629720 -0.378904
O12   O     O_3   0.472780 0.170400 0.129720 -0.378559
O13   O     O_2   0.845994 0.268361 0.685727 -0.357870
O14   O     O_2   0.845995 0.731673 0.185696 -0.357831
O15   O     O_2   0.345776 0.768730 0.685575 -0.357132
O16   O     O_2   0.345756 0.231284 0.185478 -0.356905
O17   O     O_3   0.749047 0.467851 0.964118 -0.573399
O18   O     O_3   0.749094 0.532097 0.464035 -0.573476
O19   O     O_3   0.249025 0.967824 0.964221 -0.573616
O20   O     O_3   0.249168 0.031999 0.463973 -0.573779
O21   O     O_3   0.957603 0.184819 0.636914 -0.544503
O22   O     O_3   0.957603 0.815217 0.136870 -0.544497
O23   O     O_3   0.457195 0.684824 0.637643 -0.544464
O24   O     O_3   0.457179 0.315176 0.137601 -0.544502
H1    H     H_    0.068931 0.225988 0.666946 0.175123
H2    H     H_    0.068915 0.774012 0.167324 0.175311
H3    H     H_    0.568666 0.725681 0.668041 0.175431
H4    H     H_    0.568659 0.274327 0.168037 0.175454
C1    C     C_3   0.065959 0.116815 0.595938 -0.793878
C2    C     C_3   0.066062 0.883148 0.096031 -0.792648
C3    C     C_3   0.565417 0.616379 0.597831 -0.793649
C4    C     C_3   0.565384 0.383621 0.097773 -0.793355
H5    H     H_    0.622545 0.618151 0.560546 0.265876
H6    H     H_    0.622505 0.381858 0.060473 0.266014
H7    H     H_    0.123088 0.118885 0.558706 0.264872
H8    H     H_    0.123569 0.880865 0.060299 0.264690
H9    H     H_    0.073589 0.097747 0.721455 0.284870
H10   H     H_    0.072994 0.902510 0.221248 0.284900
H11   H     H_    0.573048 0.597586 0.723547 0.284375
H12   H     H_    0.573006 0.402414 0.223464 0.284310
P5    P     P_3+3 0.165830 0.418670 0.685610 0.461965
P6    P     P_3+3 0.165830 0.581330 0.185610 0.461921
P7    P     P_3+3 0.665830 0.918670 0.685610 0.461787
P8    P     P_3+3 0.665830 0.081330 0.185610 0.461837
P9    P     P_3+3 0.103332 0.269936 0.121780 0.485111
P10   P     P_3+3 0.103374 0.730006 0.621842 0.484852
P11   P     P_3+3 0.603246 0.769856 0.121734 0.485437
P12   P     P_3+3 0.603238 0.230143 0.621732 0.485379
O25   O     O_2   0.157990 0.394030 0.856030 -0.354267
O26   O     O_2   0.157990 0.605970 0.356030 -0.354077
O27   O     O_2   0.657990 0.894030 0.856030 -0.354478
O28   O     O_2   0.657990 0.105970 0.356030 -0.354138
O29   O     O_3   0.027110 0.329490 0.059550 -0.391358
O30   O     O_3   0.027110 0.670510 0.559550 -0.391472
O31   O     O_3   0.527110 0.829490 0.059550 -0.390793
O32   O     O_3   0.527110 0.170510 0.559550 -0.390745
O33   O     O_2   0.168218 0.294336 0.036420 -0.325991
O34   O     O_2   0.168240 0.705637 0.536390 -0.326089
O35   O     O_2   0.668136 0.794282 0.036411 -0.326163
O36   O     O_2   0.668126 0.205706 0.536403 -0.326062
O37   O     O_3   0.241745 0.479808 0.730954 -0.566228
O38   O     O_3   0.241749 0.520186 0.231034 -0.566218
O39   O     O_3   0.741717 0.979827 0.731099 -0.566187
O40   O     O_3   0.741723 0.020162 0.231224 -0.566086
O41   O     O_3   0.074364 0.189281 0.030020 -0.468079
O42   O     O_3   0.074375 0.810688 0.530285 -0.467972
O43   O     O_3   0.574181 0.689268 0.029638 -0.467994
O44   O     O_3   0.574182 0.310734 0.529613 -0.467984
C5    C     C_3   0.998665 0.173045 0.048448 0.387977
C6    C     C_3   0.998670 0.826842 0.548829 0.388394
C7    C     C_3   0.498755 0.672684 0.049338 0.387283
C8    C     C_3   0.498770 0.327367 0.549357 0.387169
H13   H     H_    0.955295 0.198675 0.950354 0.112732
H14   H     H_    0.955282 0.801022 0.450981 0.112348
H15   H     H_    0.454976 0.697790 0.951177 0.112045
H16   H     H_    0.454966 0.302278 0.451213 0.111954
H17   H     H_    0.987257 0.190010 0.167906 0.004937
H18   H     H_    0.987432 0.809985 0.668522 0.004557
H19   H     H_    0.487481 0.689931 0.168725 0.005369
H20   H     H_    0.487511 0.310134 0.668752 0.005384
C9    C     C_3   0.989826 0.093407 0.034955 -0.192940
C10   C     C_3   0.989667 0.906481 0.534948 -0.192200
C11   C     C_3   0.490527 0.592970 0.037357 -0.193743
C12   C     C_3   0.490590 0.407096 0.537376 -0.193603
H21   H     H_    0.430913 0.576510 0.041369 0.110328
H22   H     H_    0.430969 0.423605 0.541318 0.110316
H23   H     H_    0.930070 0.077263 0.038589 0.110718
H24   H     H_    0.929914 0.922551 0.539068 0.110347
H25   H     H_    0.002514 0.074395 0.918674 0.204654
H26   H     H_    0.002025 0.925417 0.418227 0.204331
H27   H     H_    0.503228 0.573676 0.921353 0.204053
H28   H     H_    0.503332 0.426391 0.421381 0.204008
C13   C     C_3   0.213634 0.452898 0.255798 0.487436
C14   C     C_3   0.213643 0.547087 0.755891 0.487597
C15   C     C_3   0.713469 0.952864 0.255468 0.488156
C16   C     C_3   0.713479 0.047116 0.755536 0.488034
H29   H     H_    0.176429 0.454638 0.347410 0.080941
H30   H     H_    0.176515 0.545320 0.847632 0.080866
H31   H     H_    0.676036 0.954544 0.346686 0.080738
H32   H     H_    0.676236 0.045412 0.847088 0.080596
H33   H     H_    0.179756 0.431414 0.140334 0.144774
H34   H     H_    0.179694 0.568599 0.640525 0.144734
H35   H     H_    0.679761 0.931491 0.139729 0.144934
H36   H     H_    0.679595 0.068497 0.639973 0.144983
C17   C     C_3   0.283575 0.405109 0.315546 -1.067714
C18   C     C_3   0.283594 0.594862 0.815519 -1.068115
C19   C     C_3   0.783272 0.904967 0.315534 -1.068750
C20   C     C_3   0.783298 0.095017 0.815179 -1.068230
H37   H     H_    0.303021 0.411794 0.448307 0.234668
H38   H     H_    0.303010 0.588294 0.948268 0.234612
H39   H     H_    0.802189 0.911261 0.448508 0.234771
H40   H     H_    0.802338 0.088794 0.948119 0.234427
H41   H     H_    0.268277 0.349020 0.289504 0.265220
H42   H     H_    0.268326 0.650919 0.789203 0.265329
H43   H     H_    0.768018 0.848954 0.288424 0.265613
H44   H     H_    0.768004 0.151006 0.787960 0.265667
H45   H     H_    0.332377 0.418567 0.255113 0.283673
H46   H     H_    0.332416 0.581318 0.755237 0.283739
H47   H     H_    0.832390 0.918620 0.256194 0.283624
H48   H     H_    0.832355 0.081310 0.755676 0.283615
Ba1   Ba    Ba6+2 0.000000 0.447380 0.844850 1.558510
Ba2   Ba    Ba6+2 0.000000 0.552620 0.344850 1.558488
Ba3   Ba    Ba6+2 0.500000 0.947380 0.844850 1.558528
Ba4   Ba    Ba6+2 0.500000 0.052620 0.344850 1.558579
C21   C     C_3   0.763963 0.536382 0.921461 0.255609
C22   C     C_3   0.764176 0.463492 0.422089 0.255449
C23   C     C_3   0.263941 0.036381 0.921780 0.254559
C24   C     C_3   0.264599 0.963206 0.423912 0.253730
H49   H     H_    0.754016 0.539387 0.786943 0.124368
H50   H     H_    0.754705 0.460328 0.287608 0.124182
H51   H     H_    0.254320 0.039407 0.787296 0.123718
H52   H     H_    0.256603 0.959649 0.289630 0.123029
H53   H     H_    0.823354 0.556665 0.975538 0.116522
H54   H     H_    0.823468 0.443212 0.477170 0.117044
H55   H     H_    0.323225 0.056729 0.976517 0.117145
H56   H     H_    0.323493 0.942869 0.482034 0.119027
C25   C     C_3   0.706007 0.581247 0.983337 -0.123255
C26   C     C_3   0.705941 0.418737 0.483368 -0.123202
C27   C     C_3   0.205701 0.081146 0.983011 -0.121905
C28   C     C_3   0.205394 0.918816 0.482986 -0.121383
H57   H     H_    0.647207 0.557321 0.952196 0.232090
H58   H     H_    0.647194 0.442771 0.451807 0.232056
H59   H     H_    0.146918 0.057197 0.950978 0.231882
H60   H     H_    0.146816 0.943087 0.449266 0.232260
H61   H     H_    0.722681 0.587105 0.116663 0.204317
H62   H     H_    0.722369 0.412837 0.616731 0.204071
H63   H     H_    0.222024 0.086912 0.116446 0.204526
H64   H     H_    0.220765 0.912975 0.616545 0.203788
O45   O     O_3   0.092100 0.536880 0.086720 -0.427190
O46   O     O_3   0.092100 0.463120 0.586720 -0.427114
O47   O     O_3   0.592100 0.036880 0.086720 -0.427443
O48   O     O_3   0.592100 0.963120 0.586720 -0.427352
P13   P     P_3+3 0.905986 0.737875 0.074598 0.458548
P14   P     P_3+3 0.905975 0.262149 0.574614 0.458372
P15   P     P_3+3 0.405852 0.237768 0.074704 0.458899
P16   P     P_3+3 0.405856 0.762236 0.574769 0.458369
C29   C     C_3   0.029062 0.189385 0.586072 0.384051
C30   C     C_3   0.029116 0.810596 0.086254 0.383752
C31   C     C_3   0.528774 0.689075 0.587240 0.384879
C32   C     C_3   0.528762 0.310924 0.087215 0.384615
H65   H     H_    0.021917 0.208128 0.458506 0.024903
H66   H     H_    0.022062 0.791780 0.958770 0.024824
H67   H     H_    0.521872 0.707663 0.459612 0.025054
H68   H     H_    0.521872 0.292322 0.959602 0.025005
H69   H     H_    0.527284 0.577815 0.521416 0.289245
H70   H     H_    0.527245 0.422182 0.021385 0.289214
H71   H     H_    0.027972 0.078308 0.519049 0.290172
H72   H     H_    0.028481 0.921560 0.017796 0.289728
C33   C     C_R   0.138367 0.679702 0.936381 -0.526863
C34   C     C_R   0.138333 0.320283 0.436328 -0.526839
C35   C     C_R   0.638274 0.179783 0.936365 -0.525711
C36   C     C_R   0.638246 0.820209 0.436380 -0.525622
C37   C     C_R   0.868122 0.320019 0.260041 -0.468682
C38   C     C_R   0.868133 0.679987 0.760027 -0.468513
C39   C     C_R   0.368094 0.820052 0.260153 -0.468720
C40   C     C_R   0.368110 0.179957 0.760072 -0.467928
C41   C     C_R   0.808627 0.205235 0.288903 0.087302
C42   C     C_R   0.808628 0.794777 0.788879 0.086953
C43   C     C_R   0.308599 0.705271 0.289073 0.087751
C44   C     C_R   0.308601 0.294735 0.788977 0.087583
C45   C     C_R   0.859478 0.260835 0.354459 0.201891
C46   C     C_R   0.859489 0.739178 0.854437 0.202061
C47   C     C_R   0.359448 0.760872 0.354589 0.201239
C48   C     C_R   0.359468 0.239141 0.854499 0.201170
C49   C     C_R   0.820818 0.330635 0.105941 0.303991
C50   C     C_R   0.820811 0.669361 0.605948 0.303724
C51   C     C_R   0.320835 0.830632 0.105993 0.304429
C52   C     C_R   0.320797 0.169349 0.605977 0.303760
C53   C     C_R   0.761598 0.277643 0.045225 -0.076284
C54   C     C_R   0.761590 0.722356 0.545229 -0.076313
C55   C     C_R   0.261649 0.777609 0.045274 -0.076961
C56   C     C_R   0.261608 0.222366 0.545240 -0.076588
C57   C     C_R   0.254098 0.714408 0.139315 -0.051274
C58   C     C_R   0.254079 0.285586 0.639243 -0.051216
C59   C     C_R   0.754075 0.214415 0.139211 -0.051344
C60   C     C_R   0.754067 0.785588 0.639203 -0.051395
C61   C     C_R   0.189429 0.665686 0.083093 0.289692
C62   C     C_R   0.189407 0.334309 0.583032 0.289676
C63   C     C_R   0.689387 0.165713 0.083030 0.289234
C64   C     C_R   0.689367 0.834283 0.583032 0.289430
C65   C     C_R   0.150880 0.735250 0.837972 0.203649
C66   C     C_R   0.150823 0.264704 0.337942 0.203623
C67   C     C_R   0.650751 0.235369 0.837959 0.203100
C68   C     C_R   0.650736 0.764624 0.337970 0.203083
C69   C     C_R   0.209948 0.785179 0.893277 -0.151637
C70   C     C_R   0.209887 0.214768 0.393271 -0.152017
C71   C     C_R   0.709842 0.285276 0.893294 -0.150250
C72   C     C_R   0.709834 0.714718 0.393304 -0.150387
H73   H     H_    0.716156 0.328622 0.814130 0.202767
H74   H     H_    0.716153 0.671369 0.314136 0.202846
H75   H     H_    0.216275 0.828502 0.814072 0.202671
H76   H     H_    0.216193 0.171416 0.314094 0.202830
H77   H     H_    0.091392 0.643115 0.890652 0.162636
H78   H     H_    0.091360 0.356878 0.390592 0.162672
H79   H     H_    0.591290 0.143203 0.890652 0.162525
H80   H     H_    0.591252 0.856785 0.390674 0.162556
H81   H     H_    0.908733 0.360961 0.312688 0.165417
H82   H     H_    0.908758 0.639049 0.812671 0.165462
H83   H     H_    0.408661 0.861022 0.312829 0.165392
H84   H     H_    0.408712 0.139003 0.812725 0.165409
Br1   Br    Br    0.704453 0.669454 0.881206 -0.578104
Br2   Br    Br    0.704417 0.330540 0.381186 -0.578011
Br3   Br    Br    0.204430 0.169427 0.881283 -0.577875
Br4   Br    Br    0.204292 0.830546 0.381263 -0.577876
Br5   Br    Br    0.562612 0.550959 0.217091 -0.658972
Br6   Br    Br    0.562697 0.449059 0.717185 -0.659182
Br7   Br    Br    0.061400 0.050481 0.214219 -0.658356
Br8   Br    Br    0.061545 0.949629 0.713651 -0.658809
N1    N     N_2   0.313532 0.640499 0.375237 -0.069004
H85   H     H_    0.311310 0.645379 0.495991 0.234839
C73   C     C_3   0.376058 0.595244 0.347863 -0.761669
H86   H     H_    0.386576 0.552139 0.439459 0.260688
H87   H     H_    0.429557 0.625841 0.350870 0.225151
H88   H     H_    0.361085 0.571747 0.225753 0.253285
N2    N     N_2   0.313525 0.359506 0.875141 -0.069007
H89   H     H_    0.311275 0.354623 0.995881 0.234801
C74   C     C_3   0.376070 0.404749 0.847837 -0.761728
H90   H     H_    0.386603 0.447824 0.939509 0.260703
H91   H     H_    0.361103 0.428281 0.725769 0.253302
H92   H     H_    0.429565 0.374136 0.850768 0.225086
N3    N     N_2   0.813657 0.140405 0.374879 -0.069246
H93   H     H_    0.811495 0.145210 0.495678 0.234603
C75   C     C_3   0.876220 0.095244 0.347287 -0.759988
H94   H     H_    0.886995 0.052228 0.439073 0.261276
H95   H     H_    0.929608 0.125955 0.349888 0.224985
H96   H     H_    0.861167 0.071628 0.225299 0.253466
N4    N     N_2   0.813588 0.859582 0.874960 -0.069164
H97   H     H_    0.811215 0.854714 0.995652 0.234709
C76   C     C_3   0.876301 0.904719 0.848011 -0.759764
H98   H     H_    0.887254 0.947450 0.940474 0.261117
H99   H     H_    0.861346 0.928713 0.726406 0.253827
H100  H     H_    0.929571 0.873912 0.850044 0.224599

loop_
_geom_bond_atom_site_label_1
_geom_bond_atom_site_label_2
_geom_bond_distance
_ccdc_geom_bond_type
C24   C28   1.497300 S    
P2    O6    1.613472 S    
C15   H31   1.108744 S    
C12   H28   1.107409 S    
P1    O17   1.722883 S    
C14   C18   1.521208 S    
C4    H70   1.101270 S    
P12   C67   1.839445 S    
P4    C52   1.920543 S    
C12   Br6   1.928777 S    
N2    H89   1.029101 S    
C9    Br7   1.928712 S    
C35   C67   1.383520 A    
C26   H62   1.104731 S    
C28   H60   1.105812 S    
C17   H45   1.111226 S    
C18   H42   1.104548 S    
C9    H23   1.096800 S    
C37   C45   1.399053 A    
N4    H97   1.029191 S    
O8    Ba3   2.871423 S    
C22   H50   1.110720 S    
C27   H59   1.105723 S    
O26   Ba2   2.928643 S    
P8    C63   1.900229 S    
C43   C57   1.424459 A    
C29   H65   1.112569 S    
P1    O1    1.541633 D    
O15   P16   1.549125 D    
C52   C56   1.456379 A    
O38   C13   1.395869 S    
C33   C61   1.391124 A    
C3    H5    1.109650 S    
P1    Ba1   3.482715 S    
O37   C14   1.395867 S    
C55   C69   1.412419 A    
P3    O3    1.541633 D    
C26   H58   1.105547 S    
O29   Ba1   2.846871 S    
C76   H98   1.110584 S    
P4    O20   1.722811 S    
P3    Ba3   3.482715 S    
C24   H52   1.111395 S    
N4    C76   1.445899 S    
C39   C47   1.399090 A    
P7    O48   1.618652 S    
O31   Ba3   2.846871 S    
C16   H32   1.108624 S    
P9    O29   1.741957 S    
O21   P14   1.741965 S    
O22   P13   1.742170 S    
C19   H43   1.104789 S    
C74   H90   1.110741 S    
C42   C46   1.413974 A    
C5    H17   1.112152 S    
P6    O45   1.618783 S    
C36   C64   1.391465 A    
C27   Br3   1.874425 S    
C38   H82   1.082106 S    
O28   Ba4   2.928643 S    
C40   C48   1.399055 A    
Ba4   O47   2.977566 S    
O23   C31   1.406871 S    
C30   H66   1.112515 S    
P5    O37   1.743604 S    
C9    H25   1.107495 S    
O4    Ba4   2.924967 S    
P6    C61   1.899774 S    
C54   C60   1.454776 A    
O21   C29   1.407021 S    
P5    C62   1.899908 S    
O16   P15   1.549161 D    
C11   H27   1.107185 S    
P2    O18   1.722884 S    
C73   H86   1.110706 S    
O41   C5    1.400671 S    
C14   H34   1.105233 S    
C34   H78   1.082752 S    
C19   H39   1.105411 S    
P4    O8    1.613472 S    
O6    Ba1   2.871423 S    
C3    H11   1.097532 S    
N1    H85   1.029096 S    
C18   H38   1.104994 S    
C44   N2    1.417055 S    
C6    H14   1.110810 S    
P4    O4    1.541643 D    
O9    Ba1   2.847554 S    
C27   H63   1.104977 S    
P7    O27   1.540952 D    
P5    O25   1.540952 D    
C2    H10   1.098162 S    
P9    O41   1.737280 S    
N3    H93   1.029082 S    
O18   C22   1.384483 S    
O12   P15   1.728056 S    
C67   C71   1.406725 A    
C73   H87   1.097211 S    
C8    H20   1.112190 S    
P2    O2    1.541643 D    
P11   O43   1.737587 S    
C59   C63   1.460582 A    
C23   C27   1.497096 S    
P7    O39   1.743580 S    
C68   C72   1.406670 A    
C21   H53   1.113385 S    
Ba1   O45   2.871572 S    
C26   Br2   1.874387 S    
C75   H95   1.097228 S    
C10   H26   1.108278 S    
H3    C31   1.110179 S    
C16   H36   1.105190 S    
C16   C20   1.520933 S    
P9    O33   1.536248 D    
P4    Ba4   3.482628 S    
O10   P13   1.728216 S    
C25   H61   1.104577 S    
P10   O30   1.742009 S    
C42   C60   1.424603 A    
H1    C29   1.110226 S    
O32   Ba4   2.846940 S    
C2    H72   1.101936 S    
P1    O5    1.613601 S    
P13   C46   1.862490 S    
O2    Ba2   2.924967 S    
C56   C58   1.454736 A    
C40   C52   1.400615 A    
P5    Ba1   3.484933 S    
C20   H44   1.104583 S    
C23   H55   1.113434 S    
C41   C45   1.414006 A    
P11   C68   1.839411 S    
C34   C66   1.383344 A    
P3    O19   1.722914 S    
C11   Br5   1.928467 S    
C19   H47   1.111218 S    
C56   C70   1.412467 A    
O22   C30   1.407042 S    
O24   P15   1.741952 S    
C3    C31   1.512090 S    
C44   C48   1.413871 A    
C39   H83   1.082129 S    
C74   H91   1.099995 S    
P15   C48   1.862395 S    
C17   H41   1.104935 S    
C1    C29   1.511983 S    
C42   N4    1.417216 S    
Ba2   O45   2.977566 S    
O42   C6    1.400677 S    
P12   O44   1.737589 S    
C43   C47   1.413914 A    
P8    Ba4   3.485023 S    
C25   Br1   1.874316 S    
C13   C17   1.521261 S    
C66   C70   1.406646 A    
Ba4   O48   2.871388 S    
C34   C62   1.391256 A    
C65   C69   1.406697 A    
C31   H67   1.112510 S    
C60   C64   1.460485 A    
C15   C19   1.521138 S    
P6    O26   1.540943 D    
P11   O35   1.536271 D    
O44   C8    1.400859 S    
N2    C74   1.445671 S    
C1    H7    1.109644 S    
C6    C10   1.516479 S    
C57   C61   1.460627 A    
O13   P14   1.549255 D    
N1    C73   1.445609 S    
O17   C21   1.384312 S    
O25   Ba1   2.928457 S    
O39   C16   1.396019 S    
C43   N1    1.417038 S    
C38   C50   1.400624 A    
C21   H49   1.110379 S    
C58   C62   1.460527 A    
Ba2   O46   2.871388 S    
C32   H68   1.112502 S    
C7    C11   1.515959 S    
C71   H73   1.076480 S    
P8    O47   1.618783 S    
C72   H74   1.076538 S    
O30   Ba2   2.846940 S    
C1    H9    1.097656 S    
C44   C58   1.424539 A    
N3    C75   1.445652 S    
P12   O36   1.536266 D    
Ba1   Ba2   4.654589 S    
P10   O34   1.536195 D    
C73   H88   1.100061 S    
C53   C59   1.454773 A    
C4    H12   1.097353 S    
P11   O31   1.741820 S    
H2    C30   1.110106 S    
Ba3   O47   2.871572 S    
Ba3   Ba4   4.654589 S    
C41   C59   1.424573 A    
P14   C45   1.862454 S    
P2    Ba2   3.482628 S    
O9    P14   1.728141 S    
C20   H40   1.105182 S    
C33   H77   1.082778 S    
Ba1   O46   2.977597 S    
O24   C32   1.406844 S    
C76   H99   1.100116 S    
C6    H18   1.112350 S    
C75   H96   1.100139 S    
P8    O28   1.540943 D    
C1    H71   1.101303 S    
C8    C12   1.516145 S    
C39   C51   1.400578 A    
C35   H79   1.082765 S    
C13   H33   1.105274 S    
P6    Ba2   3.485023 S    
C28   Br4   1.874468 S    
P2    C50   1.920577 S    
C12   H22   1.097017 S    
C2    C30   1.512168 S    
O10   Ba2   2.847485 S    
Ba3   O48   2.977597 S    
O27   Ba3   2.928457 S    
C76   H100  1.097100 S    
C33   C65   1.383177 A    
C8    H16   1.110208 S    
P6    O38   1.743611 S    
C20   H48   1.111338 S    
C17   H37   1.105396 S    
C24   H56   1.114187 S    
C15   H35   1.105232 S    
C23   H51   1.110442 S    
O5    Ba2   2.871607 S    
C69   H75   1.076416 S    
P8    O40   1.743669 S    
C37   C49   1.400582 A    
C74   H92   1.097308 S    
C10   Br8   1.930144 S    
C36   C68   1.383540 A    
C4    H6    1.109571 S    
O7    Ba4   2.871607 S    
O23   P16   1.741911 S    
O40   C15   1.396013 S    
C35   C63   1.391441 A    
C5    C9    1.516082 S    
C28   H64   1.105449 S    
O14   P13   1.549298 D    
C14   H30   1.108478 S    
C18   H46   1.111076 S    
O43   C7    1.400815 S    
O20   C24   1.384751 S    
C7    H19   1.112285 S    
P7    Ba3   3.484933 S    
C70   H76   1.076581 S    
H4    C32   1.110111 S    
C25   H57   1.105449 S    
C3    H69   1.101431 S    
P7    C64   1.900110 S    
C40   H84   1.082110 S    
C41   N3    1.417127 S    
O12   Ba4   2.847485 S    
P10   O42   1.737097 S    
P3    C51   1.920819 S    
C22   C26   1.497231 S    
C51   C55   1.456535 A    
C53   C71   1.412554 A    
P3    O7    1.613601 S    
C50   C54   1.456407 A    
C10   H24   1.097247 S    
C54   C72   1.412544 A    
O3    Ba3   2.925153 S    
C38   C46   1.399082 A    
P10   C65   1.838702 S    
C49   C53   1.456510 A    
O11   P16   1.728052 S    
C21   C25   1.497075 S    
P9    C66   1.838859 S    
P12   O32   1.741882 S    
C36   H80   1.082744 S    
O1    Ba1   2.925153 S    
O19   C23   1.384214 S    
C4    C32   1.512100 S    
C11   H21   1.096832 S    
C5    H13   1.110250 S    
C2    H8    1.110297 S    
O11   Ba3   2.847554 S    
P5    O46   1.618652 S    
P16   C47   1.862297 S    
C37   H81   1.082123 S    
C7    H15   1.110120 S    
C13   H29   1.108554 S    
C75   H94   1.110633 S    
P1    C49   1.920618 S    
C55   C57   1.454728 A    
C22   H54   1.113676 S    
