data_mof_unit_17479.cif
_audit_creation_date              2012-10-26T21:17:56-0400
_audit_creation_method            fapswitch 2.2
_symmetry_space_group_name_H-M    P1
_symmetry_Int_Tables_number       1
_space_group_crystal_system       triclinic
_cell_length_a                    14.679974
_cell_length_b                    14.683294
_cell_length_c                    27.662314
_cell_angle_alpha                 76.655702
_cell_angle_beta                  102.997686
_cell_angle_gamma                 114.814335
_cell_volume                      5210.34131205

loop_
_atom_site_label
_atom_site_type_symbol
_atom_type_description
_atom_site_fract_x
_atom_site_fract_y
_atom_site_fract_z
_atom_type_partial_charge
C1    C     C_R   0.880425 0.312347 0.509348 0.551209
C2    C     C_R   0.936355 0.483263 0.121868 -0.008178
C3    C     C_3   0.077202 0.744025 0.615120 -0.118428
C4    C     C_3   0.211465 0.428470 0.299824 0.044981
C5    C     C_3   0.231315 0.331947 0.320213 -0.352747
C6    C     C_3   0.234428 0.699375 0.740272 0.026162
C7    C     C_3   0.294815 0.753978 0.784781 -0.372899
C8    C     C_3   0.748232 0.278986 0.122837 -0.101998
C9    C     C_3   0.176255 0.326880 0.917603 -0.100330
C10   C     C_3   0.664998 0.424651 0.016183 0.056675
C11   C     C_3   0.586391 0.418337 0.969161 -0.375816
C12   C     C_3   0.350234 0.510609 0.992147 0.054562
C13   C     C_R   0.001829 0.504313 0.644449 -0.050433
C14   C     C_3   0.431824 0.524732 0.038123 -0.374348
C15   C     C_3   0.852371 0.683769 0.949167 -0.122787
C16   C     C_3   0.298191 0.739115 0.014685 -0.126734
C17   C     C_3   0.641453 0.779586 0.510338 -0.133710
C18   C     C_3   0.357926 0.230502 0.499561 -0.106356
C19   C     C_R   0.010132 0.510064 0.354299 -0.080383
C20   C     C_R   0.931383 0.499205 0.017626 0.013795
C21   C     C_R   0.107091 0.520008 0.983349 0.013948
C22   C     C_R   0.114580 0.542498 0.031742 0.006827
C23   C     C_R   0.935753 0.519633 0.965254 0.006373
C24   C     C_R   0.024308 0.520347 0.050437 -0.101882
C25   C     C_R   0.019382 0.517966 0.948776 -0.101432
C26   C     C_R   0.838581 0.455144 0.037947 0.288986
C27   C     C_R   0.119529 0.687839 0.492385 0.536836
C28   C     C_R   0.180983 0.495814 0.969300 0.287441
C29   C     C_R   0.842968 0.439950 0.091030 0.261046
C30   C     C_R   0.166458 0.475812 0.919531 0.253802
C31   C     C_R   0.000116 0.500632 0.592158 0.640168
C32   C     C_R   0.001695 0.501831 0.407396 0.575886
C33   C     C_R   0.863598 0.547888 0.929044 0.313585
C34   C     C_R   0.208222 0.591612 0.060821 0.313983
C35   C     C_R   0.813039 0.204939 0.515900 -0.012658
C36   C     C_R   0.186253 0.795557 0.490868 -0.012230
C37   C     C_R   0.782789 0.027345 0.528146 -0.127508
C38   C     C_R   0.016124 0.516771 0.897630 -0.152774
C39   C     C_R   0.213550 0.972302 0.480437 -0.126370
C40   C     C_R   0.849363 0.128528 0.521742 -0.169138
C41   C     C_R   0.147495 0.870931 0.482159 -0.171083
C42   C     C_R   0.710047 0.179216 0.515777 -0.093483
C43   C     C_R   0.290852 0.822409 0.499619 -0.108887
C44   C     C_R   0.639434 0.078993 0.514902 -0.027874
C45   C     C_R   0.359415 0.922832 0.502506 -0.029248
C46   C     C_R   0.678075 0.001639 0.525451 0.007673
C47   C     C_R   0.319372 0.999328 0.489088 0.011784
C48   C     C_R   0.532464 0.053520 0.505301 -0.075553
C49   C     C_R   0.027486 0.522098 0.101527 -0.156386
C50   C     C_R   0.466349 0.949277 0.514810 -0.084182
C51   C     C_R   0.510102 0.875356 0.535994 0.255292
C52   C     C_R   0.488880 0.127574 0.484313 0.257268
C53   C     C_R   0.612848 0.900121 0.535623 0.290711
C54   C     C_R   0.384534 0.101408 0.481246 0.276586
C55   C     C_R   0.938757 0.536117 0.810631 0.446092
C56   C     C_R   0.122004 0.566624 0.182553 0.418432
C57   C     C_R   0.705055 0.645153 0.404017 0.255047
C58   C     C_R   0.307981 0.370720 0.597214 0.251384
C59   C     C_R   0.791652 0.624288 0.423708 0.043034
C60   C     C_R   0.937335 0.533855 0.861673 -0.014213
C61   C     C_R   0.217975 0.387273 0.578822 0.020119
C62   C     C_R   0.717654 0.519716 0.494788 0.068936
C63   C     C_R   0.275246 0.474355 0.501462 0.045752
C64   C     C_R   0.630277 0.544146 0.479150 -0.081099
C65   C     C_R   0.373071 0.471211 0.517935 -0.091691
C66   C     C_R   0.620119 0.597964 0.430142 -0.015694
C67   C     C_R   0.388273 0.417376 0.567379 0.003552
C68   C     C_R   0.550739 0.509918 0.509055 -0.067325
C69   C     C_R   0.454986 0.516891 0.487491 -0.067937
C70   C     C_R   0.447122 0.569646 0.436818 0.256042
C71   C     C_R   0.121805 0.561103 0.132303 -0.013882
C72   C     C_R   0.566741 0.473684 0.560916 0.225738
C73   C     C_R   0.525957 0.602105 0.407671 0.288052
C74   C     C_R   0.483928 0.412529 0.586649 0.278832
C75   C     C_R   0.084665 0.494042 0.831428 0.448778
C76   C     C_R   0.941492 0.485098 0.173176 0.453063
C77   C     C_R   0.069757 0.595934 0.715701 0.259336
C78   C     C_R   0.068773 0.462878 0.291470 0.258563
C79   C     C_R   0.064709 0.593785 0.664518 0.169797
C80   C     C_R   0.050653 0.448928 0.340996 0.193041
C81   C     C_R   0.941757 0.418123 0.674369 0.178349
C82   C     C_R   0.861257 0.550272 0.877746 0.283025
C83   C     C_R   0.984276 0.582665 0.317215 0.217687
C84   C     C_R   0.941307 0.422942 0.724553 0.246785
C85   C     C_R   0.994811 0.590900 0.267042 0.275794
C86   C     C_R   0.006441 0.511319 0.745057 0.176289
C87   C     C_R   0.034774 0.528962 0.253966 0.143061
C88   C     C_3   0.931555 0.264767 0.664589 -0.108137
C89   C     C_3   0.024194 0.732281 0.343337 -0.105869
C90   C     C_3   0.439825 0.777632 0.605423 -0.008007
C91   C     C_3   0.372068 0.670831 0.626441 -0.338728
C92   C     C_3   0.550784 0.231244 0.414186 -0.009021
C93   C     C_R   0.212474 0.595791 0.111523 0.286811
C94   C     C_3   0.609732 0.340855 0.392609 -0.346807
C95   C     C_3   0.491045 0.701135 0.332966 0.033072
C96   C     C_3   0.502288 0.720753 0.277730 -0.346093
C97   C     C_3   0.547820 0.291404 0.629906 0.023326
C98   C     C_3   0.506044 0.190494 0.663853 -0.387616
C99   C     C_3   0.767291 0.811131 0.368037 -0.022650
C100  C     C_3   0.769417 0.884338 0.319000 -0.373612
C101  C     C_3   0.236164 0.243013 0.662644 -0.011176
C102  C     C_3   0.265661 0.173176 0.707315 -0.353332
C103  C     C_3   0.375451 0.684472 0.425510 -0.048281
C104  C     C_R   0.090669 0.496750 0.882713 -0.007261
C105  C     C_3   0.286670 0.712541 0.397405 -0.391175
C106  C     C_3   0.681427 0.564100 0.621127 -0.004636
C107  C     C_3   0.794785 0.613168 0.638346 -0.353417
C108  C     C_3   0.781569 0.321237 0.742884 0.013151
C109  C     C_3   0.726980 0.254607 0.786878 -0.384506
C110  C     C_3   0.038561 0.736575 0.209050 0.010081
C111  C     C_3   0.011391 0.829479 0.193752 -0.372050
C112  C     C_3   0.699198 0.487202 0.838669 -0.069258
C113  C     C_3   0.346421 0.563447 0.158383 -0.076287
C114  C     C_3   0.988764 0.284408 0.377920 -0.094703
Cu1   Cu    Cu3+1 0.081740 0.475690 0.513040 0.941728
Cu2   Cu    Cu3+1 0.918260 0.524310 0.486960 0.941280
H1    H     H_    0.316980 0.763809 0.501180 0.186147
H2    H     H_    0.855500 0.656824 0.403252 0.173656
H3    H     H_    0.367391 0.584670 0.966491 0.149463
H4    H     H_    0.356648 0.454061 0.974045 0.171485
H5    H     H_    0.412365 0.454503 0.066279 0.151689
H6    H     H_    0.505839 0.541118 0.026863 0.081716
H7    H     H_    0.440638 0.589475 0.055353 0.197754
H8    H     H_    0.880541 0.732167 0.913953 0.138614
H9    H     H_    0.916279 0.693083 0.980679 0.099189
H10   H     H_    0.799527 0.710888 0.958718 0.131872
H11   H     H_    0.296051 0.784449 0.041292 0.133161
H12   H     H_    0.234974 0.732244 0.982942 0.099834
H13   H     H_    0.944406 0.238590 0.705671 0.156919
H14   H     H_    0.370273 0.781226 0.998784 0.130982
H15   H     H_    0.672327 0.836426 0.477562 0.075993
H16   H     H_    0.560884 0.730966 0.499489 0.141944
H17   H     H_    0.685359 0.730489 0.521233 0.142845
H18   H     H_    0.438818 0.281219 0.508014 0.157096
H19   H     H_    0.329240 0.180306 0.534378 0.094837
H20   H     H_    0.313685 0.279105 0.485700 0.149934
H21   H     H_    0.004842 0.300561 0.649351 0.104384
H22   H     H_    0.883717 0.196790 0.646281 0.136131
H23   H     H_    0.991619 0.783814 0.349500 0.126045
H24   H     H_    0.073466 0.773733 0.313626 0.103129
H25   H     H_    0.070552 0.715104 0.379155 0.100582
H26   H     H_    0.401862 0.829672 0.604803 0.133552
H27   H     H_    0.513681 0.800724 0.630745 0.150219
H28   H     H_    0.407796 0.616711 0.627845 0.167616
H29   H     H_    0.687297 0.238378 0.518555 0.193176
H30   H     H_    0.360485 0.669323 0.664968 0.094966
H31   H     H_    0.297128 0.646687 0.602262 0.204912
H32   H     H_    0.473521 0.205480 0.391916 0.158693
H33   H     H_    0.590705 0.183913 0.410371 0.123239
H34   H     H_    0.687930 0.368439 0.413389 0.187292
H35   H     H_    0.613968 0.346167 0.352423 0.113088
H36   H     H_    0.571308 0.389844 0.395738 0.181607
H37   H     H_    0.547851 0.767109 0.350991 0.118718
H38   H     H_    0.413471 0.694166 0.333771 0.170073
H39   H     H_    0.440617 0.659536 0.258459 0.173634
H40   H     H_    0.066471 0.851922 0.475533 0.115751
H41   H     H_    0.497145 0.794617 0.259681 0.096105
H42   H     H_    0.576416 0.722465 0.273511 0.199950
H43   H     H_    0.630105 0.328762 0.643147 0.175267
H44   H     H_    0.538001 0.274473 0.591311 0.113797
H45   H     H_    0.426566 0.146827 0.648266 0.146924
H46   H     H_    0.552076 0.145592 0.665943 0.093571
H47   H     H_    0.508563 0.203287 0.702238 0.160493
H48   H     H_    0.846871 0.818766 0.382711 0.105866
H49   H     H_    0.738360 0.834144 0.395229 0.103582
H50   H     H_    0.693319 0.886559 0.304910 0.135134
H51   H     H_    0.929201 0.146768 0.522565 0.123382
H52   H     H_    0.824031 0.961965 0.325249 0.091958
H53   H     H_    0.793420 0.860345 0.290374 0.172463
H54   H     H_    0.188387 0.196440 0.632697 0.105034
H55   H     H_    0.191786 0.275779 0.675719 0.116730
H56   H     H_    0.316979 0.217768 0.737166 0.167483
H57   H     H_    0.196566 0.115638 0.722726 0.093740
H58   H     H_    0.304458 0.133159 0.695561 0.144840
H59   H     H_    0.446805 0.746951 0.414532 0.098298
H60   H     H_    0.377568 0.678943 0.466436 0.157281
H61   H     H_    0.215428 0.656820 0.411196 0.166160
H62   H     H_    0.813646 0.969475 0.535050 0.148286
H63   H     H_    0.299043 0.789278 0.403406 0.096784
H64   H     H_    0.278583 0.712889 0.356513 0.141061
H65   H     H_    0.643865 0.520829 0.654735 0.180616
H66   H     H_    0.653342 0.625695 0.603673 0.164337
H67   H     H_    0.834233 0.657981 0.605555 0.142778
H68   H     H_    0.809638 0.664499 0.665565 0.145323
H69   H     H_    0.824942 0.553835 0.656777 0.161918
H70   H     H_    0.748118 0.280409 0.709986 0.171740
H71   H     H_    0.767935 0.392908 0.734364 0.155952
H72   H     H_    0.732657 0.179428 0.794072 0.156594
H73   H     H_    0.181354 0.029454 0.471471 0.151054
H74   H     H_    0.645723 0.243419 0.778313 0.087069
H75   H     H_    0.761737 0.291172 0.821126 0.157342
H76   H     H_    0.048893 0.717466 0.174631 0.151136
H77   H     H_    0.112128 0.757312 0.234922 0.112099
H78   H     H_    0.000442 0.851098 0.227293 0.156847
H79   H     H_    0.073413 0.894106 0.175940 0.091307
H80   H     H_    0.940324 0.812858 0.166498 0.166397
H81   H     H_    0.639178 0.508214 0.812636 0.144425
H82   H     H_    0.670573 0.450644 0.875157 0.124314
H83   H     H_    0.712091 0.431922 0.822339 0.118707
H84   H     H_    0.251655 0.505588 0.464713 0.225740
H85   H     H_    0.423402 0.598422 0.179196 0.131700
H86   H     H_    0.353988 0.530793 0.127746 0.133574
H87   H     H_    0.299053 0.501657 0.184883 0.120160
H88   H     H_    0.008242 0.226159 0.406527 0.126171
H89   H     H_    0.965123 0.256295 0.341166 0.138848
H90   H     H_    0.924584 0.292521 0.389096 0.108806
H91   H     H_    0.129695 0.813140 0.594254 0.137717
H92   H     H_    0.057139 0.768296 0.645173 0.145913
H93   H     H_    0.008536 0.710041 0.588081 0.127748
H94   H     H_    0.236978 0.474981 0.330713 0.190705
H95   H     H_    0.722769 0.463552 0.526968 0.203468
H96   H     H_    0.259876 0.472963 0.270182 0.165149
H97   H     H_    0.211905 0.286515 0.289649 0.140346
H98   H     H_    0.312731 0.351783 0.335880 0.130742
H99   H     H_    0.184791 0.285695 0.350445 0.191686
H100  H     H_    0.264162 0.748780 0.705680 0.166288
H101  H     H_    0.247569 0.627869 0.745602 0.160375
H102  H     H_    0.267251 0.706119 0.820098 0.175887
H103  H     H_    0.376383 0.769258 0.787300 0.094348
H104  H     H_    0.286221 0.827269 0.780174 0.149408
H105  H     H_    0.814259 0.270240 0.149520 0.132764
H106  H     H_    0.158546 0.361247 0.601596 0.114324
H107  H     H_    0.739887 0.250081 0.087593 0.120478
H108  H     H_    0.679125 0.231178 0.140586 0.139800
H109  H     H_    0.099733 0.298733 0.894903 0.138921
H110  H     H_    0.170521 0.300639 0.958317 0.120443
H111  H     H_    0.222523 0.292702 0.907409 0.136022
H112  H     H_    0.687867 0.499320 0.028541 0.152615
H113  H     H_    0.625800 0.361929 0.044788 0.173645
H114  H     H_    0.570791 0.350318 0.952548 0.150396
H115  H     H_    0.514564 0.412163 0.979032 0.076600
H116  H     H_    0.612724 0.487385 0.940984 0.194359
N1    N     N_R   0.010137 0.514117 0.796983 -0.350948
N2    N     N_R   0.033011 0.526896 0.202004 -0.376838
N3    N     N_R   0.795430 0.560780 0.467350 -0.294157
N4    N     N_R   0.204570 0.439220 0.532650 -0.278214
O1    O     O_R   0.977900 0.338120 0.517190 -0.502874
O2    O     O_2   0.209585 0.613432 0.211559 -0.502080
O3    O     O_2   0.855842 0.447112 0.194207 -0.419462
O4    O     O_2   0.153293 0.473071 0.815665 -0.467529
O5    O     O_3   0.880106 0.331037 0.653715 -0.573706
O6    O     O_3   0.943874 0.643171 0.329083 -0.509844
O7    O     O_3   0.454771 0.777259 0.556853 -0.572851
O8    O     O_3   0.545741 0.226391 0.465105 -0.575606
O9    O     O_3   0.502668 0.609411 0.355639 -0.513620
O10   O     O_3   0.498120 0.354148 0.632871 -0.507980
O11   O     O_3   0.703854 0.710897 0.359287 -0.528253
O12   O     O_R   0.022100 0.661880 0.482810 -0.518890
O13   O     O_3   0.324949 0.321530 0.646015 -0.505802
O14   O     O_3   0.363068 0.590570 0.413780 -0.584744
O15   O     O_3   0.664293 0.498341 0.586983 -0.597477
O16   O     O_3   0.885649 0.338728 0.755695 -0.541868
O17   O     O_3   0.957954 0.654661 0.230847 -0.491133
O18   O     O_3   0.787948 0.575949 0.843530 -0.506566
O19   O     O_3   0.306246 0.638926 0.139565 -0.514177
O20   O     O_3   0.075036 0.376235 0.376623 -0.539119
O21   O     O_3   0.126531 0.676388 0.634995 -0.580683
O22   O     O_3   0.108134 0.402686 0.278245 -0.542195
O23   O     O_R   0.839850 0.379180 0.495160 -0.511009
O24   O     O_3   0.131132 0.682249 0.737161 -0.537211
O25   O     O_3   0.756570 0.380658 0.112938 -0.545958
O26   O     O_3   0.224660 0.433556 0.907095 -0.550163
O27   O     O_3   0.748499 0.410172 0.006412 -0.543197
O28   O     O_3   0.252802 0.472625 0.007064 -0.540810
O29   O     O_3   0.799202 0.581074 0.942748 -0.544061
O30   O     O_3   0.296112 0.642982 0.039361 -0.543643
O31   O     O_3   0.651767 0.825417 0.551840 -0.563498
O32   O     O_3   0.344434 0.174679 0.461572 -0.571267
O33   O     O_R   0.160150 0.620820 0.504840 -0.513114
O34   O     O_R   0.069030 0.479490 0.580750 -0.505956
O35   O     O_R   0.930970 0.520510 0.419250 -0.474805
O36   O     O_R   0.930970 0.520550 0.558720 -0.488274
O37   O     O_R   0.069030 0.479450 0.441280 -0.473603
O38   O     O_2   0.870285 0.560683 0.774676 -0.487355

loop_
_geom_bond_atom_site_label_1
_geom_bond_atom_site_label_2
_ccdc_geom_bond_type
C78   C87   A    
C3    H93   S    
C96   H42   S    
C13   C79   A    
C11   H116  S    
C14   H6    S    
C26   C29   A    
C17   H15   S    
C108  C109  S    
C108  H71   S    
C95   C96   S    
C34   C93   A    
C57   C66   A    
C57   O11   S    
C100  H50   S    
C11   H115  S    
C81   C84   A    
C63   C65   A    
C97   C98   S    
C75   O4    S    
Cu1   O34   S    
C39   C41   A    
C34   O30   S    
C10   O27   S    
C102  H57   S    
C90   O7    S    
C37   H62   S    
C83   O6    S    
C101  C102  S    
C87   N2    S    
C108  O16   S    
C76   O3    S    
C113  O19   S    
C3    H92   S    
C64   C68   A    
C108  H70   S    
C84   C86   A    
C37   C40   A    
C52   O8    S    
C74   O10   S    
C78   C80   A    
C57   C59   A    
C96   H39   S    
C73   O9    S    
C106  C107  S    
C105  H63   S    
C110  O17   S    
C94   H36   S    
Cu1   Cu2   S    
C12   H3    S    
C13   C81   A    
C4    H94   S    
C63   H84   S    
Cu2   N3    S    
C6    O24   S    
C12   O28   S    
C81   O5    S    
C35   C42   A    
C110  C111  S    
C106  H66   S    
C40   H51   S    
C62   C64   A    
C32   O37   A    
C61   N4    A    
C63   N4    A    
C12   H4    S    
C7    H102  S    
C60   C82   A    
C103  C105  S    
C20   C24   A    
C52   C54   A    
C68   C69   A    
C23   C33   A    
C15   H10   S    
C49   C71   A    
C32   O35   A    
C38   C104  A    
C62   H95   S    
C18   H20   S    
C9    H110  S    
C62   N3    A    
C113  H85   S    
Cu2   O35   S    
C16   H14   S    
C33   C82   A    
C70   O14   S    
C112  H83   S    
C90   H27   S    
C8    H108  S    
C111  H80   S    
C41   H40   S    
C7    H103  S    
C89   H24   S    
C58   C61   A    
C85   C87   A    
C96   H41   S    
C14   H5    S    
C55   C60   A    
C17   H16   S    
C10   H112  S    
C56   N2    A    
C36   C41   A    
C19   C80   A    
C42   C44   A    
C88   H13   S    
C55   N1    A    
C19   C83   A    
C19   C32   S    
C91   H31   S    
Cu1   N4    S    
C98   H46   S    
C44   C46   A    
C98   H47   S    
C45   C47   A    
C109  H72   S    
C102  H56   S    
C22   C34   A    
C51   O7    S    
C86   N1    S    
C15   H8    S    
C101  O13   S    
C79   O21   S    
C97   H44   S    
Cu2   O12   S    
C112  O18   S    
C101  H54   S    
C72   C74   A    
C97   O10   S    
Cu1   O1    S    
C26   O27   S    
C89   H23   S    
C94   H35   S    
C3    O21   S    
C66   C73   A    
C77   O24   S    
C10   H113  S    
C54   O32   S    
C114  H90   S    
C107  H67   S    
C30   O26   S    
C75   N1    A    
C64   C66   A    
C106  O15   S    
C106  H65   S    
C61   H106  S    
C2    C49   A    
C25   C38   A    
C1    O23   A    
C6    H101  S    
C43   C45   A    
Cu1   O37   S    
C29   O25   S    
C99   C100  S    
C20   C23   A    
C109  H74   S    
C68   C72   A    
C56   C71   A    
C5    H97   S    
C9    O26   S    
C70   C73   A    
C103  H59   S    
C50   C51   A    
C78   O22   S    
C77   C79   A    
C18   H19   S    
C9    H111  S    
C67   C74   A    
C113  H86   S    
C16   H12   S    
C88   H22   S    
C90   H26   S    
Cu2   O23   S    
C112  H82   S    
C43   H1    S    
C47   C54   A    
C38   C60   A    
C7    H104  S    
C83   C85   A    
C21   C28   A    
C12   C14   S    
C77   C86   A    
C11   H114  S    
C2    C29   A    
C17   H17   S    
C75   C104  A    
C22   C24   A    
C92   H33   S    
C94   H34   S    
C105  H64   S    
C99   O11   S    
C113  H87   S    
C97   H43   S    
C112  H81   S    
C88   O5    S    
C98   H45   S    
C2    C76   A    
C1    C35   S    
C39   C47   A    
C91   H28   S    
C110  H77   S    
C56   O2    S    
C24   C49   A    
C65   C69   A    
C21   C25   A    
C55   O38   S    
C4    O22   S    
C14   H7    S    
C80   O20   S    
C27   O33   A    
C100  H53   S    
C103  O14   S    
C30   C104  A    
C13   C31   S    
C59   N3    A    
C105  H61   S    
C4    C5    S    
C15   O29   S    
C4    H96   S    
Cu1   O33   S    
C76   N2    A    
C53   O31   S    
C93   O19   S    
C6    C7    S    
C71   C93   A    
C27   C36   S    
C102  H58   S    
C114  O20   S    
C107  H69   S    
C85   O17   S    
C65   C67   A    
C114  H89   S    
C107  H68   S    
C100  H52   S    
C95   H38   S    
C1    O1    A    
C21   C22   A    
C28   C30   A    
C35   C40   A    
C37   C46   A    
C3    H91   S    
C17   O31   S    
C28   O28   S    
C27   O12   A    
C95   O9    S    
C18   O32   S    
C92   H32   S    
C92   O8    S    
C92   C94   S    
C20   C26   A    
C45   C50   A    
C109  H75   S    
C89   H25   S    
C5    H98   S    
C46   C53   A    
C48   C50   A    
C103  H60   S    
C101  H55   S    
C18   H18   S    
C114  H88   S    
C23   C25   A    
C72   O15   S    
C69   C70   A    
C16   H11   S    
C88   H21   S    
C36   C43   A    
C10   C11   S    
C111  H78   S    
C95   H37   S    
C99   H48   S    
C44   C48   A    
C58   C67   A    
C48   C52   A    
C8    H107  S    
C6    H100  S    
C59   H2    S    
C31   O34   A    
C15   H9    S    
C33   O29   S    
C31   O36   A    
C39   H73   S    
C89   O6    S    
C82   O18   S    
C58   O13   S    
C9    H109  S    
C110  H76   S    
C51   C53   A    
C8    O25   S    
Cu2   O36   S    
C42   H29   S    
C91   H30   S    
C16   O30   S    
C8    H105  S    
C90   C91   S    
C111  H79   S    
C84   O16   S    
C99   H49   S    
C5    H99   S    
