data_mof_unit_37450.cif
_audit_creation_date              2012-10-26T18:53:19-0400
_audit_creation_method            fapswitch 2.2
_symmetry_space_group_name_H-M    P1
_symmetry_Int_Tables_number       1
_space_group_crystal_system       triclinic
_cell_length_a                    14.722775
_cell_length_b                    14.714171
_cell_length_c                    15.872332
_cell_angle_alpha                 76.836484
_cell_angle_beta                  103.027861
_cell_angle_gamma                 114.911827
_cell_volume                      3003.78418281

loop_
_atom_site_label
_atom_site_type_symbol
_atom_type_description
_atom_site_fract_x
_atom_site_fract_y
_atom_site_fract_z
_atom_type_partial_charge
C1    C     C_R   0.880409 0.312345 0.512000 0.539458
C2    C     C_R   0.187403 0.795515 0.471164 -0.047000
C3    C     C_R   0.781538 0.027217 0.562975 -0.137066
C4    C     C_R   0.999862 0.499961 0.659719 0.545311
C5    C     C_R   0.848910 0.128246 0.554179 -0.143477
C6    C     C_R   0.709999 0.178899 0.484295 -0.144786
C7    C     C_R   0.639439 0.078610 0.498870 0.027033
C8    C     C_R   0.677172 0.001987 0.537330 0.047914
C9    C     C_R   0.532872 0.052919 0.479915 0.018378
C10   C     C_R   0.466000 0.949392 0.493236 0.039434
C11   C     C_R   0.506776 0.875654 0.532600 -0.113098
C12   C     C_3   0.984567 0.393804 0.067918 -0.265656
C13   C     C_R   0.610371 0.901475 0.553200 -0.155850
C14   C     C_R   0.490662 0.127260 0.453752 -0.172425
C15   C     C_R   0.387474 0.101222 0.448022 -0.129468
C16   C     C_R   0.119693 0.687690 0.483027 0.565150
C17   C     C_R   0.321087 0.999709 0.459456 0.014988
C18   C     C_R   0.359609 0.923160 0.473480 -0.005345
C19   C     C_R   0.216780 0.973452 0.456904 0.245351
C20   C     C_R   0.151029 0.870993 0.465397 -0.179963
C21   C     C_R   0.290024 0.823043 0.466123 0.237367
C22   C     C_R   0.699572 0.641375 0.337580 0.240302
C23   C     C_3   0.001143 0.500554 0.082913 0.093202
C24   C     C_R   0.786385 0.620809 0.366723 0.039125
C25   C     C_R   0.722014 0.520872 0.495742 0.015686
C26   C     C_R   0.626049 0.528054 0.467048 -0.076124
C27   C     C_R   0.616508 0.591485 0.385382 0.043775
C28   C     C_R   0.000123 0.499974 0.340312 0.545308
C29   C     C_R   0.539886 0.475004 0.514646 -0.034444
C30   C     C_R   0.450156 0.495882 0.482000 -0.072848
C31   C     C_R   0.445377 0.558947 0.401387 -0.131759
C32   C     C_R   0.524519 0.603367 0.352331 0.266973
C33   C     C_R   0.536648 0.399653 0.591084 0.271382
C34   C     C_3   0.104396 0.577632 0.054556 0.185267
C35   C     C_R   0.449625 0.350455 0.632649 0.288661
C36   C     C_R   0.368936 0.382642 0.607118 -0.008516
C37   C     C_R   0.366809 0.453565 0.530668 -0.049276
C38   C     C_R   0.290857 0.346047 0.658521 -0.159288
C39   C     C_R   0.208457 0.373489 0.631004 0.025019
C40   C     C_3   0.985022 0.394077 0.970352 -0.235841
C41   C     C_R   0.281029 0.480627 0.507352 0.063593
C42   C     C_3   0.914341 0.529666 0.927219 -0.218026
C43   C     C_3   0.914478 0.529504 0.024858 -0.197611
C44   C     C_1   0.000387 0.499745 0.250742 -0.034488
C45   C     C_3   0.102818 0.578246 0.955965 -0.173288
C46   C     C_3   0.000577 0.500564 0.917276 0.037075
C47   C     C_3   0.226341 0.732734 0.089802 -0.027582
C48   C     C_3   0.242720 0.840073 0.096726 -0.370296
C49   C     C_3   0.308463 0.758924 0.354893 -0.011035
C50   C     C_3   0.411282 0.813212 0.323251 -0.372929
C51   C     C_3   0.145409 0.047178 0.520345 -0.024242
C52   C     C_3   0.136785 0.147634 0.516211 -0.366158
C53   C     C_3   0.444745 0.607415 0.210728 0.011055
C54   C     C_3   0.454277 0.671972 0.120996 -0.369777
C55   C     C_3   0.382170 0.179201 0.680923 -0.023226
C56   C     C_1   0.000600 0.499755 0.175218 -0.043242
C57   C     C_3   0.413468 0.097445 0.740989 -0.370263
C58   C     C_3   0.746833 0.805896 0.273917 0.014995
C59   C     C_3   0.729614 0.875925 0.190930 -0.358538
C60   C     C_3   0.621577 0.295473 0.607890 -0.004227
C61   C     C_3   0.697925 0.260120 0.672465 -0.355488
C62   C     C_1   0.000096 0.500414 0.824997 -0.074181
C63   C     C_1   0.999787 0.500205 0.749378 -0.035224
C64   C     C_R   0.812943 0.204721 0.516370 -0.007840
Cu1   Cu    Cu3+1 0.081750 0.475690 0.522550 0.944060
Cu2   Cu    Cu3+1 0.918250 0.524310 0.477450 0.917531
H1    H     H_    0.911039 0.337070 0.087646 0.123656
H2    H     H_    0.147537 0.342994 0.669815 0.125624
H3    H     H_    0.924081 0.606201 0.889810 0.125815
H4    H     H_    0.293303 0.297399 0.720608 0.130419
H5    H     H_    0.839877 0.475064 0.899765 0.131998
H6    H     H_    0.840183 0.474475 0.044270 0.105556
H7    H     H_    0.115129 0.655292 0.918522 0.142742
H8    H     H_    0.163875 0.550427 0.094064 0.075426
H9    H     H_    0.045176 0.370234 0.109169 0.106961
H10   H     H_    0.268533 0.736642 0.038114 0.117998
H11   H     H_    0.256793 0.698688 0.153921 0.120349
H12   H     H_    0.046637 0.371807 0.964680 0.117952
H13   H     H_    0.202763 0.838707 0.148868 0.155558
H14   H     H_    0.324832 0.885631 0.112989 0.090134
H15   H     H_    0.213189 0.876160 0.033487 0.156959
H16   H     H_    0.256033 0.795704 0.316650 0.114045
H17   H     H_    0.275075 0.680361 0.339674 0.138947
H18   H     H_    0.466017 0.781729 0.364620 0.195250
H19   H     H_    0.404048 0.803081 0.254565 0.114030
H20   H     H_    0.440626 0.895489 0.326230 0.146417
H21   H     H_    0.928610 0.146503 0.578015 0.120742
H22   H     H_    0.686755 0.238987 0.449030 0.119750
H23   H     H_    0.638243 0.842608 0.584275 0.110588
H24   H     H_    0.535385 0.207180 0.442047 0.090991
H25   H     H_    0.198780 0.036920 0.580368 0.110520
H26   H     H_    0.069427 0.985293 0.525559 0.130594
H27   H     H_    0.080675 0.158602 0.459322 0.167752
H28   H     H_    0.111869 0.148282 0.577022 0.085462
H29   H     H_    0.211453 0.211060 0.509579 0.155111
H30   H     H_    0.365775 0.582497 0.223193 0.097004
H31   H     H_    0.460063 0.539706 0.209362 0.137469
H32   H     H_    0.530512 0.692927 0.104096 0.183230
H33   H     H_    0.396043 0.628826 0.070937 0.076820
H34   H     H_    0.071262 0.850769 0.465274 0.135907
H35   H     H_    0.443341 0.742217 0.120827 0.132518
H36   H     H_    0.380909 0.172732 0.611964 0.107986
H37   H     H_    0.303682 0.162614 0.689252 0.118656
H38   H     H_    0.410860 0.098870 0.810042 0.157004
H39   H     H_    0.360851 0.021824 0.723423 0.091201
H40   H     H_    0.491414 0.109804 0.734364 0.152486
H41   H     H_    0.829628 0.824177 0.291247 0.109449
H42   H     H_    0.719244 0.820983 0.327184 0.142861
H43   H     H_    0.647843 0.861678 0.173581 0.170715
H44   H     H_    0.772585 0.956126 0.201370 0.091286
H45   H     H_    0.359866 0.161515 0.433840 0.156018
H46   H     H_    0.755749 0.862715 0.136124 0.150173
H47   H     H_    0.847321 0.653278 0.327748 0.140527
H48   H     H_    0.742491 0.485082 0.558949 0.209503
H49   H     H_    0.379178 0.574494 0.372503 0.098208
H50   H     H_    0.644246 0.316253 0.541937 0.122055
H51   H     H_    0.547198 0.231052 0.605726 0.143047
H52   H     H_    0.679831 0.244580 0.739859 0.166436
H53   H     H_    0.695246 0.189430 0.656387 0.105291
H54   H     H_    0.775494 0.319474 0.669883 0.160438
H55   H     H_    0.923398 0.605642 0.034285 0.163377
H56   H     H_    0.810656 0.968998 0.592788 0.101995
H57   H     H_    0.166284 0.559576 0.948854 0.072021
H58   H     H_    0.912115 0.336778 0.943533 0.124949
H59   H     H_    0.459630 0.797777 0.553314 0.180668
H60   H     H_    0.273167 0.535495 0.451851 0.139435
N1    N     N_R   0.795410 0.560790 0.443550 -0.281019
N2    N     N_R   0.204590 0.439170 0.556520 -0.231188
O1    O     O_R   0.977910 0.338120 0.529720 -0.506517
O2    O     O_3   0.320249 0.753624 0.446831 -0.566748
O3    O     O_3   0.179486 0.048591 0.443453 -0.562381
O4    O     O_3   0.514139 0.666115 0.274331 -0.534654
O5    O     O_3   0.449203 0.275594 0.704191 -0.532525
O6    O     O_3   0.694054 0.704282 0.258974 -0.531878
O7    O     O_3   0.620792 0.380527 0.634315 -0.557661
O8    O     O_R   0.839850 0.379180 0.491640 -0.510277
O9    O     O_R   0.069060 0.479460 0.639610 -0.502799
O10   O     O_R   0.931000 0.520530 0.601530 -0.501521
O11   O     O_R   0.160150 0.620820 0.508360 -0.444265
O12   O     O_R   0.022090 0.661880 0.470280 -0.516325
O13   O     O_R   0.069000 0.479470 0.398470 -0.509627
O14   O     O_R   0.930940 0.520540 0.360390 -0.497383
O15   O     O_3   0.121733 0.675805 0.068957 -0.562810

loop_
_geom_bond_atom_site_label_1
_geom_bond_atom_site_label_2
_ccdc_geom_bond_type
C57   H39   S    
C38   H4    S    
C8    C13   A    
C47   O15   S    
C61   H53   S    
C18   C21   A    
C39   H2    S    
C54   H35   S    
C35   C36   A    
C35   O5    S    
C50   H18   S    
C7    C8    A    
C53   C54   S    
C58   O6    S    
C40   C46   S    
C55   H36   S    
C26   C27   A    
C43   H6    S    
C46   C62   S    
C48   H13   S    
C36   C37   A    
C11   H59   S    
C47   H10   S    
C1    O1    A    
C30   C31   A    
C33   C35   A    
C55   H37   S    
C59   H44   S    
C6    H22   S    
Cu2   N1    S    
C52   H29   S    
C45   H7    S    
C58   H41   S    
C42   C46   S    
C6    C64   A    
C44   C56   T    
C14   H24   S    
C50   H19   S    
C51   H25   S    
C4    O9    A    
C19   C20   A    
C29   C33   A    
C20   H34   S    
C24   N1    A    
C52   H28   S    
C1    O8    A    
C2    C16   S    
C9    C10   A    
C43   H55   S    
C58   H42   S    
C3    H56   S    
Cu1   O9    S    
C57   H40   S    
C61   H52   S    
C24   H47   S    
C53   H30   S    
C41   N2    A    
C16   O12   A    
C31   H49   S    
C25   C26   A    
C59   H46   S    
C19   O3    S    
C40   H58   S    
C12   H1    S    
C34   O15   S    
C2    C20   A    
C51   C52   S    
Cu1   N2    S    
C15   H45   S    
C23   C56   S    
C3    C8    A    
C53   O4    S    
C51   O3    S    
C17   C19   A    
C12   C23   S    
C53   H31   S    
C58   C59   S    
C45   C46   S    
C4    O10   A    
C28   C44   S    
C42   H3    S    
C45   H57   S    
C30   C37   A    
C60   C61   S    
C5    H21   S    
C49   H16   S    
C12   C40   S    
C9    C14   A    
C62   C63   T    
C51   H26   S    
Cu1   O13   S    
C33   O7    S    
C47   C48   S    
Cu2   O10   S    
C23   C34   S    
C2    C21   A    
C17   C18   A    
C60   H51   S    
C34   C45   S    
C60   O7    S    
C34   H8    S    
Cu2   O8    S    
C4    C63   S    
C22   O6    S    
C49   C50   S    
C22   C27   A    
C55   C57   S    
C22   C24   A    
C54   H33   S    
C60   H50   S    
C16   O11   A    
C28   O14   A    
C42   C43   S    
C47   H11   S    
C1    C64   S    
C32   O4    S    
C15   C17   A    
C57   H38   S    
C39   N2    A    
C13   H23   S    
C27   C32   A    
C23   C43   S    
C41   H60   S    
C31   C32   A    
C3    C5    A    
Cu1   O1    S    
C6    C7    A    
Cu2   O14   S    
C49   O2    S    
C52   H27   S    
C49   H17   S    
C36   C38   A    
C48   H15   S    
C25   N1    A    
C55   O5    S    
C25   H48   S    
C11   C13   A    
C48   H14   S    
C38   C39   A    
C10   C18   A    
C42   H5    S    
C59   H43   S    
C40   H12   S    
C37   C41   A    
C21   O2    S    
C10   C11   A    
C50   H20   S    
C29   C30   A    
Cu1   O11   S    
C7    C9    A    
Cu2   O12   S    
C5    C64   A    
C26   C29   A    
Cu1   Cu2   S    
C12   H9    S    
C14   C15   A    
C54   H32   S    
C28   O13   A    
C61   H54   S    
