data_mof_unit_33673.cif
_audit_creation_date              2012-10-26T20:31:40-0400
_audit_creation_method            fapswitch 2.2
_symmetry_space_group_name_H-M    P1
_symmetry_Int_Tables_number       1
_space_group_crystal_system       triclinic
_cell_length_a                    15.946651
_cell_length_b                    10.882911
_cell_length_c                    9.70788
_cell_angle_alpha                 89.407199
_cell_angle_beta                  88.808999
_cell_angle_gamma                 91.991426
_cell_volume                      1683.2790064

loop_
_atom_site_label
_atom_site_type_symbol
_atom_type_description
_atom_site_fract_x
_atom_site_fract_y
_atom_site_fract_z
_atom_type_partial_charge
C1    C     C_R   0.501717 0.263245 0.500560 0.590435
C2    C     C_R   0.505170 0.130141 0.499805 0.050101
C3    C     C_R   0.545664 0.070084 0.389998 0.067629
C4    C     C_R   0.340951 0.498851 0.501350 0.565300
C5    C     C_R   0.548379 0.940236 0.390406 0.046194
C6    C     C_R   0.507606 0.871058 0.498366 -0.016133
C7    C     C_R   0.467052 0.933137 0.604040 -0.000786
C8    C     C_3   0.473694 0.922042 0.758416 0.111300
C9    C     C_3   0.472376 0.064799 0.760743 0.100408
C10   C     C_R   0.572845 0.503753 0.069473 0.140031
C11   C     C_R   0.429669 0.465463 0.077455 0.159721
C12   C     C_3   0.945214 0.424689 0.622235 -0.107636
C13   C     C_R   0.428192 0.473562 0.930175 0.151352
C14   C     C_R   0.572908 0.501531 0.924628 0.146616
C15   C     C_3   0.647816 0.586690 0.911778 -0.086677
C16   C     C_R   0.503583 0.737080 0.499467 0.584859
C17   C     C_3   0.646171 0.592150 0.070308 -0.104867
C18   C     C_R   0.659596 0.501220 0.498611 0.571388
C19   C     C_3   0.043584 0.431254 0.634179 -0.046715
C20   C     C_3   0.053030 0.442090 0.367467 -0.040005
C21   C     C_3   0.955438 0.448620 0.361714 -0.032070
C22   C     C_1   0.749632 0.504344 0.495443 0.110722
C23   C     C_3   0.918385 0.507955 0.496598 -0.026899
C24   C     C_3   0.084872 0.499465 0.505227 -0.032534
C25   C     C_2   0.905324 0.294511 0.630857 0.592947
C26   C     C_2   0.927825 0.734598 0.402841 0.627995
C27   C     C_2   0.606171 0.880819 0.293027 0.574246
C28   C     C_2   0.399087 0.853558 0.825365 0.621359
C29   C     C_2   0.550822 0.131549 0.812701 0.644201
C30   C     C_2   0.358948 0.397308 0.148103 0.627312
C31   C     C_2   0.084187 0.310949 0.672757 0.627272
C32   C     C_2   0.346910 0.445042 0.867186 0.646115
C33   C     C_2   0.722829 0.524373 0.850620 0.602584
C34   C     C_3   0.957510 0.645234 0.514532 0.008358
C35   C     C_2   0.721923 0.540225 0.136929 0.618691
C36   C     C_2   0.104020 0.724491 0.600465 0.616699
C37   C     C_2   0.927920 0.700449 0.652666 0.613353
C38   C     C_3   0.057283 0.637428 0.503906 -0.112568
C39   C     C_1   0.825344 0.506822 0.494190 0.089040
C40   C     C_1   0.176918 0.496823 0.505982 0.001465
C41   C     C_1   0.251982 0.497123 0.504422 0.064528
C42   C     C_R   0.466497 0.059794 0.605643 -0.040366
Cu1   Cu    Cu3+1 0.500000 0.499980 0.640670 1.098174
Cu2   Cu    Cu3+1 0.500000 0.500020 0.359330 1.089375
H1    H     H_    0.056519 0.491657 0.723409 0.174759
H2    H     H_    0.654257 0.120200 0.286461 0.264014
H3    H     H_    0.565819 0.121962 0.190479 0.305003
H4    H     H_    0.710025 0.783265 0.271218 0.381405
H5    H     H_    0.286507 0.767473 0.802896 0.394150
H6    H     H_    0.603148 0.900613 0.737139 0.263321
H7    H     H_    0.565325 0.895369 0.901334 0.282825
H8    H     H_    0.392939 0.089465 0.927714 0.285135
H9    H     H_    0.342247 0.076132 0.777034 0.254002
H10   H     H_    0.602516 0.236805 0.960454 0.369764
H11   H     H_    0.318760 0.243520 0.250418 0.331937
H12   H     H_    0.919142 0.465569 0.717245 0.153676
H13   H     H_    0.104440 0.133264 0.630037 0.357722
H14   H     H_    0.230883 0.501803 0.826962 0.376893
H15   H     H_    0.774864 0.366818 0.790990 0.354032
H16   H     H_    0.778804 0.391197 0.211983 0.350104
H17   H     H_    0.144362 0.315175 0.336922 0.260713
H18   H     H_    0.055953 0.283807 0.254523 0.253902
H19   H     H_    0.969355 0.587457 0.212317 0.271856
H20   H     H_    0.937185 0.450996 0.152912 0.254528
H21   H     H_    0.134875 0.900368 0.646392 0.349538
H22   H     H_    0.851720 0.817195 0.751673 0.375368
H23   H     H_    0.633922 0.674531 0.859687 0.141643
H24   H     H_    0.628219 0.682246 0.110446 0.146719
H25   H     H_    0.082527 0.496956 0.280439 0.156118
H26   H     H_    0.929132 0.353444 0.355151 0.233937
H27   H     H_    0.079716 0.672131 0.401124 0.153580
H28   H     H_    0.829710 0.162145 0.550337 0.377823
H29   H     H_    0.956075 0.871596 0.265583 0.368008
N1    N     N_R   0.500530 0.500930 0.147930 -0.274808
N2    N     N_R   0.500530 0.500890 0.852020 -0.273864
N3    N     N_3   0.590972 0.142275 0.286332 -0.543362
N4    N     N_3   0.552881 0.869080 0.800365 -0.611870
N5    N     N_3   0.395968 0.113608 0.823122 -0.525930
N6    N     N_3   0.079023 0.315320 0.348379 -0.534947
N7    N     N_3   0.929940 0.511098 0.235431 -0.574344
O1    O     O_R   0.500000 0.319640 0.618810 -0.470726
O2    O     O_R   0.853194 0.248021 0.528200 -0.705154
O3    O     O_2   0.853198 0.739513 0.378070 -0.432091
O4    O     O_R   0.984355 0.816838 0.334422 -0.659822
O5    O     O_2   0.602542 0.901248 0.169301 -0.540654
O6    O     O_R   0.667934 0.806339 0.344878 -0.663483
O7    O     O_2   0.395791 0.839954 0.950594 -0.479984
O8    O     O_R   0.333873 0.806804 0.744947 -0.669835
O9    O     O_2   0.617403 0.128725 0.747982 -0.503401
O10   O     O_R   0.546400 0.197729 0.935068 -0.667842
O11   O     O_2   0.289062 0.440339 0.151829 -0.500727
O12   O     O_R   0.500010 0.319680 0.381230 -0.440300
O13   O     O_R   0.371661 0.281474 0.205653 -0.656071
O14   O     O_2   0.125111 0.305678 0.777725 -0.488112
O15   O     O_R   0.074252 0.206210 0.591845 -0.602145
O16   O     O_2   0.332433 0.343603 0.818807 -0.459391
O17   O     O_R   0.284799 0.532446 0.870398 -0.643832
O18   O     O_2   0.787209 0.584989 0.825900 -0.492422
O19   O     O_R   0.719821 0.397562 0.827975 -0.649825
O20   O     O_2   0.783286 0.607762 0.154487 -0.450916
O21   O     O_R   0.723831 0.414913 0.170537 -0.656890
O22   O     O_2   0.142222 0.685494 0.698697 -0.504688
O23   O     O_R   0.379430 0.499990 0.618840 -0.475816
O24   O     O_R   0.101990 0.851177 0.576267 -0.621730
O25   O     O_2   0.960252 0.671991 0.761110 -0.479898
O26   O     O_R   0.864226 0.786078 0.655581 -0.609073
O27   O     O_R   0.379440 0.500030 0.381260 -0.493518
O28   O     O_R   0.499990 0.680320 0.618770 -0.475831
O29   O     O_R   0.500000 0.680360 0.381190 -0.490644
O30   O     O_R   0.620560 0.499970 0.618740 -0.495538
O31   O     O_R   0.620570 0.500010 0.381160 -0.480188
O32   O     O_2   0.914904 0.232520 0.734891 -0.455321

loop_
_geom_bond_atom_site_label_1
_geom_bond_atom_site_label_2
_ccdc_geom_bond_type
C26   O3    D    
C34   C37   S    
H15   O19   S    
C13   C32   S    
H11   O13   S    
C19   C31   S    
C29   O9    D    
C7    C8    S    
C12   C23   S    
C9    C42   S    
H17   N6    S    
H3    N3    S    
C1    C2    S    
C30   O13   S    
C5    C6    A    
C31   O15   S    
C4    C41   S    
C10   C17   S    
C1    O1    A    
C4    O23   A    
C32   O17   S    
C12   C19   S    
C36   O22   D    
C33   O18   D    
C7    C42   A    
C27   O5    D    
C25   O32   D    
C5    C27   S    
C26   C34   S    
C20   C24   S    
C11   C30   S    
C8    C9    S    
C28   O8    S    
C24   C38   S    
C10   N1    A    
Cu1   O30   S    
H29   O4    S    
Cu2   O12   S    
C9    C29   S    
Cu1   O28   S    
Cu2   O29   S    
C18   C22   S    
H20   N7    S    
H5    O8    S    
H14   O17   S    
H22   O26   S    
H8    N5    S    
H2    N3    S    
C29   O10   S    
C16   O29   A    
H19   N7    S    
Cu1   N2    S    
H9    N5    S    
C4    O27   A    
C13   N2    A    
H18   N6    S    
C18   O31   A    
C10   C14   A    
C35   O21   S    
C33   O19   S    
C27   O6    S    
Cu1   Cu2   S    
H7    N4    S    
C37   O25   D    
C23   C34   S    
C15   H23   S    
C28   O7    D    
Cu2   N1    S    
C3    N3    S    
C12   H12   S    
C40   C41   T    
C32   O16   D    
C1    O12   A    
C21   C23   S    
C25   O2    S    
Cu1   O1    S    
H4    O6    S    
C20   H25   S    
H16   O21   S    
H6    N4    S    
Cu2   O27   S    
C15   C17   S    
C38   H27   S    
C17   H24   S    
C26   O4    S    
C20   N6    S    
C34   C38   S    
C18   O30   A    
C30   O11   D    
C3    C5    A    
C11   N1    A    
C19   H1    S    
H10   O10   S    
C6    C7    A    
C31   O14   D    
C21   H26   S    
C12   C25   S    
C36   O24   S    
C14   N2    A    
C36   C38   S    
C2    C3    A    
C37   O26   S    
C11   C13   A    
C8    N4    S    
C2    C42   A    
C23   C39   S    
C22   C39   T    
C21   N7    S    
C24   C40   S    
C19   C24   S    
C9    N5    S    
Cu1   O23   S    
C16   O28   A    
C6    C16   S    
Cu2   O31   S    
C20   C21   S    
C8    C28   S    
H13   O15   S    
C14   C15   S    
C17   C35   S    
H21   O24   S    
C15   C33   S    
H28   O2    S    
C35   O20   D    
