data_mof_unit_31676.cif
_audit_creation_date              2012-12-10T18:23:56-0500
_audit_creation_method            fapswitch 2.2
_symmetry_space_group_name_H-M    P1
_symmetry_Int_Tables_number       1
_space_group_crystal_system       triclinic
_cell_length_a                    22.476619
_cell_length_b                    22.390511
_cell_length_c                    14.642206
_cell_angle_alpha                 89.979407
_cell_angle_beta                  90.828401
_cell_angle_gamma                 89.997817
_cell_volume                      7368.10962158

loop_
_atom_site_label
_atom_site_type_symbol
_atom_type_description
_atom_site_fract_x
_atom_site_fract_y
_atom_site_fract_z
_atom_type_partial_charge
C1    C     C_R   0.419823 0.919659 0.499567 0.825550
C2    C     C_R   0.580180 0.080337 0.500431 0.825325
C3    C     C_R   0.580173 0.919656 0.500454 0.825831
C4    C     C_R   0.419823 0.080340 0.499546 0.824983
C5    C     C_R   0.919819 0.419665 0.499570 0.824700
C6    C     C_R   0.080176 0.580341 0.500433 0.825817
C7    C     C_R   0.080176 0.419659 0.500455 0.824812
C8    C     C_R   0.919826 0.580343 0.499546 0.825778
C9    C     C_1   0.337659 0.163161 0.498243 -0.081612
C10   C     C_1   0.662318 0.836816 0.501759 -0.080970
C11   C     C_1   0.662349 0.163153 0.501638 -0.080449
C12   C     C_1   0.337664 0.836836 0.498328 -0.081398
C13   C     C_1   0.837671 0.663173 0.498243 -0.081007
C14   C     C_1   0.162335 0.336832 0.501769 -0.080674
C15   C     C_1   0.162334 0.663166 0.501671 -0.081093
C16   C     C_1   0.837641 0.336863 0.498396 -0.080877
C17   C     C_1   0.499908 0.000051 0.194427 0.146612
C18   C     C_1   0.500075 0.000020 0.805571 0.143859
C19   C     C_1   0.999897 0.499958 0.194416 0.145229
C20   C     C_1   0.000075 0.499941 0.805584 0.150550
C21   C     C_3   0.526273 0.049763 0.970370 0.245619
C22   C     C_3   0.473694 0.950498 0.029561 0.243046
C23   C     C_3   0.470054 0.047724 0.029383 0.231083
C24   C     C_3   0.529867 0.952646 0.970543 0.249342
C25   C     C_3   0.026356 0.549352 0.970438 0.246560
C26   C     C_3   0.973446 0.450200 0.029572 0.224382
C27   C     C_3   0.970209 0.547389 0.029455 0.248112
C28   C     C_3   0.029725 0.452049 0.970590 0.228551
C29   C     C_3   0.699478 0.725521 0.529926 0.111797
C30   C     C_3   0.300524 0.274460 0.470127 0.111519
C31   C     C_3   0.300556 0.725539 0.470242 0.111778
C32   C     C_3   0.699464 0.274408 0.530012 0.111757
C33   C     C_3   0.199468 0.225531 0.529894 0.112112
C34   C     C_3   0.800508 0.774463 0.470079 0.111796
C35   C     C_3   0.800524 0.225616 0.470055 0.111827
C36   C     C_3   0.199442 0.774463 0.529756 0.111829
C37   C     C_3   0.232969 0.205014 0.443672 -0.245980
C38   C     C_3   0.767019 0.794992 0.556304 -0.245629
C39   C     C_3   0.767040 0.204936 0.556224 -0.245567
C40   C     C_3   0.233024 0.794993 0.443596 -0.245921
C41   C     C_3   0.732968 0.704992 0.443702 -0.245598
C42   C     C_3   0.267024 0.294977 0.556349 -0.245205
C43   C     C_3   0.266974 0.705009 0.556401 -0.245663
C44   C     C_3   0.732947 0.295089 0.443844 -0.245146
C45   C     C_1   0.375239 0.125298 0.498547 -0.186003
C46   C     C_1   0.624746 0.874686 0.501453 -0.184326
C47   C     C_1   0.624769 0.125292 0.501367 -0.184062
C48   C     C_1   0.375241 0.874699 0.498617 -0.185082
C49   C     C_1   0.875248 0.625307 0.498548 -0.184387
C50   C     C_1   0.124758 0.374697 0.501456 -0.184463
C51   C     C_1   0.124757 0.625302 0.501383 -0.184482
C52   C     C_1   0.875226 0.374717 0.498644 -0.184989
C53   C     C_3   0.258532 0.228921 0.584829 0.111954
C54   C     C_3   0.741434 0.771042 0.415176 0.111454
C55   C     C_3   0.741451 0.229088 0.415151 0.112039
C56   C     C_3   0.258457 0.771060 0.584819 0.111882
C57   C     C_3   0.758552 0.728942 0.584829 0.111500
C58   C     C_3   0.241460 0.271070 0.415192 0.111939
C59   C     C_3   0.241540 0.728942 0.415179 0.111822
C60   C     C_3   0.758538 0.270938 0.584915 0.112430
C61   C     C_3   0.291933 0.209021 0.499068 0.070320
C62   C     C_3   0.708044 0.790956 0.500938 0.070108
C63   C     C_3   0.708067 0.209022 0.500856 0.069885
C64   C     C_3   0.291939 0.790974 0.499123 0.070144
C65   C     C_3   0.791942 0.709029 0.499066 0.070113
C66   C     C_3   0.208059 0.290970 0.500952 0.070004
C67   C     C_3   0.208059 0.709028 0.500875 0.070020
C68   C     C_3   0.791920 0.291000 0.499206 0.069925
C69   C     C_3   0.556960 0.002232 0.032150 0.028251
C70   C     C_3   0.442906 0.997974 0.967893 0.003456
C71   C     C_3   0.057013 0.501802 0.032058 0.026121
C72   C     C_3   0.942933 0.497915 0.967857 0.023510
C73   C     C_3   0.500120 0.000142 0.092194 -0.183099
C74   C     C_3   0.499833 0.000075 0.907808 -0.184178
C75   C     C_3   0.000092 0.499868 0.092147 -0.181838
C76   C     C_3   0.999823 0.499832 0.907847 -0.182404
Cu1   Cu    Cu3+1 0.500000 1.000000 0.590220 0.965097
Cu2   Cu    Cu3+1 0.500000 1.000000 0.409780 0.965603
Cu3   Cu    Cu3+1 1.000000 0.500000 0.590220 0.966245
Cu4   Cu    Cu3+1 1.000000 0.500000 0.409780 0.965320
H1    H     H_    0.220062 0.167600 0.397767 0.135236
H2    H     H_    0.779925 0.832421 0.602181 0.135701
H3    H     H_    0.779971 0.167440 0.602001 0.136017
H4    H     H_    0.220155 0.832417 0.397642 0.135300
H5    H     H_    0.720061 0.667562 0.397826 0.135742
H6    H     H_    0.279931 0.332391 0.602254 0.136307
H7    H     H_    0.279843 0.667584 0.602354 0.135722
H8    H     H_    0.720014 0.332587 0.398074 0.136183
N1    N     N_1   0.499980 0.000000 0.274190 -0.157110
N2    N     N_1   0.500020 1.000000 0.725810 -0.157085
N3    N     N_1   0.999980 0.500000 0.274190 -0.157147
N4    N     N_1   0.000020 0.500000 0.725810 -0.157099
O1    O     O_R   0.439540 0.939530 0.576170 -0.572489
O2    O     O_R   0.560460 0.060470 0.423830 -0.572741
O3    O     O_R   0.560460 0.939530 0.423830 -0.572478
O4    O     O_R   0.439540 0.060470 0.576170 -0.575149
O5    O     O_R   0.939540 0.439530 0.576170 -0.575558
O6    O     O_R   0.060460 0.560470 0.423830 -0.572861
O7    O     O_R   0.060460 0.439530 0.423830 -0.575477
O8    O     O_R   0.939540 0.560470 0.576170 -0.572915
O9    O     O_R   0.439530 0.939530 0.423800 -0.573213
O10   O     O_R   0.560470 0.060470 0.576200 -0.571971
O11   O     O_R   0.560470 0.939530 0.576200 -0.571738
O12   O     O_R   0.439530 0.060470 0.423800 -0.572788
O13   O     O_R   0.939530 0.439530 0.423800 -0.571347
O14   O     O_R   0.060470 0.560470 0.576200 -0.571694
O15   O     O_R   0.060470 0.439530 0.576200 -0.570530
O16   O     O_R   0.939530 0.560470 0.423800 -0.571753
C77   C     C_3   0.380131 0.995857 0.925853 -0.359420
C78   C     C_3   0.331620 0.992415 0.998294 -0.352413
C79   C     C_3   0.269798 0.994430 0.954013 -0.866684
H9    H     H_    0.263453 0.037016 0.916130 0.250685
H10   H     H_    0.263790 0.956322 0.906186 0.251697
H11   H     H_    0.235499 0.991419 0.007639 0.243632
H12   H     H_    0.335864 0.950373 0.037815 0.221614
H13   H     H_    0.335912 0.030117 0.047002 0.222628
H14   H     H_    0.373524 0.036298 0.882976 0.198053
H15   H     H_    0.376792 0.956530 0.879893 0.196128
C80   C     C_3   0.619807 0.003560 0.074061 -0.366326
C81   C     C_3   0.667818 0.009859 0.001426 -0.333482
C82   C     C_3   0.729886 0.008671 0.044935 -0.874859
H16   H     H_    0.735152 0.046006 0.094350 0.252653
H17   H     H_    0.737525 0.965574 0.080876 0.251888
H18   H     H_    0.763811 0.013616 0.991079 0.245064
H19   H     H_    0.664211 0.972866 0.951259 0.219952
H20   H     H_    0.662066 0.052668 0.964098 0.248862
H21   H     H_    0.623122 0.041175 0.123182 0.190896
H22   H     H_    0.626980 0.961931 0.113886 0.197680
C83   C     C_3   0.880110 0.497100 0.925787 -0.366393
C84   C     C_3   0.831975 0.491022 0.998275 -0.328832
C85   C     C_3   0.769964 0.492491 0.954581 -0.876399
H23   H     H_    0.762586 0.535591 0.918528 0.251882
H24   H     H_    0.764567 0.455133 0.905235 0.252762
H25   H     H_    0.735947 0.487771 0.008348 0.245180
H26   H     H_    0.837478 0.448199 0.035641 0.250029
H27   H     H_    0.835688 0.528006 0.048441 0.219558
H28   H     H_    0.873268 0.538861 0.886160 0.197732
H29   H     H_    0.876564 0.459645 0.876420 0.187465
C86   C     C_3   0.119812 0.504759 0.073833 -0.365578
C87   C     C_3   0.168087 0.506160 0.000854 -0.339088
C88   C     C_3   0.230054 0.504525 0.044673 -0.873430
H30   H     H_    0.236560 0.543569 0.090549 0.252380
H31   H     H_    0.236193 0.462704 0.084577 0.251553
H32   H     H_    0.264164 0.506092 0.990622 0.245310
H33   H     H_    0.163225 0.467474 0.954010 0.245471
H34   H     H_    0.163998 0.547396 0.959313 0.219661
H35   H     H_    0.123348 0.545234 0.117343 0.195053
H36   H     H_    0.126400 0.465615 0.119401 0.193735
C89   C     C_3   0.639183 0.700337 0.558182 -0.404094
C90   C     C_3   0.642623 0.633442 0.579686 -0.345292
C91   C     C_3   0.581222 0.608205 0.600293 -0.854702
H37   H     H_    0.561858 0.631481 0.659901 0.253684
H38   H     H_    0.551063 0.613595 0.540114 0.250418
H39   H     H_    0.585071 0.559889 0.616425 0.239250
H40   H     H_    0.661191 0.608929 0.520573 0.218149
H41   H     H_    0.672064 0.625838 0.639987 0.219755
H42   H     H_    0.622985 0.725267 0.618429 0.190267
H43   H     H_    0.607020 0.707772 0.500919 0.199846
C92   C     C_3   0.360837 0.299623 0.441910 -0.404233
C93   C     C_3   0.357441 0.366527 0.420467 -0.345198
C94   C     C_3   0.418857 0.391727 0.399859 -0.854815
H44   H     H_    0.449025 0.386288 0.460017 0.250307
H45   H     H_    0.438191 0.368462 0.340217 0.253653
H46   H     H_    0.415041 0.440051 0.383775 0.239254
H47   H     H_    0.327996 0.374174 0.360183 0.219746
H48   H     H_    0.338899 0.391031 0.479609 0.218177
H49   H     H_    0.392989 0.292147 0.499174 0.199378
H50   H     H_    0.377026 0.274706 0.381645 0.190332
C95   C     C_3   0.360895 0.700368 0.442188 -0.404061
C96   C     C_3   0.357501 0.633477 0.420716 -0.345344
C97   C     C_3   0.418941 0.608254 0.400342 -0.854610
H51   H     H_    0.438391 0.631549 0.340794 0.253755
H52   H     H_    0.449007 0.613631 0.460624 0.250384
H53   H     H_    0.415126 0.559943 0.384217 0.239228
H54   H     H_    0.338849 0.608950 0.479776 0.218162
H55   H     H_    0.328153 0.625882 0.360316 0.219743
H56   H     H_    0.377168 0.725313 0.381978 0.190184
H57   H     H_    0.392982 0.707798 0.499544 0.199830
C98   C     C_3   0.639143 0.299504 0.558310 -0.404447
C99   C     C_3   0.642523 0.366360 0.580031 -0.344934
C100  C     C_3   0.581098 0.391505 0.600716 -0.855464
H58   H     H_    0.550941 0.386194 0.540525 0.250429
H59   H     H_    0.561758 0.368104 0.660255 0.253187
H60   H     H_    0.584901 0.439794 0.616999 0.239390
H61   H     H_    0.671952 0.373876 0.640363 0.219697
H62   H     H_    0.661073 0.390998 0.521001 0.218177
H63   H     H_    0.607001 0.292152 0.501003 0.199659
H64   H     H_    0.622943 0.274451 0.618464 0.189680
C101  C     C_3   0.139155 0.200369 0.558113 -0.404626
C102  C     C_3   0.142552 0.133465 0.579560 -0.344867
C103  C     C_3   0.081135 0.108266 0.600166 -0.856236
H65   H     H_    0.061798 0.131534 0.659803 0.253019
H66   H     H_    0.050970 0.113700 0.540004 0.250398
H67   H     H_    0.084951 0.059942 0.616256 0.239379
H68   H     H_    0.161095 0.108960 0.520421 0.217943
H69   H     H_    0.171995 0.125820 0.639847 0.219648
H70   H     H_    0.122966 0.225287 0.618377 0.189694
H71   H     H_    0.107003 0.207843 0.500849 0.199158
C104  C     C_3   0.860803 0.799648 0.441822 -0.404102
C105  C     C_3   0.857364 0.866543 0.420322 -0.345173
C106  C     C_3   0.918765 0.891780 0.399715 -0.855053
H72   H     H_    0.948924 0.886387 0.459892 0.250428
H73   H     H_    0.938128 0.868504 0.340105 0.253643
H74   H     H_    0.914917 0.940095 0.383586 0.239223
H75   H     H_    0.827923 0.874148 0.360022 0.219734
H76   H     H_    0.838797 0.891055 0.479436 0.218122
H77   H     H_    0.892967 0.792210 0.499083 0.199814
H78   H     H_    0.877000 0.774719 0.381573 0.190245
C107  C     C_3   0.860845 0.200507 0.441781 -0.404632
C108  C     C_3   0.857451 0.133653 0.420044 -0.344653
C109  C     C_3   0.918882 0.108479 0.399479 -0.856065
H79   H     H_    0.938289 0.131878 0.339992 0.253119
H80   H     H_    0.948988 0.113763 0.459736 0.250347
H81   H     H_    0.915067 0.060194 0.383172 0.239411
H82   H     H_    0.838839 0.109019 0.479032 0.218111
H83   H     H_    0.828069 0.126156 0.359654 0.219677
H84   H     H_    0.877066 0.225559 0.381642 0.189721
H85   H     H_    0.892975 0.207846 0.499107 0.199197
C110  C     C_3   0.139103 0.799635 0.557808 -0.403974
C111  C     C_3   0.142499 0.866525 0.579288 -0.345403
C112  C     C_3   0.081058 0.891751 0.599648 -0.854998
H86   H     H_    0.050999 0.886380 0.539356 0.250397
H87   H     H_    0.061599 0.868453 0.659186 0.253742
H88   H     H_    0.084874 0.940061 0.615781 0.239155
H89   H     H_    0.171840 0.874115 0.639698 0.219682
H90   H     H_    0.161160 0.891054 0.520236 0.217957
H91   H     H_    0.107018 0.792209 0.500449 0.199748
H92   H     H_    0.122827 0.774689 0.618015 0.190195
C113  C     C_3   0.725923 0.795299 0.319952 -0.402656
C114  C     C_3   0.763517 0.766426 0.245530 -0.342964
C115  C     C_3   0.744655 0.788722 0.150911 -0.861458
H93   H     H_    0.697361 0.777211 0.136534 0.253447
H94   H     H_    0.750332 0.837924 0.146371 0.250979
H95   H     H_    0.772667 0.767310 0.098322 0.242921
H96   H     H_    0.811160 0.777424 0.256835 0.220514
H97   H     H_    0.758341 0.717082 0.247736 0.218810
H98   H     H_    0.678102 0.785959 0.305791 0.201620
H99   H     H_    0.732054 0.844484 0.319452 0.190191
C116  C     C_3   0.274021 0.204620 0.680037 -0.404440
C117  C     C_3   0.236433 0.233477 0.754480 -0.341172
C118  C     C_3   0.255264 0.211117 0.849079 -0.862302
H100  H     H_    0.249546 0.161917 0.853558 0.250571
H101  H     H_    0.302566 0.222580 0.863487 0.253192
H102  H     H_    0.227262 0.232524 0.901684 0.243120
H103  H     H_    0.241644 0.282818 0.752338 0.220443
H104  H     H_    0.188784 0.222516 0.743141 0.219990
H105  H     H_    0.267869 0.155437 0.680488 0.190091
H106  H     H_    0.321845 0.213933 0.694221 0.200365
C119  C     C_3   0.273837 0.795320 0.680059 -0.402844
C120  C     C_3   0.236177 0.766402 0.754391 -0.344104
C121  C     C_3   0.254850 0.788753 0.849033 -0.859790
H107  H     H_    0.302155 0.777364 0.863581 0.252580
H108  H     H_    0.249034 0.837937 0.853473 0.251233
H109  H     H_    0.226818 0.767281 0.901559 0.243049
H110  H     H_    0.188530 0.777315 0.742895 0.220526
H111  H     H_    0.241446 0.717067 0.752288 0.218689
H112  H     H_    0.321650 0.786015 0.694365 0.201413
H113  H     H_    0.267664 0.844501 0.680501 0.189923
C122  C     C_3   0.726014 0.205011 0.319823 -0.403648
C123  C     C_3   0.763585 0.234140 0.245569 -0.344709
C124  C     C_3   0.744897 0.211959 0.150842 -0.856446
H114  H     H_    0.750822 0.162801 0.146147 0.251738
H115  H     H_    0.697557 0.223271 0.136426 0.252669
H116  H     H_    0.772848 0.233610 0.098383 0.242334
H117  H     H_    0.758244 0.283461 0.247912 0.220054
H118  H     H_    0.811255 0.223280 0.256944 0.220313
H119  H     H_    0.732237 0.155839 0.319121 0.189933
H120  H     H_    0.678181 0.214295 0.305656 0.201329
C125  C     C_3   0.225972 0.295370 0.319984 -0.403636
C126  C     C_3   0.263559 0.266509 0.245542 -0.343402
C127  C     C_3   0.244733 0.288872 0.150943 -0.860874
H121  H     H_    0.197429 0.277416 0.136533 0.252622
H122  H     H_    0.250458 0.338071 0.146467 0.251257
H123  H     H_    0.272732 0.267462 0.098338 0.243063
H124  H     H_    0.311208 0.277465 0.256883 0.220637
H125  H     H_    0.258343 0.217168 0.247682 0.218497
H126  H     H_    0.178148 0.286058 0.305800 0.200168
H127  H     H_    0.232127 0.344552 0.319531 0.190016
C128  C     C_3   0.774065 0.704678 0.680048 -0.402764
C129  C     C_3   0.736469 0.733540 0.754477 -0.342871
C130  C     C_3   0.755324 0.711224 0.849088 -0.861549
H128  H     H_    0.749643 0.662021 0.853605 0.250943
H129  H     H_    0.802619 0.722729 0.863476 0.253329
H130  H     H_    0.727311 0.732627 0.901683 0.242963
H131  H     H_    0.741649 0.782883 0.752293 0.218789
H132  H     H_    0.688825 0.722546 0.743161 0.220547
H133  H     H_    0.767939 0.655492 0.680536 0.190179
H134  H     H_    0.821885 0.714021 0.694212 0.201548
C131  C     C_3   0.774006 0.295049 0.680212 -0.404642
C132  C     C_3   0.736442 0.265982 0.754527 -0.344083
C133  C     C_3   0.755166 0.288219 0.849209 -0.857273
H135  H     H_    0.802502 0.276886 0.863621 0.252198
H136  H     H_    0.749275 0.337385 0.853830 0.251884
H137  H     H_    0.727214 0.266624 0.901720 0.242807
H138  H     H_    0.688774 0.276855 0.743163 0.220362
H139  H     H_    0.741765 0.216657 0.752250 0.219947
H140  H     H_    0.821839 0.285750 0.694364 0.200083
H141  H     H_    0.767807 0.344224 0.680860 0.189865
C134  C     C_3   0.226157 0.704675 0.319944 -0.402617
C135  C     C_3   0.263825 0.733574 0.245605 -0.344226
C136  C     C_3   0.245141 0.711221 0.150968 -0.860189
H142  H     H_    0.250925 0.662032 0.146543 0.251219
H143  H     H_    0.197843 0.722638 0.136414 0.252585
H144  H     H_    0.273187 0.732667 0.098437 0.242963
H145  H     H_    0.258574 0.782911 0.247698 0.218326
H146  H     H_    0.311468 0.722643 0.257099 0.220536
H147  H     H_    0.232318 0.655493 0.319515 0.190037
H148  H     H_    0.178347 0.713990 0.305634 0.201303
N5    N     N_2   0.439478 0.099481 0.065353 -0.420046
H149  H     H_    0.413783 0.090364 0.121389 0.246598
C137  C     C_3   0.410749 0.138722 0.999678 -0.722019
H150  H     H_    0.404569 0.183333 0.031153 0.228625
H151  H     H_    0.366305 0.121218 0.979757 0.226343
H152  H     H_    0.437953 0.144203 0.937676 0.235746
N6    N     N_2   0.560616 0.901061 0.934385 -0.428277
H153  H     H_    0.587530 0.910568 0.879883 0.246313
C138  C     C_3   0.587352 0.860521 0.000073 -0.698597
H154  H     H_    0.593447 0.816241 0.967494 0.226209
H155  H     H_    0.558704 0.854652 0.060517 0.261671
H156  H     H_    0.631718 0.877109 0.022351 0.218457
N7    N     N_2   0.554383 0.102746 0.933664 -0.432356
H157  H     H_    0.532898 0.119688 0.876658 0.246951
C139  C     C_3   0.572041 0.148284 0.998651 -0.686106
H158  H     H_    0.599369 0.182400 0.963644 0.216972
H159  H     H_    0.599228 0.129115 0.055008 0.233366
H160  H     H_    0.532458 0.170664 0.027229 0.252828
N8    N     N_2   0.447082 0.896633 0.065810 -0.426657
H161  H     H_    0.417856 0.904402 0.118066 0.242851
C140  C     C_3   0.425884 0.853069 0.000016 -0.688792
H162  H     H_    0.417294 0.810209 0.035574 0.221916
H163  H     H_    0.459331 0.844817 0.946583 0.265726
H164  H     H_    0.383729 0.868136 0.967331 0.216325
N9    N     N_2   0.939728 0.599111 0.065707 -0.428307
H165  H     H_    0.912726 0.589698 0.120143 0.246371
C141  C     C_3   0.913293 0.639922 0.000134 -0.696191
H166  H     H_    0.907466 0.684189 0.032874 0.226075
H167  H     H_    0.868832 0.623657 0.977741 0.217812
H168  H     H_    0.942006 0.645706 0.939750 0.261661
N10   N     N_2   0.060327 0.400654 0.933395 -0.421824
H169  H     H_    0.035630 0.378917 0.883737 0.253004
C142  C     C_3   0.088506 0.360488 0.998354 -0.718070
H170  H     H_    0.103916 0.319804 0.962338 0.221138
H171  H     H_    0.057182 0.346855 0.052263 0.228602
H172  H     H_    0.128061 0.381620 0.030373 0.240410
N11   N     N_2   0.053026 0.603162 0.934080 -0.427216
H173  H     H_    0.081748 0.595481 0.881136 0.245541
C143  C     C_3   0.074832 0.646567 0.999654 -0.692509
H174  H     H_    0.080986 0.690095 0.964762 0.224006
H175  H     H_    0.118423 0.632469 0.028662 0.215624
H176  H     H_    0.042897 0.653070 0.055794 0.264672
N12   N     N_2   0.945085 0.397540 0.066930 -0.426737
H177  H     H_    0.966893 0.380266 0.123419 0.250744
C144  C     C_3   0.925482 0.352291 0.002729 -0.722644
H178  H     H_    0.895483 0.320591 0.037820 0.227807
H179  H     H_    0.963914 0.326850 0.976543 0.230149
H180  H     H_    0.900513 0.372198 0.944640 0.235579

loop_
_geom_bond_atom_site_label_1
_geom_bond_atom_site_label_2
_ccdc_geom_bond_type
C1    O9    A    
C140  H163  S    
C133  H135  S    
C94   H46   S    
C5    O13   A    
N9    H165  S    
C130  H130  S    
C97   H52   S    
C7    O7    A    
C3    O11   A    
C127  H121  S    
C33   C101  S    
C31   C59   S    
C78   C79   S    
C4    O4    A    
C116  C117  S    
C70   C74   S    
C114  H97   S    
C42   H6    S    
C93   H48   S    
C54   C113  S    
C25   N11   S    
C80   H22   S    
N5    C137  S    
C60   C131  S    
C104  C105  S    
Cu2   O9    S    
C37   H1    S    
C27   C75   S    
C144  H179  S    
C77   H15   S    
C144  H178  S    
C100  H59   S    
Cu2   N1    S    
C139  H158  S    
C72   C83   S    
C17   N1    T    
C87   C88   S    
C88   H32   S    
C57   C65   S    
C141  H167  S    
C81   H19   S    
C96   H55   S    
C98   H64   S    
C100  H58   S    
C69   C80   S    
C116  H106  S    
C138  H156  S    
C113  C114  S    
C38   C57   S    
C20   N4    T    
C56   C119  S    
C6    O14   A    
C79   H10   S    
C34   C54   S    
C117  H103  S    
Cu1   O11   S    
C28   C71   S    
C123  H118  S    
C78   H13   S    
C135  C136  S    
C136  H144  S    
C101  H70   S    
Cu3   O5    S    
C87   H33   S    
C71   C86   S    
C86   C87   S    
C1    C48   S    
C2    C47   S    
C3    C46   S    
C25   C76   S    
C131  H140  S    
C84   C85   S    
C92   C93   S    
C103  H67   S    
C107  H84   S    
C44   C55   S    
C134  H147  S    
C14   C50   T    
Cu2   O2    S    
C39   C60   S    
C21   C74   S    
C92   H49   S    
C115  H95   S    
C91   H38   S    
C82   H17   S    
C29   C89   S    
C141  H166  S    
C83   H28   S    
C1    O1    A    
N7    H157  S    
C30   C61   S    
C3    O3    A    
C89   C90   S    
C38   C62   S    
C135  H145  S    
C125  H127  S    
C102  C103  S    
C79   H9    S    
C119  H113  S    
C119  C120  S    
C31   C43   S    
C132  H139  S    
C133  H136  S    
C11   C63   S    
C42   C53   S    
C124  H114  S    
C12   C64   S    
C96   C97   S    
C2    O10   A    
C108  H82   S    
C4    O12   A    
C118  H100  S    
C26   N12   S    
C122  H120  S    
C59   C67   S    
C129  H131  S    
C53   C61   S    
C27   N9    S    
C55   C63   S    
C56   C64   S    
C25   C71   S    
C110  H92   S    
C89   H43   S    
C17   C73   S    
C106  H73   S    
C23   C70   S    
C114  C115  S    
C36   C110  S    
C95   H56   S    
C111  C112  S    
C33   C66   S    
C26   C75   S    
C4    C45   S    
C142  H171  S    
C120  H111  S    
C30   C92   S    
C86   H36   S    
Cu2   O12   S    
C2    O2    A    
C19   N3    T    
C129  C130  S    
N8    C140  S    
C121  H109  S    
Cu3   O14   S    
C21   C69   S    
C139  H159  S    
C128  H133  S    
C112  H86   S    
C128  C129  S    
C15   C67   S    
C131  C132  S    
C125  H126  S    
C99   H62   S    
C102  H68   S    
C5    O5    A    
C15   C51   T    
C90   H40   S    
C137  H151  S    
Cu4   O7    S    
C7    O15   A    
C81   C82   S    
C83   C84   S    
C109  H80   S    
C29   C41   S    
C126  H124  S    
C7    C50   S    
C123  C124  S    
C124  H116  S    
C130  H129  S    
Cu4   O16   S    
Cu1   O4    S    
C118  H102  S    
C8    O8    A    
C143  H176  S    
C78   H12   S    
C104  H78   S    
C106  H74   S    
C55   C122  S    
C129  H132  S    
C109  H81   S    
C43   C67   S    
C90   C91   S    
C22   C70   S    
C80   H21   S    
C127  H123  S    
C9    C45   T    
C105  H75   S    
C26   C72   S    
C40   H4    S    
C11   C47   T    
C84   H26   S    
C12   C48   T    
C85   H25   S    
C53   C116  S    
C94   H44   S    
C77   H14   S    
C121  H107  S    
Cu1   Cu2   S    
C6    O6    A    
C112  H88   S    
C88   H31   S    
C81   H20   S    
C98   H63   S    
C22   N8    S    
C116  H105  S    
C132  C133  S    
C140  H162  S    
C138  H155  S    
C94   H45   S    
N12   H177  S    
C91   H37   S    
C69   C73   S    
N11   C143  S    
C136  H143  S    
N6    H153  S    
C125  C126  S    
C38   H2    S    
C117  H104  S    
Cu1   O10   S    
C10   C62   S    
C96   H54   S    
N9    C141  S    
C97   H53   S    
Cu1   N2    S    
C18   N2    T    
C95   C96   S    
Cu3   O8    S    
C107  C108  S    
C87   H34   S    
C143  H174  S    
C54   C62   S    
C120  C121  S    
C142  H170  S    
C33   C37   S    
C103  H65   S    
C35   C39   S    
C134  C135  S    
C103  H66   S    
C36   C56   S    
N10   H169  S    
Cu2   O3    S    
Cu3   O15   S    
C114  H96   S    
C115  H94   S    
C93   H47   S    
C82   H16   S    
C59   C134  S    
C29   C57   S    
C21   C23   S    
C9    C61   S    
C131  H141  S    
C85   H23   S    
C28   C76   S    
C110  C111  S    
C144  H180  S    
C41   H5    S    
C99   C100  S    
C100  H60   S    
C135  H146  S    
Cu4   O6    S    
C136  H142  S    
C16   C52   T    
C119  H112  S    
C141  H168  S    
C80   C81   S    
N12   C144  S    
C31   C95   S    
Cu4   N3    S    
C39   H3    S    
N8    H161  S    
C77   C78   S    
C128  H134  S    
C108  H83   S    
C111  H90   S    
Cu1   O1    S    
C79   H11   S    
C101  C102  S    
C122  H119  S    
C98   C99   S    
C123  H117  S    
C60   C68   S    
C126  C127  S    
C30   C42   S    
C110  H91   S    
C113  H99   S    
C89   H42   S    
C8    C49   S    
C27   C72   S    
C28   N10   S    
C101  H71   S    
C97   H51   S    
C106  H72   S    
C72   C76   S    
C36   C67   S    
C13   C65   S    
N5    H149  S    
C58   C125  S    
C86   H35   S    
C107  H85   S    
C134  H148  S    
C121  H108  S    
C92   H50   S    
C20   C76   S    
C91   H39   S    
C117  C118  S    
C82   H18   S    
C34   C104  S    
C58   C66   S    
C83   H29   S    
C109  H79   S    
C105  C106  S    
N7    C139  S    
C10   C46   T    
C32   C98   S    
C16   C68   S    
C6    C51   S    
C37   C58   S    
C102  H69   S    
C21   N7    S    
C18   C74   S    
C40   C59   S    
C90   H41   S    
C23   C73   S    
C24   N6    S    
C8    O16   A    
C34   C65   S    
C24   C69   S    
C33   C53   S    
N6    C138  S    
C35   C55   S    
C132  H138  S    
C126  H125  S    
C36   C40   S    
C133  H137  S    
C124  H115  S    
C41   C65   S    
C137  H150  S    
C130  H128  S    
Cu4   O13   S    
C118  H101  S    
C70   C77   S    
C143  H175  S    
C104  H77   S    
C14   C66   S    
C5    C52   S    
Cu3   N4    S    
C13   C49   T    
C57   C128  S    
N10   C142  S    
C140  H164  S    
C44   C68   S    
C122  C123  S    
C95   H57   S    
C142  H172  S    
C120  H110  S    
C127  H122  S    
C29   C62   S    
C105  H76   S    
C34   C38   S    
C31   C64   S    
C84   H27   S    
C32   C63   S    
C85   H24   S    
C37   C61   S    
C25   C27   S    
C39   C63   S    
C26   C28   S    
C40   C64   S    
C139  H160  S    
C43   H7    S    
C93   C94   S    
C19   C75   S    
C35   C107  S    
C112  H87   S    
C88   H30   S    
C71   C75   S    
C24   C74   S    
C35   C68   S    
C30   C58   S    
C111  H89   S    
C23   N5    S    
C22   C24   S    
C138  H154  S    
C41   C54   S    
C99   H61   S    
Cu3   Cu4   S    
C43   C56   S    
C32   C44   S    
C108  C109  S    
C137  H152  S    
C115  H93   S    
C42   C66   S    
C32   C60   S    
C22   C73   S    
N11   H173  S    
C44   H8    S    
C113  H98   S    
