data_mof_unit_52821.cif
_audit_creation_date              2012-12-10T17:35:32-0500
_audit_creation_method            fapswitch 2.2
_symmetry_space_group_name_H-M    P1
_symmetry_Int_Tables_number       1
_space_group_crystal_system       triclinic
_cell_length_a                    10.801629
_cell_length_b                    12.331058
_cell_length_c                    13.188713
_cell_angle_alpha                 116.697581
_cell_angle_beta                  75.986209
_cell_angle_gamma                 101.972226
_cell_volume                      1512.79756161

loop_
_atom_site_label
_atom_site_type_symbol
_atom_type_description
_atom_site_fract_x
_atom_site_fract_y
_atom_site_fract_z
_atom_type_partial_charge
C1    C     C_R   0.502463 0.854906 0.287734 0.804009
C2    C     C_3   0.124227 0.994811 0.492260 0.039641
C3    C     C_3   0.068312 0.103628 0.602530 -0.447664
C4    C     C_3   0.040747 0.876315 0.499485 0.042576
C5    C     C_R   0.344501 0.264297 0.028834 -0.173098
C6    C     C_R   0.461229 0.226737 0.836837 -0.110638
C7    C     C_R   0.513229 0.816889 0.083989 -0.204252
C8    C     C_R   0.518586 0.738614 0.967953 -0.158089
C9    C     C_R   0.501509 0.612885 0.933379 -0.099860
C10   C     C_R   0.471468 0.563332 0.015513 0.115511
C11   C     C_R   0.445177 0.643929 0.133538 0.095393
C12   C     C_R   0.740371 0.000593 0.499817 0.808522
C13   C     C_R   0.453664 0.435528 0.983164 0.010032
C14   C     C_R   0.378826 0.390039 0.063195 0.133910
C15   C     C_R   0.337124 0.470741 0.176033 -0.185053
C16   C     C_R   0.371457 0.595550 0.211363 -0.191043
C17   C     C_R   0.508204 0.351219 0.874450 0.294380
C18   C     C_R   0.380960 0.183621 0.915035 -0.258670
C19   C     C_R   0.485776 0.771065 0.167659 -0.100714
C20   C     C_R   0.721363 0.355750 0.339483 0.288775
C21   C     C_R   0.322685 0.757107 0.644524 0.075686
C22   C     C_R   0.285683 0.660715 0.677353 -0.273465
C23   C     C_R   0.483841 0.145047 0.713877 0.837790
C24   C     C_R   0.355246 0.560090 0.625140 -0.179535
C25   C     C_R   0.463624 0.554513 0.538785 0.034236
C26   C     C_R   0.497023 0.655541 0.507987 0.225779
C27   C     C_R   0.538647 0.452396 0.480860 -0.139363
C28   C     C_R   0.646972 0.454891 0.394557 -0.048909
C29   C     C_R   0.673476 0.553422 0.362629 0.356287
C30   C     C_R   0.601558 0.651039 0.420473 -0.266371
C31   C     C_R   0.510411 0.346909 0.504557 -0.025264
C32   C     C_R   0.671904 0.246631 0.350515 0.370554
C33   C     C_R   0.261026 0.996781 0.495471 0.800478
C34   C     C_3   0.965768 0.022824 0.391007 0.119079
C35   C     C_3   0.105959 0.999732 0.379085 0.096418
C36   C     C_3   0.921397 0.095862 0.612582 -0.363687
C37   C     C_3   0.902415 0.873300 0.483587 -0.510916
C38   C     C_3   0.879386 0.001000 0.497129 0.032705
Cu1   Cu    Cu3+1 0.529690 0.098270 0.475420 0.977951
Cu2   Cu    Cu3+1 0.470310 0.901730 0.524580 0.926764
H1    H     H_    0.035840 0.884748 0.588268 0.165948
H2    H     H_    0.872507 0.065761 0.681835 0.173158
H3    H     H_    0.087822 0.101048 0.680525 0.155220
H4    H     H_    0.345365 0.087674 0.888014 0.165119
H5    H     H_    0.278050 0.437242 0.237492 0.146826
H6    H     H_    0.284943 0.228911 0.088734 0.145685
H7    H     H_    0.526541 0.913485 0.108751 0.166523
H8    H     H_    0.503026 0.555452 0.842617 0.172003
H9    H     H_    0.537383 0.775517 0.904415 0.149837
H10   H     H_    0.928446 0.948410 0.313851 0.074622
H11   H     H_    0.330136 0.652755 0.297976 0.195322
H12   H     H_    0.434574 0.341084 0.572584 0.142920
H13   H     H_    0.268441 0.834940 0.685979 0.119667
H14   H     H_    0.321850 0.488220 0.653853 0.129724
H15   H     H_    0.202776 0.664059 0.743648 0.155701
H16   H     H_    0.628997 0.720940 0.390695 0.235137
H17   H     H_    0.111117 0.904233 0.313120 0.068249
H18   H     H_    0.890923 0.187063 0.642727 0.204821
H19   H     H_    0.115682 0.192855 0.605293 0.179763
H20   H     H_    0.834778 0.846053 0.548792 0.198098
H21   H     H_    0.884102 0.802481 0.397507 0.215053
N1    N     N_R   0.574690 0.246280 0.438200 -0.210202
N2    N     N_R   0.426100 0.754320 0.561190 -0.193743
O1    O     O_R   0.537340 0.972510 0.318130 -0.538825
O2    O     O_R   0.487200 0.806530 0.359650 -0.610048
O3    O     O_R   0.707380 0.082980 0.479220 -0.545994
O4    O     O_R   0.657240 0.917000 0.520740 -0.610525
O5    O     O_R   0.512800 0.193470 0.640350 -0.547166
O6    O     O_R   0.462660 0.027490 0.681870 -0.598645
O7    O     O_R   0.342760 0.083000 0.479260 -0.570981
O8    O     O_R   0.292620 0.917020 0.520780 -0.586764
N3    N     N_2   0.957375 0.135538 0.382610 -0.414462
H22   H     H_    0.001433 0.136195 0.304182 0.251909
C39   C     C_3   0.951796 0.256087 0.477594 -0.576383
H23   H     H_    0.969447 0.326078 0.443066 0.229639
H24   H     H_    0.025902 0.278259 0.530455 0.211154
H25   H     H_    0.855331 0.265815 0.531449 0.265192
Cl1   Cl    Cl    0.654213 0.394219 0.797373 -0.649625
N4    N     N_2   0.717731 0.135081 0.266243 -0.368917
H26   H     H_    0.810002 0.129125 0.268000 0.278640
C40   C     C_3   0.701833 0.104572 0.150052 -0.673693
H27   H     H_    0.765911 0.167428 0.115565 0.273469
H28   H     H_    0.601010 0.109939 0.148258 0.217133
H29   H     H_    0.728314 0.011149 0.092443 0.221017
Cl2   Cl    Cl    0.780919 0.555006 0.238426 -0.570988
Cl3   Cl    Cl    0.883065 0.367002 0.270215 -0.651085
N5    N     N_2   0.207852 0.066705 0.325398 -0.416179
H30   H     H_    0.216710 0.030893 0.236937 0.229793
C41   C     C_3   0.245212 0.197524 0.376133 -0.567203
H31   H     H_    0.347986 0.215242 0.341828 0.216276
H32   H     H_    0.234646 0.236575 0.470490 0.220330
H33   H     H_    0.191922 0.245565 0.349863 0.204181
N6    N     N_2   0.094897 0.763058 0.417366 -0.426437
H34   H     H_    0.093655 0.737957 0.331823 0.269443
C42   C     C_3   0.055814 0.660922 0.448664 -0.576613
H35   H     H_    0.105770 0.581389 0.383197 0.239953
H36   H     H_    0.950508 0.634682 0.452919 0.259087
H37   H     H_    0.082000 0.684828 0.533218 0.207981

loop_
_geom_bond_atom_site_label_1
_geom_bond_atom_site_label_2
_ccdc_geom_bond_type
C2    C35   S    
N5    H30   S    
N6    H34   S    
Cu2   O8    S    
Cu1   O5    S    
C23   O6    A    
C36   H2    S    
C42   H35   S    
C16   H11   S    
C31   H12   S    
C40   H27   S    
C42   H37   S    
C7    C8    A    
Cu1   O1    S    
C11   C19   A    
C37   C38   S    
Cu2   N2    S    
C39   H24   S    
C28   C29   A    
C36   H18   S    
C4    H1    S    
C24   H14   S    
C15   C16   A    
C34   C35   S    
Cu1   N1    S    
C35   N5    S    
C8    C9    A    
Cu2   O4    S    
C20   Cl3   S    
C1    O2    A    
C41   H32   S    
C9    C10   A    
C29   Cl2   S    
N6    C42   S    
C21   C22   A    
C31   N1    A    
C40   H28   S    
C6    C18   A    
C12   O4    A    
C34   H10   S    
C1    C19   S    
Cu2   O6    S    
C27   C31   A    
C24   C25   A    
N3    C39   S    
C39   H23   S    
Cu1   Cu2   S    
N4    C40   S    
C5    C18   A    
C20   C28   A    
C25   C26   A    
C12   O3    A    
C39   H25   S    
C4    N6    S    
C7    H7    S    
C23   O5    A    
C2    C4    S    
C26   N2    A    
C29   C30   A    
C18   H4    S    
C11   C16   A    
C3    H3    S    
C41   H33   S    
C5    C14   A    
C33   O7    A    
C2    C33   S    
C26   C30   A    
C7    C19   A    
Cu2   O2    S    
N5    C41   S    
Cu1   O3    S    
C22   C24   A    
C15   H5    S    
C1    O1    A    
C34   N3    S    
C40   H29   S    
C20   C32   A    
C6    C17   A    
C34   C38   S    
N3    H22   S    
C10   C13   A    
C37   H21   S    
C42   H36   S    
C22   H15   S    
C25   C27   A    
C5    H6    S    
C13   C17   A    
C35   H17   S    
C36   C38   S    
C2    C3    S    
C32   N1    A    
C32   N4    S    
C21   H13   S    
C30   H16   S    
C3    C36   S    
C6    C23   S    
C17   Cl1   S    
Cu1   O7    S    
C12   C38   S    
C21   N2    A    
C37   H20   S    
C10   C11   A    
C33   O8    A    
N4    H26   S    
C4    C37   S    
C9    H8    S    
C27   C28   A    
C14   C15   A    
C41   H31   S    
C13   C14   A    
C8    H9    S    
C3    H19   S    
