data_mof_unit_52316.cif
_audit_creation_date              2012-12-10T17:48:43-0500
_audit_creation_method            fapswitch 2.2
_symmetry_space_group_name_H-M    P1
_symmetry_Int_Tables_number       1
_space_group_crystal_system       triclinic
_cell_length_a                    15.736205
_cell_length_b                    10.728233
_cell_length_c                    9.888151
_cell_angle_alpha                 89.48491
_cell_angle_beta                  89.928596
_cell_angle_gamma                 91.661014
_cell_volume                      1668.56344728

loop_
_atom_site_label
_atom_site_type_symbol
_atom_type_description
_atom_site_fract_x
_atom_site_fract_y
_atom_site_fract_z
_atom_type_partial_charge
C1    C     C_R   0.505584 0.259956 0.501652 0.862677
C2    C     C_3   0.949210 0.437197 0.629232 -0.438657
C3    C     C_3   0.917432 0.498948 0.497037 0.288112
C4    C     C_3   0.953993 0.634538 0.489956 -0.377133
C5    C     C_3   0.052033 0.634064 0.489447 -0.393290
C6    C     C_1   0.825946 0.499326 0.498532 -0.071160
C7    C     C_1   0.174057 0.498503 0.499762 -0.107555
C8    C     C_1   0.249397 0.498910 0.500204 -0.182642
C9    C     C_R   0.522081 0.109282 0.760171 -0.159935
C10   C     C_R   0.496247 0.047399 0.878552 -0.139949
C11   C     C_R   0.450993 0.934644 0.870750 -0.160067
C12   C     C_R   0.338317 0.499533 0.500133 0.885940
C13   C     C_R   0.439351 0.878148 0.745540 -0.157337
C14   C     C_R   0.472854 0.934943 0.626034 0.097986
C15   C     C_R   0.502139 0.058927 0.631243 0.093830
C16   C     C_R   0.509434 0.126065 0.506769 -0.120118
C17   C     C_R   0.506198 0.063970 0.383124 -0.219572
C18   C     C_R   0.495271 0.937089 0.381042 -0.217763
C19   C     C_R   0.481103 0.871628 0.501891 -0.129555
C20   C     C_R   0.388945 0.335559 0.141888 -0.161100
C21   C     C_R   0.334571 0.254338 0.072287 -0.209879
C22   C     C_R   0.334484 0.254640 0.932367 -0.181403
C23   C     C_R   0.491499 0.739003 0.500062 0.881600
C24   C     C_R   0.388920 0.335952 0.861276 -0.150099
C25   C     C_R   0.445348 0.418938 0.928435 0.149127
C26   C     C_R   0.445370 0.418879 0.073181 0.165687
C27   C     C_R   0.552005 0.577958 0.070705 -0.108537
C28   C     C_R   0.551973 0.577937 0.927429 -0.109760
C29   C     C_R   0.661688 0.500264 0.499857 0.915044
C30   C     C_3   0.047279 0.436543 0.629958 -0.394910
C31   C     C_3   0.048424 0.424915 0.375208 -0.412806
C32   C     C_3   0.950049 0.423289 0.374769 0.024681
C33   C     C_1   0.750609 0.499782 0.499492 -0.153488
C34   C     C_3   0.082623 0.498412 0.498708 0.315594
H1    H     H_    0.923333 0.339755 0.638080 0.174083
H2    H     H_    0.071779 0.487695 0.720001 0.187139
H3    H     H_    0.926470 0.488930 0.718817 0.201732
H4    H     H_    0.931130 0.683277 0.397787 0.201514
H5    H     H_    0.513019 0.113100 0.287266 0.173471
H6    H     H_    0.559789 0.194078 0.772314 0.172446
H7    H     H_    0.509776 0.088393 0.976161 0.143991
H8    H     H_    0.403531 0.790608 0.743328 0.161284
H9    H     H_    0.499280 0.890359 0.284598 0.169848
H10   H     H_    0.594431 0.641624 0.123947 0.154234
H11   H     H_    0.068711 0.338779 0.638352 0.170955
H12   H     H_    0.384490 0.330321 0.249086 0.206527
H13   H     H_    0.292074 0.191007 0.127445 0.151011
H14   H     H_    0.292124 0.191290 0.878374 0.151523
H15   H     H_    0.385138 0.330409 0.754130 0.207514
H16   H     H_    0.594333 0.641652 0.872714 0.158270
H17   H     H_    0.074084 0.468235 0.280453 0.201765
H18   H     H_    0.926288 0.324872 0.384978 0.134137
H19   H     H_    0.077007 0.689194 0.576392 0.170504
H20   H     H_    0.076563 0.679898 0.395159 0.180678
H21   H     H_    0.931811 0.688071 0.578606 0.169997
N1    N     N_R   0.499210 0.498800 0.142780 -0.122925
N2    N     N_R   0.499180 0.498720 0.857170 -0.127943
O1    O     O_R   0.500000 0.316780 0.614690 -0.654416
O2    O     O_R   0.499990 0.316750 0.385360 -0.639250
O3    O     O_R   0.377150 0.500020 0.614720 -0.638819
O4    O     O_R   0.377140 0.499990 0.385380 -0.631307
O5    O     O_R   0.500010 0.683250 0.614640 -0.624874
O6    O     O_R   0.500000 0.683220 0.385310 -0.620961
O7    O     O_R   0.622860 0.500010 0.614620 -0.614527
O8    O     O_R   0.622850 0.499980 0.385280 -0.596051
Zn1   Zn    Zn3+2 0.500010 0.500020 0.653130 0.926180
Zn2   Zn    Zn3+2 0.499990 0.499980 0.346870 0.942498
H22   H     H_    0.427323 0.889011 0.961960 0.138570
H23   H     H_    0.070773 0.327416 0.379039 0.153903
I1    I     I_    0.902808 0.486908 0.181508 -0.456267

loop_
_geom_bond_atom_site_label_1
_geom_bond_atom_site_label_2
_ccdc_geom_bond_type
C2    H1    S    
C19   C23   S    
C31   H17   S    
N1    Zn2   S    
C9    C10   A    
O4    Zn2   S    
C30   H11   S    
C22   H14   S    
C31   C32   S    
C14   C15   A    
C6    C33   T    
C30   H2    S    
N2    Zn1   S    
C8    C12   S    
C3    C6    S    
C5    C34   S    
C23   O6    A    
C17   C18   A    
C9    C15   A    
C29   O7    A    
O3    Zn1   S    
C7    C8    T    
C1    C16   S    
C28   N2    A    
C1    O1    A    
C20   C21   A    
C10   H7    S    
C11   H22   S    
C12   O4    A    
C11   C13   A    
C2    H3    S    
O7    Zn1   S    
C16   C17   A    
C20   C26   A    
C29   O8    A    
C14   C19   A    
C5    H19   S    
C13   H8    S    
C4    H4    S    
C21   C22   A    
C2    C3    S    
O6    Zn2   S    
C1    O2    A    
C4    H21   S    
C3    C32   S    
C7    C34   S    
C22   C24   A    
C31   C34   S    
O8    Zn2   S    
C10   C11   A    
C30   C34   S    
C3    C4    S    
C25   N2    A    
C29   C33   S    
C5    H20   S    
C31   H23   S    
C2    C30   S    
C24   C25   A    
C18   C19   A    
C17   H5    S    
C18   H9    S    
C24   H15   S    
C21   H13   S    
O5    Zn1   S    
C27   N1    A    
C32   H18   S    
C32   I1    S    
C23   O5    A    
O2    Zn2   S    
C25   C26   A    
C13   C14   A    
C28   H16   S    
C27   H10   S    
O1    Zn1   S    
C9    H6    S    
C20   H12   S    
C15   C16   A    
C26   N1    A    
C4    C5    S    
C27   C28   A    
C12   O3    A    
