data_mof_unit_65052.cif
_audit_creation_date              2012-12-10T19:00:46-0500
_audit_creation_method            fapswitch 2.2
_symmetry_space_group_name_H-M    P1
_symmetry_Int_Tables_number       1
_space_group_crystal_system       triclinic
_cell_length_a                    13.380942
_cell_length_b                    14.261987
_cell_length_c                    13.721192
_cell_angle_alpha                 89.999955
_cell_angle_beta                  83.359398
_cell_angle_gamma                 90.0
_cell_volume                      2600.96851945

loop_
_atom_site_label
_atom_site_type_symbol
_atom_type_description
_atom_site_fract_x
_atom_site_fract_y
_atom_site_fract_z
_atom_type_partial_charge
C1    C     C_R   0.500000 0.673442 0.500000 0.939456
C2    C     C_2   0.456488 0.538236 0.979128 -0.009607
C3    C     C_1   0.460805 0.523902 0.876505 -0.038916
C4    C     C_1   0.539195 0.523907 0.123496 -0.038927
C5    C     C_1   0.500000 0.774094 0.500000 -0.209711
C6    C     C_1   0.500000 0.225895 0.500000 -0.217008
C7    C     C_1   0.500000 0.858656 0.500000 0.006474
C8    C     C_1   0.500000 0.141332 0.500000 -0.000964
C9    C     C_1   0.500000 0.957715 0.500000 0.019353
C10   C     C_1   0.500000 0.042272 0.500000 0.016812
C11   C     C_1   0.830553 0.500002 0.500017 0.092715
C12   C     C_R   0.500000 0.326549 0.500000 0.910790
C13   C     C_1   0.169447 0.500002 0.499983 0.092715
C14   C     C_2   0.353720 0.542206 0.034060 0.402022
C15   C     C_2   0.646278 0.542228 0.965942 0.402026
C16   C     C_1   0.950478 0.500004 0.500006 -0.036131
C17   C     C_1   0.049522 0.500004 0.499994 -0.036131
C18   C     C_R   0.483012 0.497088 0.688542 0.927236
C19   C     C_R   0.516988 0.497089 0.311457 0.927238
C20   C     C_1   0.530275 0.510521 0.209507 -0.129837
C21   C     C_1   0.469725 0.510518 0.790493 -0.129834
C22   C     C_2   0.543510 0.538243 0.020873 -0.009607
H1    H     H_    0.289194 0.523540 0.996830 0.063253
H2    H     H_    0.710809 0.523583 0.003177 0.063255
N1    N     N_1   0.738130 0.500000 0.500020 -0.058240
N2    N     N_1   0.261870 0.500000 0.499980 -0.058239
O1    O     O_R   0.423530 0.626280 0.499990 -0.590844
O2    O     O_2   0.660897 0.569112 0.881009 -0.549206
O3    O     O_R   0.576470 0.373720 0.500010 -0.599443
O4    O     O_R   0.576470 0.626280 0.500010 -0.590844
O5    O     O_R   0.423530 0.373720 0.499990 -0.599443
O6    O     O_R   0.412540 0.500000 0.640340 -0.619350
O7    O     O_R   0.587460 0.500000 0.359660 -0.619351
O8    O     O_R   0.565450 0.500000 0.640350 -0.576639
O9    O     O_R   0.434550 0.500000 0.359650 -0.576641
O10   O     O_2   0.339096 0.569103 0.118988 -0.549202
Zn1   Zn    Zn3+2 0.397910 0.500000 0.499990 0.990386
Zn2   Zn    Zn3+2 0.602090 0.500000 0.500010 0.990386

loop_
_geom_bond_atom_site_label_1
_geom_bond_atom_site_label_2
_ccdc_geom_bond_type
C14   H1    S    
O3    Zn2   S    
N2    Zn1   S    
C2    C22   D    
N1    Zn2   S    
C18   C21   S    
C4    C22   S    
C11   C16   S    
C19   C20   S    
C13   C17   S    
C2    C3    S    
C19   O9    A    
O6    Zn1   S    
C14   O10   D    
C18   O8    A    
C15   O2    D    
O1    Zn1   S    
C1    C5    S    
C15   H2    S    
O9    Zn1   S    
C5    C7    T    
C12   O5    A    
C6    C12   S    
C2    C14   S    
C13   N2    T    
C3    C21   T    
C18   O6    A    
C11   N1    T    
C4    C20   T    
C7    C9    S    
O4    Zn2   S    
C8    C10   S    
C9    C10   T    
C1    O1    A    
C1    O4    A    
O7    Zn2   S    
C6    C8    T    
O8    Zn2   S    
C15   C22   S    
O5    Zn1   S    
C19   O7    A    
C16   C17   T    
C12   O3    A    
