data_mof_unit_15035.cif
_audit_creation_date              2012-12-11T15:53:44-0500
_audit_creation_method            fapswitch 2.2
_symmetry_space_group_name_H-M    P1
_symmetry_Int_Tables_number       1
_space_group_crystal_system       triclinic
_cell_length_a                    10.622753
_cell_length_b                    10.749085
_cell_length_c                    16.994396
_cell_angle_alpha                 80.033117
_cell_angle_beta                  99.553697
_cell_angle_gamma                 118.265285
_cell_volume                      1675.41941923

loop_
_atom_site_label
_atom_site_type_symbol
_atom_type_description
_atom_site_fract_x
_atom_site_fract_y
_atom_site_fract_z
_atom_type_partial_charge
C1    C     C_R   0.358781 0.223954 0.626603 0.562566
C2    C     C_1   0.293243 0.109689 0.772071 -0.037691
C3    C     C_1   0.319051 0.683980 0.280313 -0.065563
C4    C     C_R   0.367246 0.652591 0.585038 0.579223
C5    C     C_1   0.296941 0.706529 0.209490 -0.075841
C6    C     C_R   0.780575 0.643973 0.144056 -0.005595
C7    C     C_R   0.739430 0.510727 0.189482 0.050912
C8    C     C_R   0.712515 0.493598 0.268396 -0.011865
C9    C     C_R   0.710227 0.718409 0.250081 -0.160817
C10   C     C_R   0.744365 0.739299 0.170345 -0.159656
C11   C     C_3   0.815436 0.420361 0.209714 0.005104
C12   C     C_R   0.384279 0.800657 0.683894 0.011772
C13   C     C_3   0.793896 0.411009 0.297115 -0.242205
C14   C     C_R   0.710675 0.601059 0.302540 -0.010078
C15   C     C_R   0.279272 0.083795 0.175761 -0.041305
C16   C     C_R   0.720881 0.587421 0.633357 0.554546
C17   C     C_R   0.199913 0.140721 0.199033 0.025228
C18   C     C_R   0.212303 0.159026 0.277680 0.010547
C19   C     C_R   0.400612 0.086927 0.311509 -0.002136
C20   C     C_R   0.378322 0.055795 0.231794 -0.198728
C21   C     C_3   0.039070 0.081715 0.190613 0.038606
C22   C     C_3   0.053356 0.098308 0.279535 0.045325
C23   C     C_R   0.398602 0.808839 0.765581 -0.173051
C24   C     C_R   0.314047 0.140224 0.334625 -0.023306
C25   C     C_R   0.885190 0.699594 0.857161 0.544421
C26   C     C_R   0.313993 0.709602 0.896552 0.563415
C27   C     C_R   0.251881 0.057615 0.851408 0.565165
C28   C     C_R   0.348319 0.218275 0.403479 0.541829
C29   C     C_R   0.879061 0.687509 0.081233 0.522178
C30   C     C_R   0.284361 0.737846 0.125211 0.548578
C31   C     C_R   0.250011 0.044597 0.095698 0.551362
C32   C     C_R   0.362572 0.657413 0.361880 0.554214
C33   C     C_R   0.701311 0.584732 0.389324 0.565302
C34   C     C_3   0.115516 0.426750 0.796985 0.033395
C35   C     C_R   0.331662 0.685821 0.819154 -0.011172
C36   C     C_R   0.260919 0.553124 0.789420 -0.015345
C37   C     C_R   0.255974 0.544457 0.708705 0.005853
C38   C     C_2   0.420821 0.930661 0.627955 0.601835
C39   C     C_3   0.705605 0.284386 0.091428 -0.260904
C40   C     C_2   0.508490 0.055658 0.367209 0.573915
C41   C     C_3   0.045053 0.258036 0.068562 -0.239657
C42   C     C_3   0.091198 0.349551 0.273896 -0.202659
C43   C     C_3   0.869002 0.332195 0.828288 -0.287316
C44   C     C_3   0.960241 0.169745 0.701388 -0.287843
C45   C     C_3   0.103743 0.427377 0.706356 0.007205
C46   C     C_R   0.317644 0.667673 0.655208 -0.010335
C47   C     C_1   0.773117 0.630177 0.712336 -0.052483
C48   C     C_1   0.819005 0.670225 0.777832 -0.059962
C49   C     C_1   0.329816 0.156689 0.705775 -0.006746
Cr1   Cr    Cr6+3 0.608440 0.389080 0.519680 1.065680
Cr2   Cr    Cr6+3 0.288640 0.400090 0.490760 1.003056
Cr3   Cr    Cr6+3 0.602940 0.710800 0.489510 1.056043
Cr4   Cr    Cr6+3 0.052530 0.947560 0.964210 0.977733
Cr5   Cr    Cr6+3 0.059970 0.626800 0.992920 0.974636
Cr6   Cr    Cr6+3 0.373320 0.938440 0.995370 0.982096
H1    H     H_    0.726291 0.304097 0.325826 0.182813
H2    H     H_    0.756377 0.835789 0.132862 0.134127
H3    H     H_    0.929508 0.477486 0.198040 0.158308
H4    H     H_    0.347230 0.028757 0.533972 0.363905
H5    H     H_    0.647449 0.212161 0.206572 0.290149
H6    H     H_    0.652588 0.173576 0.075672 0.143572
H7    H     H_    0.805772 0.342614 0.061769 0.169062
H8    H     H_    0.632703 0.332846 0.068590 0.169869
H9    H     H_    0.681704 0.020145 0.379652 0.341205
H10   H     H_    0.869263 0.122755 0.133846 0.255240
H11   H     H_    0.004678 0.195219 0.016440 0.152456
H12   H     H_    0.895284 0.472839 0.333936 0.128631
H13   H     H_    0.163991 0.309410 0.078395 0.187025
H14   H     H_    0.014885 0.345355 0.054037 0.138784
H15   H     H_    0.899392 0.162573 0.291199 0.276849
H16   H     H_    0.068049 0.376603 0.209426 0.169011
H17   H     H_    0.063903 0.409416 0.308959 0.131414
H18   H     H_    0.208135 0.385843 0.284835 0.182014
H19   H     H_    0.000576 0.542276 0.786334 0.271633
H20   H     H_    0.797397 0.358788 0.854791 0.170248
H21   H     H_    0.881196 0.244718 0.868684 0.118085
H22   H     H_    0.816711 0.295939 0.768676 0.154933
H23   H     H_    0.435790 0.006839 0.213420 0.171791
H24   H     H_    0.093883 0.312690 0.620165 0.297924
H25   H     H_    0.959960 0.079308 0.677989 0.164715
H26   H     H_    0.862723 0.180013 0.673723 0.165644
H27   H     H_    0.957230 0.144683 0.767309 0.166478
H28   H     H_    0.985735 0.970507 0.176798 0.113206
H29   H     H_    0.006573 0.995102 0.317929 0.117866
H30   H     H_    0.447648 0.913914 0.785398 0.157239
H31   H     H_    0.125199 0.335284 0.834281 0.177926
H32   H     H_    0.026261 0.463304 0.671024 0.149118
H33   H     H_    0.695795 0.799188 0.271972 0.160095
N1    N     N_2   0.735703 0.283414 0.177649 -0.520055
N2    N     N_2   0.979844 0.169432 0.139633 -0.513576
N3    N     N_2   0.008976 0.198660 0.297943 -0.472413
N4    N     N_2   0.007450 0.455663 0.819838 -0.478015
N5    N     N_2   0.088496 0.298641 0.681109 -0.497404
O1    O     O_R   0.754020 0.497590 0.609930 -0.504645
O2    O     O_R   0.406180 0.826930 0.920660 -0.530892
O3    O     O_R   0.358620 0.062870 0.901950 -0.497693
O4    O     O_R   0.481420 0.271390 0.600630 -0.475107
O5    O     O_R   0.163910 0.085460 0.050210 -0.514691
O6    O     O_R   0.935200 0.815170 0.045770 -0.517623
O7    O     O_R   0.916120 0.596690 0.069430 -0.542761
O8    O     O_R   0.192310 0.631200 0.086170 -0.509912
O9    O     O_R   0.406770 0.819480 0.096420 -0.509417
O10   O     O_R   0.359170 0.055960 0.064880 -0.517380
O11   O     O_3   0.161940 0.837600 0.984160 -0.293878
O12   O     O_R   0.295080 0.533620 0.397890 -0.525207
O13   O     O_R   0.263810 0.254550 0.589590 -0.523226
O14   O     O_R   0.300820 0.531200 0.560890 -0.517279
O15   O     O_R   0.491480 0.744020 0.564270 -0.477583
O16   O     O_R   0.726290 0.693800 0.583010 -0.482585
O17   O     O_R   0.747830 0.500190 0.434090 -0.504041
O18   O     O_R   0.475680 0.273800 0.437630 -0.490459
O19   O     O_R   0.257620 0.257160 0.413750 -0.498975
O20   O     O_2   0.534033 0.037363 0.639579 -0.515920
O21   O     O_R   0.320960 0.930916 0.563197 -0.679815
O22   O     O_2   0.506772 0.043370 0.439739 -0.472503
O23   O     O_R   0.485280 0.746620 0.388440 -0.478017
O24   O     O_R   0.611664 0.036785 0.336224 -0.741785
O25   O     O_R   0.720550 0.696220 0.420010 -0.501800
O26   O     O_3   0.500010 0.499990 0.499980 -0.305469
O27   O     O_R   0.163320 0.092900 0.874450 -0.515856
O28   O     O_R   0.934650 0.822080 0.882840 -0.503832
O29   O     O_R   0.915520 0.604140 0.893670 -0.514817
O30   O     O_R   0.191760 0.638110 0.923230 -0.466191

loop_
_geom_bond_atom_site_label_1
_geom_bond_atom_site_label_2
_ccdc_geom_bond_type
Cr5   O30   S    
C8    C13   S    
Cr5   O8    S    
C35   C36   A    
C25   O29   A    
C45   N5    S    
C14   C33   S    
Cr4   O27   S    
C7    C8    A    
C4    C46   S    
C27   O27   A    
Cr4   O6    S    
C7    C11   S    
C4    O15   A    
Cr6   O9    S    
Cr2   O19   S    
C18   C24   A    
Cr5   O11   S    
C36   C37   A    
C45   H32   S    
H24   N5    S    
C44   H27   S    
H4    O21   S    
C9    H33   S    
C38   O21   S    
C40   O22   D    
Cr4   O11   S    
Cr6   O10   S    
Cr1   O17   S    
C42   N3    S    
C34   H31   S    
C31   O5    A    
H19   N4    S    
C42   H16   S    
C44   N5    S    
C21   H28   S    
C42   H18   S    
C1    C49   S    
Cr2   O26   S    
C22   N3    S    
C2    C27   S    
C11   H3    S    
C9    C10   A    
C1    O13   A    
C13   H1    S    
C41   N2    S    
Cr5   O29   S    
C33   O25   A    
C21   C22   S    
Cr5   O7    S    
C27   O3    A    
C15   C20   A    
C16   C47   S    
C16   O16   A    
C41   H13   S    
C21   N2    S    
Cr3   O23   S    
C28   O18   A    
C43   H20   S    
H10   N2    S    
C39   H6    S    
C4    O14   A    
C29   O6    A    
Cr1   O26   S    
C44   H25   S    
C10   H2    S    
Cr6   O2    S    
C44   H26   S    
C1    O4    A    
C38   O20   D    
Cr1   O1    S    
H5    N1    S    
Cr6   O11   S    
C17   C21   S    
H9    O24   S    
C31   O10   A    
C9    C14   A    
C2    C49   T    
C11   N1    S    
C47   C48   T    
C12   C23   A    
Cr2   O12   S    
C30   O9    A    
C42   H17   S    
C17   C18   A    
C34   C45   S    
C32   O23   A    
H15   N3    S    
C41   H11   S    
C12   C46   A    
C23   C35   A    
C32   O12   A    
C26   O30   A    
C37   C45   S    
C41   H14   S    
C5    C30   S    
C13   H12   S    
C26   O2    A    
C15   C17   A    
C39   H7    S    
Cr1   O4    S    
C8    C14   A    
C29   O7    A    
C18   C22   S    
C24   C28   S    
Cr6   O3    S    
C3    C5    T    
C6    C10   A    
C15   C31   S    
C6    C7    A    
Cr4   O5    S    
C43   H22   S    
C39   H8    S    
C16   O1    A    
C43   N4    S    
C20   H23   S    
C19   C20   A    
C19   C24   A    
Cr4   O28   S    
C11   C13   S    
C25   O28   A    
Cr3   O16   S    
Cr2   O13   S    
C30   O8    A    
Cr1   O18   S    
C39   N1    S    
C40   O24   S    
C34   C36   S    
C12   C38   S    
C3    C32   S    
C34   N4    S    
C19   C40   S    
Cr3   O26   S    
C26   C35   S    
C6    C29   S    
Cr3   O15   S    
Cr2   O14   S    
C23   H30   S    
C43   H21   S    
C33   O17   A    
C37   C46   A    
C25   C48   S    
C28   O19   A    
C22   H29   S    
Cr3   O25   S    
