data_mof_unit_28626.cif
_audit_creation_date              2012-12-11T15:30:40-0500
_audit_creation_method            fapswitch 2.2
_symmetry_space_group_name_H-M    P1
_symmetry_Int_Tables_number       1
_space_group_crystal_system       triclinic
_cell_length_a                    6.961682
_cell_length_b                    20.477103
_cell_length_c                    24.422813
_cell_angle_alpha                 89.720732
_cell_angle_beta                  90.443848
_cell_angle_gamma                 89.452373
_cell_volume                      3481.28993338

loop_
_atom_site_label
_atom_site_type_symbol
_atom_type_description
_atom_site_fract_x
_atom_site_fract_y
_atom_site_fract_z
_atom_type_partial_charge
O1    O     O_R   0.507310 0.423620 0.460450 -0.536527
O2    O     O_R   0.170760 0.556060 0.437190 -0.532463
O3    O     O_R   0.004040 0.576380 0.539550 -0.535315
C1    C     C_R   0.338806 0.576139 0.421281 0.726299
O4    O     O_R   0.177350 0.422870 0.454070 -0.537537
O5    O     O_R   0.010680 0.442240 0.556560 -0.536916
C2    C     C_R   0.346300 0.399000 0.443406 0.694631
O6    O     O_R   0.500670 0.557760 0.443440 -0.534766
O7    O     O_3   0.340380 0.506510 0.533610 -0.370098
V1    V     V_3+5 0.064130 0.498790 0.493770 1.448910
O8    O     O_R   0.681170 0.443940 0.562810 -0.539279
C3    C     C_R   0.850870 0.423905 0.578657 0.720508
O9    O     O_R   0.674570 0.577130 0.545930 -0.538012
C4    C     C_R   0.842630 0.601057 0.556545 0.697022
V2    V     V_3+5 0.564560 0.501210 0.506230 1.438463
O10   O     O_3   0.838170 0.493490 0.466390 -0.364372
C5    C     C_R   0.976687 0.838340 0.911083 -0.044604
C6    C     C_R   0.847309 0.661758 0.588735 -0.053578
C7    C     C_R   0.042071 0.722448 0.905735 -0.157984
C8    C     C_R   0.032599 0.779698 0.936068 -0.166964
C9    C     C_R   0.930777 0.839484 0.854874 -0.207701
C10   C     C_R   0.942632 0.781742 0.822561 0.086354
C11   C     C_R   0.999068 0.722955 0.849489 0.139438
C12   C     C_R   0.903205 0.780234 0.764683 0.049735
C13   C     C_R   0.920961 0.719962 0.735085 0.061607
C14   C     C_R   0.976955 0.663252 0.764374 -0.186035
C15   C     C_R   0.014643 0.664905 0.820226 -0.199775
C16   C     C_R   0.847242 0.836945 0.735385 -0.172091
C17   C     C_R   0.809518 0.835275 0.679526 -0.176199
C18   C     C_R   0.825032 0.777208 0.650271 0.117420
C19   C     C_R   0.881491 0.718437 0.677214 0.088667
C20   C     C_R   0.781953 0.777668 0.594023 -0.133930
C21   C     C_R   0.791365 0.720385 0.563717 -0.145318
C22   C     C_R   0.893309 0.660674 0.644930 -0.212254
H1    H     H_    0.057786 0.619989 0.840775 0.123447
H2    H     H_    0.932994 0.613882 0.662120 0.092748
H3    H     H_    0.753627 0.721683 0.520592 0.133968
H4    H     H_    0.766383 0.880187 0.658969 0.147975
H5    H     H_    0.085900 0.677607 0.926247 0.117820
H6    H     H_    0.070292 0.778364 0.979194 0.109310
H7    H     H_    0.891126 0.886288 0.837696 0.106980
H8    H     H_    0.993784 0.616299 0.745310 0.121281
H9    H     H_    0.830469 0.883902 0.754455 0.144857
H10   H     H_    0.738109 0.822495 0.573490 0.140464
C23   C     C_3   0.754220 0.254016 0.799375 -0.293295
C24   C     C_3   0.115796 0.249521 0.785943 -0.163805
C25   C     C_3   0.093892 0.299551 0.737642 -0.402335
H11   H     H_    0.747247 0.354538 0.768037 0.144873
H12   H     H_    0.766505 0.280355 0.838899 0.145684
H13   H     H_    0.237561 0.215896 0.776128 0.158742
H14   H     H_    0.109680 0.350698 0.752210 0.143903
H15   H     H_    0.211037 0.291005 0.707667 0.148365
C26   C     C_1   0.863568 0.378454 0.624369 -0.191753
C27   C     C_3   0.929813 0.207507 0.791283 0.118042
C28   C     C_3   0.736705 0.304136 0.751517 -0.334326
C29   C     C_3   0.896211 0.292498 0.708553 0.222295
C30   C     C_3   0.879145 0.221358 0.687613 -0.336897
C31   C     C_3   0.902020 0.171294 0.735664 0.140440
C32   C     C_1   0.877144 0.339978 0.662307 -0.065152
C33   C     C_1   0.947689 0.159863 0.837626 0.018197
C34   C     C_1   0.960792 0.121429 0.875589 -0.123363
H16   H     H_    0.031345 0.140402 0.727962 0.129948
H17   H     H_    0.737968 0.215404 0.666683 0.186239
H18   H     H_    0.619877 0.225308 0.801769 0.219536
H19   H     H_    0.592734 0.299867 0.731790 0.155436
H20   H     H_    0.991781 0.211641 0.656521 0.136124
C35   C     C_3   0.599930 0.721496 0.281561 -0.340992
C36   C     C_3   0.306460 0.680739 0.236433 0.086410
C37   C     C_3   0.321382 0.732161 0.189517 -0.349548
H21   H     H_    0.716784 0.748149 0.201300 0.177436
H22   H     H_    0.672384 0.674634 0.271412 0.194630
H23   H     H_    0.399266 0.638327 0.225259 0.155815
H24   H     H_    0.396692 0.709872 0.154070 0.152495
H25   H     H_    0.175569 0.747017 0.174891 0.181385
C38   C     C_1   0.474986 0.878555 0.124751 -0.181963
C39   C     C_3   0.383255 0.708994 0.291978 0.066604
C40   C     C_3   0.627592 0.771099 0.233695 -0.308143
C41   C     C_3   0.431308 0.793352 0.209149 0.136539
C42   C     C_3   0.311577 0.825227 0.255349 -0.304007
C43   C     C_3   0.286453 0.777314 0.305325 0.234911
C44   C     C_1   0.458191 0.840350 0.162794 -0.051928
C45   C     C_1   0.362787 0.660651 0.337871 0.008761
C46   C     C_1   0.348620 0.621862 0.375579 -0.128389
H26   H     H_    0.382888 0.870902 0.268706 0.189605
H27   H     H_    0.672376 0.739260 0.319108 0.224178
H28   H     H_    0.706679 0.814389 0.248848 0.206114
H29   H     H_    0.169779 0.840641 0.237964 0.150557
C47   C     C_R   0.471667 0.161734 0.088783 -0.047916
C48   C     C_R   0.352797 0.338340 0.411183 -0.044555
C49   C     C_R   0.527583 0.277841 0.093841 -0.153525
C50   C     C_R   0.520483 0.220505 0.063593 -0.157577
C51   C     C_R   0.430458 0.160550 0.145081 -0.211812
C52   C     C_R   0.439889 0.218385 0.177288 0.088334
C53   C     C_R   0.489131 0.277303 0.150178 0.130805
C54   C     C_R   0.404786 0.219863 0.235227 0.055324
C55   C     C_R   0.419633 0.280236 0.264724 0.054364
C56   C     C_R   0.468437 0.337083 0.235266 -0.174693
C57   C     C_R   0.501953 0.335457 0.179345 -0.187872
C58   C     C_R   0.355910 0.163018 0.264678 -0.179394
C59   C     C_R   0.322329 0.164645 0.320593 -0.184486
C60   C     C_R   0.335188 0.222793 0.349762 0.130303
C61   C     C_R   0.384544 0.281709 0.322665 0.086791
C62   C     C_R   0.296629 0.222250 0.406091 -0.148671
C63   C     C_R   0.303770 0.279575 0.436346 -0.165923
C64   C     C_R   0.394082 0.339534 0.354887 -0.206888
H30   H     H_    0.539576 0.380480 0.158661 0.134508
H31   H     H_    0.428578 0.386423 0.337595 0.100560
H32   H     H_    0.269738 0.278196 0.479555 0.110387
H33   H     H_    0.284620 0.119625 0.341270 0.142005
H34   H     H_    0.565865 0.322788 0.073180 0.121983
H35   H     H_    0.554370 0.221883 0.020373 0.124158
H36   H     H_    0.396101 0.113655 0.162384 0.096090
H37   H     H_    0.482605 0.384126 0.254249 0.133519
H38   H     H_    0.341674 0.115979 0.245695 0.129802
H39   H     H_    0.258209 0.177308 0.426737 0.127712
O11   O     O_R   0.323590 0.942280 0.056590 -0.537583
O12   O     O_R   0.647030 0.077140 0.045940 -0.539311
O13   O     O_R   0.813570 0.057750 0.943430 -0.531771
C65   C     C_R   0.478115 0.101060 0.056582 0.698128
O14   O     O_R   0.653510 0.943950 0.062820 -0.537979
O15   O     O_R   0.820100 0.923600 0.960440 -0.536665
C66   C     C_R   0.485421 0.923908 0.078769 0.716509
O16   O     O_R   0.317060 0.076430 0.039590 -0.536000
O17   O     O_3   0.483830 0.993520 0.966410 -0.362341
V3    V     V_3+5 0.760140 0.001200 0.006230 1.446290
O18   O     O_R   0.149560 0.922820 0.954030 -0.538013
C67   C     C_R   0.981445 0.898984 0.943339 0.695283
O19   O     O_R   0.143080 0.056020 0.937150 -0.532772
C68   C     C_R   0.973383 0.076044 0.921316 0.725186
V4    V     V_3+5 0.259690 0.998730 0.993720 1.457307
O20   O     O_3   0.986120 0.006480 0.033580 -0.370944
C69   C     C_2   0.166779 0.284203 0.838539 0.364831
H40   H     H_    0.075330 0.323140 0.853806 0.057489
O21   O     O_2   0.311973 0.269117 0.864128 -0.541977
Br1   Br    Br    0.685470 0.111069 0.736438 -0.596532
Br2   Br    Br    0.051699 0.642624 0.238727 -0.671098
Br3   Br    Br    0.405787 0.816206 0.370511 -0.513155
C70   C     C_2   0.077006 0.771325 0.320273 0.429085
H41   H     H_    0.016988 0.724355 0.330802 0.079418
O22   O     O_2   0.976336 0.820099 0.325205 -0.510273

loop_
_geom_bond_atom_site_label_1
_geom_bond_atom_site_label_2
_ccdc_geom_bond_type
C31   H16   S    
H11   C28   S    
C18   C20   A    
C28   C29   S    
C13   C19   A    
O18   C67   A    
C55   C61   A    
C38   C66   S    
C4    C6    S    
O2    C1    A    
C7    C8    A    
C35   C40   S    
C30   H20   S    
C1    O6    A    
O19   C68   A    
C58   H38   S    
C42   H29   S    
C56   C57   A    
C26   C32   T    
C27   C33   S    
C40   C41   S    
C64   H31   S    
C14   C15   A    
C52   C53   A    
O11   C66   A    
C16   C17   A    
O15   C67   A    
O12   C65   A    
O5    C3    A    
C18   C19   A    
C8    H6    S    
C54   C58   A    
C53   C57   A    
C43   Br3   S    
C2    C48   S    
C5    C8    A    
C29   C30   S    
C61   C64   A    
C50   H35   S    
C59   C60   A    
O8    V2    S    
C54   C55   A    
C36   C37   S    
C17   H4    S    
C37   H24   S    
O1    V2    S    
O13   V3    S    
C11   C15   A    
O7    V1    S    
C22   H2    S    
C3    C26   S    
C49   C50   A    
C34   C68   S    
C59   H33   S    
C60   C62   A    
O9    C4    A    
H21   C40   S    
C37   C41   S    
C28   H19   S    
O14   C66   A    
C49   C53   A    
C35   H27   S    
C60   C61   A    
C47   C51   A    
C36   Br2   S    
C12   C13   A    
C39   C45   S    
O4    C2    A    
C41   C42   S    
C5    C67   S    
C25   H14   S    
C15   H1    S    
C13   C14   A    
C21   H3    S    
C33   C34   T    
C62   H39   S    
O15   V3    S    
C17   C18   A    
V3    O20   S    
C58   C59   A    
C47   C50   A    
C23   H12   S    
C36   H23   S    
C55   C56   A    
C24   C27   S    
C20   H10   S    
C19   C22   A    
O17   V4    S    
C37   H25   S    
C47   C65   S    
C6    C22   A    
O3    C4    A    
C7    H5    S    
C9    H7    S    
C69   O21   D    
C40   H28   S    
O6    V2    S    
C65   O16   A    
O9    V2    S    
C48   C63   A    
C10   C12   A    
C39   C43   S    
C49   H34   S    
C56   H37   S    
O2    V1    S    
C63   H32   S    
C14   H8    S    
C27   C31   S    
C24   C25   S    
C23   H18   S    
O1    C2    A    
C51   H36   S    
C12   C16   A    
C30   H17   S    
O19   V4    S    
C23   C27   S    
O5    V1    S    
O8    C3    A    
C25   H15   S    
C70   O22   D    
C38   C44   T    
C31   Br1   S    
C36   C39   S    
C24   H13   S    
C16   H9    S    
C57   H30   S    
C29   C32   S    
C20   C21   A    
V4    O20   S    
O7    V2    S    
O4    V1    S    
O16   V4    S    
O3    V1    S    
V1    O10   S    
C24   C69   S    
C41   C44   S    
C30   C31   S    
C42   H26   S    
C1    C46   S    
C43   C70   S    
C51   C52   A    
O14   V3    S    
C69   H40   S    
C35   H22   S    
C6    C21   A    
C5    C9    A    
C70   H41   S    
C42   C43   S    
C7    C11   A    
O11   V4    S    
C23   C28   S    
C52   C54   A    
C45   C46   T    
C48   C64   A    
C62   C63   A    
O13   C68   A    
O18   V4    S    
C10   C11   A    
O17   V3    S    
C35   C39   S    
C9    C10   A    
O12   V3    S    
V2    O10   S    
C25   C29   S    
