data_mof_unit_19858.cif
_audit_creation_date              2012-10-26T21:17:59-0400
_audit_creation_method            fapswitch 2.2
_symmetry_space_group_name_H-M    P1
_symmetry_Int_Tables_number       1
_space_group_crystal_system       triclinic
_cell_length_a                    14.78078
_cell_length_b                    14.93976
_cell_length_c                    27.635324
_cell_angle_alpha                 74.68458
_cell_angle_beta                  103.959502
_cell_angle_gamma                 115.641142
_cell_volume                      5249.28338616

loop_
_atom_site_label
_atom_site_type_symbol
_atom_type_description
_atom_site_fract_x
_atom_site_fract_y
_atom_site_fract_z
_atom_type_partial_charge
C1    C     C_R   0.879799 0.312347 0.506932 0.558701
C2    C     C_R   0.064077 0.458550 0.141374 0.009917
C3    C     C_3   0.239916 0.729866 0.741556 -0.308854
C4    C     C_3   0.263685 0.397934 0.190266 -0.258829
C5    C     C_3   0.966082 0.808301 0.811026 -0.268421
C6    C     C_3   0.231638 0.326917 0.079783 -0.317759
C7    C     C_3   0.009740 0.804532 0.955825 -0.301147
C8    C     C_3   0.624238 0.739286 0.530684 -0.259022
C9    C     C_3   0.364064 0.107006 0.611517 -0.291755
C10   C     C_R   0.007698 0.507306 0.644774 -0.005156
C11   C     C_R   0.997677 0.501128 0.354543 -0.011736
C12   C     C_R   0.078030 0.473671 0.038214 -0.012899
C13   C     C_R   0.978715 0.583827 0.959792 0.007302
C14   C     C_R   0.963570 0.564338 0.011132 0.034517
C15   C     C_R   0.092112 0.492699 0.986572 0.020922
C16   C     C_R   0.018056 0.515213 0.050278 -0.010212
C17   C     C_R   0.036886 0.540970 0.947602 -0.007475
C18   C     C_R   0.115958 0.409260 0.077876 0.134295
C19   C     C_R   0.120652 0.687415 0.495356 0.549329
C20   C     C_R   0.943093 0.649967 0.920430 0.129134
C21   C     C_R   0.116555 0.409150 0.129263 0.174775
C22   C     C_R   0.940021 0.648871 0.868987 0.154094
C23   C     C_R   0.000714 0.499792 0.592373 0.534122
C24   C     C_R   0.998903 0.499679 0.407648 0.533130
C25   C     C_R   0.165791 0.472213 0.972551 -0.151893
C26   C     C_R   0.889426 0.585674 0.024298 -0.125288
C27   C     C_R   0.811852 0.204250 0.508556 -0.038549
C28   C     C_R   0.192531 0.792939 0.501061 -0.059980
C29   C     C_R   0.787488 0.029847 0.512918 0.145482
C30   C     C_R   0.042157 0.548238 0.896009 -0.072018
C31   C     C_R   0.230452 0.964848 0.510260 0.152185
C32   C     C_R   0.850836 0.133083 0.508311 0.192086
C33   C     C_R   0.160337 0.871805 0.496182 0.221408
C34   C     C_R   0.707212 0.171917 0.509345 0.230768
C35   C     C_R   0.297175 0.813582 0.516058 0.252637
C36   C     C_R   0.645579 0.067396 0.518789 -0.077056
C37   C     C_R   0.368522 0.913314 0.515636 -0.057390
C38   C     C_R   0.682522 0.997590 0.513985 -0.052069
C39   C     C_R   0.335870 0.985295 0.521494 -0.076927
C40   C     C_R   0.544713 0.031663 0.528868 -0.060297
C41   C     C_R   0.009217 0.504933 0.101711 -0.073110
C42   C     C_R   0.472932 0.939646 0.515043 -0.047278
C43   C     C_R   0.507449 0.880437 0.497511 0.305997
C44   C     C_R   0.512433 0.085950 0.551334 0.324832
C45   C     C_R   0.611475 0.901087 0.504880 0.147781
C46   C     C_R   0.409288 0.069822 0.542668 0.145067
C47   C     C_R   0.099756 0.506422 0.833024 0.378928
C48   C     C_R   0.939290 0.535025 0.164141 0.418757
C49   C     C_R   0.689815 0.632300 0.403728 -0.142525
C50   C     C_R   0.295517 0.347689 0.592785 -0.152149
C51   C     C_R   0.779401 0.616287 0.419721 0.273064
C52   C     C_R   0.103181 0.508927 0.883730 0.031499
C53   C     C_R   0.209042 0.369760 0.575770 0.285687
C54   C     C_R   0.721580 0.519434 0.498227 0.021705
C55   C     C_R   0.282153 0.484853 0.504510 0.010103
C56   C     C_R   0.627347 0.532042 0.482259 -0.019429
C57   C     C_R   0.370615 0.462427 0.519445 -0.020723
C58   C     C_R   0.614560 0.590837 0.434024 0.006577
C59   C     C_R   0.377506 0.396149 0.565818 0.002056
C60   C     C_R   0.544419 0.487314 0.511090 0.012443
C61   C     C_R   0.452845 0.504867 0.490822 0.021859
C62   C     C_R   0.444968 0.562128 0.441947 -0.123094
C63   C     C_R   0.943908 0.540191 0.113447 0.026954
C64   C     C_R   0.548911 0.424955 0.558944 -0.134500
C65   C     C_R   0.524447 0.604482 0.414359 -0.137498
C66   C     C_R   0.466415 0.379383 0.585371 -0.137313
C67   C     C_R   0.982194 0.585982 0.806219 0.430484
C68   C     C_R   0.057976 0.456992 0.192121 0.397907
C69   C     C_R   0.076912 0.614957 0.708203 0.180869
C70   C     C_R   0.915103 0.425120 0.279527 0.181895
C71   C     C_R   0.064945 0.602228 0.658439 -0.170803
C72   C     C_R   0.915987 0.428793 0.329746 -0.190266
C73   C     C_R   0.959845 0.422552 0.680949 0.110462
C74   C     C_R   0.168410 0.475788 0.922221 -0.124660
C75   C     C_R   0.077338 0.574097 0.328300 0.101683
C76   C     C_R   0.970953 0.436757 0.730783 -0.062660
C77   C     C_R   0.075822 0.571163 0.278041 -0.063732
C78   C     C_R   0.029524 0.531536 0.744519 0.236692
C79   C     C_R   0.995950 0.496652 0.253693 0.236652
C80   C     C_3   0.882367 0.235533 0.705277 -0.334610
C81   C     C_3   0.131040 0.737388 0.348891 -0.315012
C82   C     C_3   0.326536 0.718332 0.593179 0.026691
C83   C     C_3   0.423405 0.706722 0.623380 -0.257601
C84   C     C_3   0.426860 0.608297 0.619694 -0.397166
C85   C     C_R   0.882060 0.576962 0.074454 -0.128445
C86   C     C_3   0.604169 0.243406 0.451500 0.023221
C87   C     C_3   0.667354 0.315250 0.409824 -0.257476
C88   C     C_3   0.601973 0.317074 0.357924 -0.502718
C89   C     C_3   0.028589 0.870344 0.432226 0.039439
C90   C     C_3   0.060900 0.982737 0.407975 -0.283781
C91   C     C_3   0.016246 0.997026 0.352028 -0.501933
C92   C     C_3   0.960868 0.194883 0.450913 0.015838
C93   C     C_3   0.073083 0.240159 0.445172 -0.252401
C94   C     C_3   0.088589 0.276545 0.389607 -0.472374
C95   C     C_3   0.867865 0.923315 0.568805 -0.281255
C96   C     C_R   0.986358 0.593977 0.856738 0.010826
C97   C     C_3   0.128030 0.020956 0.544175 -0.247900
C98   C     C_3   0.428513 0.865844 0.416679 0.004015
C99   C     C_3   0.422668 0.805691 0.378338 -0.253716
C100  C     C_3   0.405993 0.859725 0.323871 -0.474323
C101  C     C_3   0.635015 0.110480 0.623617 0.020452
C102  C     C_3   0.569635 0.013559 0.656768 -0.296015
C103  C     C_3   0.636159 0.971408 0.699184 -0.490504
C104  C     C_3   0.147028 0.330772 0.655483 -0.302730
C105  C     C_3   0.856119 0.733696 0.344760 -0.347519
C106  C     C_3   0.849405 0.259196 0.259472 -0.303208
Cu1   Cu    Cu3+1 0.081740 0.475690 0.513040 0.967907
Cu2   Cu    Cu3+1 0.918260 0.524310 0.486960 0.975047
H1    H     H_    0.514384 0.646980 0.376493 0.098856
H2    H     H_    0.136784 0.627234 0.257638 0.131047
H3    H     H_    0.252752 0.314894 0.046777 0.124487
H4    H     H_    0.231677 0.262936 0.111211 0.150829
H5    H     H_    0.289801 0.399121 0.090522 0.150860
H6    H     H_    0.870787 0.751595 0.908368 0.245453
H7    H     H_    0.989072 0.814109 0.989605 0.154405
H8    H     H_    0.030035 0.877430 0.928708 0.126123
H9    H     H_    0.077505 0.785185 0.968068 0.156877
H10   H     H_    0.620684 0.820417 0.457119 0.258773
H11   H     H_    0.668684 0.699975 0.525213 0.155199
H12   H     H_    0.542477 0.689788 0.525511 0.175954
H13   H     H_    0.222713 0.453627 0.913626 0.155304
H14   H     H_    0.647885 0.754715 0.569985 0.136747
H15   H     H_    0.424192 0.210226 0.548862 0.278137
H16   H     H_    0.317818 0.144361 0.617018 0.124045
H17   H     H_    0.437641 0.133643 0.636540 0.154365
H18   H     H_    0.323245 0.023955 0.622418 0.141992
H19   H     H_    0.826464 0.598093 0.082493 0.156587
H20   H     H_    0.854459 0.373275 0.349912 0.089471
H21   H     H_    0.101369 0.666563 0.630320 0.095508
H22   H     H_    0.224342 0.456206 0.999972 0.138630
H23   H     H_    0.833793 0.606685 0.996228 0.152957
H24   H     H_    0.904863 0.317234 0.631850 0.262194
H25   H     H_    0.849372 0.167842 0.687177 0.121042
H26   H     H_    0.827950 0.227904 0.729147 0.149859
H27   H     H_    0.472384 0.330388 0.621663 0.115741
H28   H     H_    0.955093 0.237688 0.729278 0.147167
H29   H     H_    0.187727 0.629324 0.387157 0.262995
H30   H     H_    0.196984 0.797573 0.365969 0.119752
H31   H     H_    0.067795 0.712618 0.370738 0.162871
H32   H     H_    0.109110 0.769090 0.308891 0.152873
H33   H     H_    0.259485 0.648178 0.603060 0.157845
H34   H     H_    0.319830 0.779818 0.606157 0.070061
H35   H     H_    0.490685 0.771648 0.609182 0.163686
H36   H     H_    0.426937 0.707425 0.663927 0.108218
H37   H     H_    0.363857 0.542660 0.636940 0.142333
H38   H     H_    0.274468 0.540474 0.471742 0.137290
H39   H     H_    0.500015 0.604508 0.640105 0.128232
H40   H     H_    0.420130 0.604383 0.579500 0.197499
H41   H     H_    0.545876 0.270537 0.452899 0.150240
H42   H     H_    0.561848 0.166956 0.441293 0.102926
H43   H     H_    0.703521 0.392898 0.418212 0.202018
H44   H     H_    0.727604 0.290720 0.408544 0.140423
H45   H     H_    0.566064 0.240593 0.347955 0.140376
H46   H     H_    0.650161 0.369910 0.328775 0.147655
H47   H     H_    0.542038 0.343137 0.357882 0.149869
H48   H     H_    0.944823 0.834998 0.426524 0.176746
H49   H     H_    0.735802 0.473686 0.534046 0.148677
H50   H     H_    0.055897 0.831925 0.412986 0.122198
H51   H     H_    0.144799 0.019486 0.410698 0.163562
H52   H     H_    0.034901 0.020456 0.428158 0.178102
H53   H     H_    0.036971 0.955952 0.331258 0.142554
H54   H     H_    0.046897 0.078443 0.334889 0.153637
H55   H     H_    0.932437 0.969489 0.347810 0.139817
H56   H     H_    0.929368 0.253375 0.432377 0.124919
H57   H     H_    0.920350 0.129289 0.430996 0.107065
H58   H     H_    0.114571 0.304720 0.465527 0.205130
H59   H     H_    0.105344 0.182483 0.462404 0.157203
H60   H     H_    0.675331 0.671842 0.365648 0.097157
H61   H     H_    0.045555 0.213829 0.368117 0.144433
H62   H     H_    0.170419 0.304689 0.386858 0.153544
H63   H     H_    0.062793 0.338994 0.372340 0.171862
H64   H     H_    0.880934 0.979069 0.492448 0.259121
H65   H     H_    0.892667 0.862635 0.569418 0.152702
H66   H     H_    0.807265 0.892174 0.593098 0.147025
H67   H     H_    0.933423 0.986227 0.584519 0.140412
H68   H     H_    0.234042 0.113630 0.492643 0.254968
H69   H     H_    0.052398 0.015155 0.523314 0.173461
H70   H     H_    0.158651 0.084876 0.564768 0.133123
H71   H     H_    0.299099 0.293547 0.627311 0.085232
H72   H     H_    0.119882 0.950037 0.572161 0.153059
H73   H     H_    0.490781 0.942232 0.408699 0.099892
H74   H     H_    0.356604 0.876511 0.410934 0.130334
H75   H     H_    0.494719 0.795282 0.384459 0.147906
H76   H     H_    0.360097 0.730272 0.384110 0.182455
H77   H     H_    0.471140 0.933222 0.316728 0.135087
H78   H     H_    0.335363 0.873284 0.316459 0.154758
H79   H     H_    0.399407 0.812379 0.297228 0.152310
H80   H     H_    0.678962 0.167729 0.648258 0.168367
H81   H     H_    0.692239 0.096975 0.610327 0.134455
H82   H     H_    0.376675 0.572866 0.423124 0.096970
H83   H     H_    0.519697 0.030131 0.674112 0.150311
H84   H     H_    0.521351 0.954104 0.633757 0.150185
H85   H     H_    0.686405 0.952691 0.683034 0.143997
H86   H     H_    0.587425 0.901489 0.722193 0.146611
H87   H     H_    0.683276 0.027273 0.724312 0.143009
H88   H     H_    0.086802 0.244051 0.599130 0.248524
H89   H     H_    0.195382 0.290394 0.678600 0.105414
H90   H     H_    0.075121 0.298162 0.671315 0.156787
H91   H     H_    0.185233 0.412038 0.658340 0.166970
H92   H     H_    0.820900 0.582465 0.364296 0.259211
H93   H     H_    0.614706 0.408364 0.576604 0.131357
H94   H     H_    0.841164 0.789344 0.357811 0.124794
H95   H     H_    0.803116 0.715473 0.309243 0.132697
H96   H     H_    0.934511 0.768724 0.335675 0.139985
H97   H     H_    0.763887 0.333515 0.265168 0.244201
H98   H     H_    0.783513 0.205686 0.238159 0.135140
H99   H     H_    0.857804 0.222219 0.299934 0.118148
H100  H     H_    0.918290 0.277048 0.243261 0.197996
H101  H     H_    0.128252 0.770204 0.692845 0.240413
H102  H     H_    0.278776 0.805381 0.752619 0.128511
H103  H     H_    0.279051 0.727834 0.712414 0.119284
H104  H     H_    0.933929 0.374888 0.759534 0.123208
H105  H     H_    0.245420 0.672359 0.775727 0.195252
H106  H     H_    0.136767 0.274736 0.165027 0.261769
H107  H     H_    0.270119 0.381533 0.232230 0.183881
H108  H     H_    0.292813 0.481238 0.177305 0.146439
H109  H     H_    0.312159 0.368324 0.179944 0.100093
H110  H     H_    0.827976 0.704882 0.834860 0.238038
H111  H     H_    0.926801 0.844100 0.777401 0.137997
H112  H     H_    0.031449 0.805054 0.799489 0.176631
H113  H     H_    0.994329 0.855590 0.840671 0.124314
H114  H     H_    0.087148 0.298733 0.035330 0.258223
N1    N     N_R   0.038089 0.542466 0.795697 -0.387358
N2    N     N_2   0.843292 0.642195 0.382595 -0.465329
N3    N     N_2   0.832938 0.349824 0.255084 -0.482993
N4    N     N_2   0.134961 0.711947 0.721424 -0.492742
N5    N     N_2   0.158627 0.348420 0.168690 -0.458652
N6    N     N_2   0.895938 0.707810 0.829581 -0.458463
N7    N     N_2   0.131170 0.328690 0.066868 -0.528630
N8    N     N_2   0.923724 0.726921 0.932405 -0.541091
N9    N     N_2   0.643199 0.832087 0.494022 -0.465583
N10   N     N_2   0.380063 0.134739 0.559068 -0.495183
N11   N     N_R   0.997179 0.495607 0.202077 -0.384599
N12   N     N_R   0.795430 0.560780 0.467350 -0.223783
N13   N     N_R   0.204570 0.439220 0.532650 -0.220512
N14   N     N_2   0.898814 0.325826 0.666586 -0.519335
N15   N     N_2   0.157060 0.653437 0.351117 -0.527557
N16   N     N_2   0.830394 0.958703 0.517242 -0.458599
N17   N     N_2   0.193652 0.039739 0.508139 -0.491749
N18   N     N_2   0.125248 0.318681 0.603057 -0.445847
O1    O     O_R   0.977900 0.338120 0.517190 -0.448970
O2    O     O_2   0.878375 0.570275 0.175555 -0.505041
O3    O     O_2   0.111409 0.417004 0.231508 -0.507336
O4    O     O_2   0.921302 0.618932 0.767963 -0.462147
O5    O     O_3   0.329571 0.736375 0.540296 -0.491513
O6    O     O_3   0.665294 0.243261 0.499854 -0.505625
O7    O     O_3   0.058633 0.855115 0.485285 -0.546981
O8    O     O_3   0.951413 0.163653 0.503153 -0.567659
O9    O     O_3   0.442944 0.811867 0.466556 -0.531876
O10   O     O_3   0.578292 0.153965 0.582792 -0.534231
O11   O     O_R   0.022100 0.661880 0.482810 -0.455450
O12   O     O_R   0.839850 0.379180 0.495160 -0.471772
O13   O     O_R   0.160150 0.620820 0.504840 -0.459376
O14   O     O_R   0.069030 0.479490 0.580750 -0.488139
O15   O     O_R   0.930970 0.520510 0.419250 -0.505136
O16   O     O_R   0.930970 0.520550 0.558720 -0.498223
O17   O     O_R   0.069030 0.479450 0.441280 -0.528554
O18   O     O_2   0.156596 0.467164 0.821055 -0.530399

loop_
_geom_bond_atom_site_label_1
_geom_bond_atom_site_label_2
_ccdc_geom_bond_type
C81   H32   S    
C5    H113  S    
C64   H93   S    
C81   H31   S    
C101  C102  S    
C4    H108  S    
C18   C21   A    
C6    H3    S    
C7    H9    S    
C101  O10   S    
C70   N3    S    
C82   H34   S    
C8    H14   S    
C69   N4    S    
C92   O8    S    
C1    O12   A    
C89   H50   S    
C62   H82   S    
C84   H37   S    
C93   C94   S    
Cu2   O12   S    
C51   N12   A    
C50   C59   A    
C35   C37   A    
C95   H66   S    
C76   C78   A    
C29   C32   A    
C52   C74   A    
C86   H42   S    
C94   H61   S    
C106  H100  S    
C83   H36   S    
C8    N9    S    
C15   C25   A    
C5    H112  S    
C22   N6    S    
C33   O7    S    
C68   O3    S    
C11   C24   S    
C37   C42   A    
C9    H16   S    
C80   H26   S    
Cu1   O13   S    
C82   H33   S    
C25   C74   A    
C104  H89   S    
C4    N5    S    
C7    H7    S    
C90   H51   S    
C69   C71   A    
C95   H67   S    
C38   C45   A    
C47   N1    A    
C2    C68   A    
C92   H57   S    
C19   O13   A    
H15   N10   S    
C12   C16   A    
H114  N7    S    
C31   C39   A    
C73   N14   S    
C29   C38   A    
C34   O6    S    
C102  H84   S    
Cu1   Cu2   S    
C31   C33   A    
C91   H54   S    
H97   N3    S    
C103  H86   S    
C56   C58   A    
C40   C42   A    
C101  H80   S    
C51   N2    S    
C99   H75   S    
C80   N14   S    
C82   O5    S    
C78   N1    S    
C89   H48   S    
C92   H56   S    
C10   C71   A    
C76   H104  S    
C3    H102  S    
C84   H40   S    
C27   C32   A    
C86   O6    S    
C4    H107  S    
C87   H43   S    
C13   C14   A    
C63   C85   A    
H29   N15   S    
C17   C30   A    
C91   H55   S    
C69   C78   A    
C102  C103  S    
C103  H87   S    
C23   O14   A    
C97   N17   S    
C25   H22   S    
C53   N18   S    
H110  N6    S    
C44   C46   A    
C60   C64   A    
C54   C56   A    
C77   C79   A    
C27   C34   A    
C3    H103  S    
C81   H30   S    
C21   N5    S    
Cu2   N12   S    
C35   O5    S    
C50   C53   A    
C20   N8    S    
Cu2   O11   S    
H92   N2    S    
C88   H47   S    
C55   H38   S    
C100  H79   S    
C28   C35   A    
C49   H60   S    
C48   O2    S    
C86   H41   S    
C55   N13   A    
C106  H99   S    
C11   C72   A    
C48   C63   A    
C72   H20   S    
C49   C51   A    
C24   O17   A    
C22   C96   A    
C9    H17   S    
C49   C58   A    
C89   O7    S    
Cu1   O14   S    
C60   C61   A    
C54   N12   A    
C95   N16   S    
C64   C66   A    
C7    H8    S    
C98   H74   S    
C24   O15   A    
C100  H78   S    
C6    H5    S    
H6    N8    S    
C19   C28   S    
C94   H63   S    
C71   H21   S    
C75   C77   A    
C43   O9    S    
C58   C65   A    
C97   H69   S    
C83   C84   S    
C12   C15   A    
C36   C40   A    
H10   N9    S    
C74   H13   S    
C2    C21   A    
C102  H83   S    
C106  N3    S    
C14   C26   A    
C67   N1    A    
H106  N5    S    
H24   N14   S    
C3    N4    S    
C65   H1    S    
C99   H76   S    
C95   H65   S    
C97   H70   S    
C39   C46   A    
C1    O1    A    
C44   O10   S    
C32   O8    S    
C28   C33   A    
C4    H109  S    
C87   H44   S    
C9    N10   S    
Cu2   O15   S    
C67   C96   A    
C88   H46   S    
C73   C76   A    
C14   C16   A    
C75   N15   S    
C57   C59   A    
C42   C43   A    
C41   C63   A    
C79   N11   S    
Cu1   N13   S    
C29   N16   S    
C8    H12   S    
H88   N18   S    
C84   H39   S    
C15   C17   A    
C30   C52   A    
C104  H91   S    
C62   C65   A    
C70   C79   A    
C86   C87   S    
C46   N10   S    
C13   C20   A    
Cu1   O1    S    
C48   N11   A    
C20   C22   A    
C23   O16   A    
C97   H72   S    
C18   N7    S    
C106  H98   S    
C98   O9    S    
C31   N17   S    
C67   O4    S    
C57   C61   A    
C47   C52   A    
C10   C23   S    
C3    H105  S    
C105  N2    S    
C45   N9    S    
C101  H81   S    
C9    H18   S    
C80   H28   S    
C5    N6    S    
C13   C17   A    
Cu1   O17   S    
C88   H45   S    
C98   H73   S    
C55   C57   A    
C100  H77   S    
C93   H58   S    
C2    C41   A    
C59   C66   A    
C11   C75   A    
C99   C100  S    
C94   H62   S    
C54   H49   S    
C83   H35   S    
C19   O11   A    
C105  H94   S    
C5    H111  S    
C90   C91   S    
C26   C85   A    
C53   N13   A    
C16   C41   A    
C85   H19   S    
C36   C38   A    
C92   C93   S    
C10   C73   A    
C81   N15   S    
C50   H71   S    
C34   C36   A    
C90   H52   S    
C61   C62   A    
C104  H90   S    
C105  H95   S    
C68   N11   A    
C80   H25   S    
C30   C96   A    
C66   H27   S    
C56   C60   A    
C40   C44   A    
H68   N17   S    
C70   C72   A    
C93   H59   S    
C87   C88   S    
C37   C39   A    
C98   C99   S    
H101  N4    S    
C6    N7    S    
C12   C18   A    
C1    C27   S    
C104  N18   S    
C91   H53   S    
C6    H4    S    
C47   O18   S    
C82   C83   S    
C89   C90   S    
C77   H2    S    
C43   C45   A    
Cu2   O16   S    
C26   H23   S    
C105  H96   S    
C8    H11   S    
C103  H85   S    
C7    N8    S    
H64   N16   S    
