data_mof_unit_25543.cif
_audit_creation_date              2012-12-10T17:37:21-0500
_audit_creation_method            fapswitch 2.2
_symmetry_space_group_name_H-M    P1
_symmetry_Int_Tables_number       1
_space_group_crystal_system       triclinic
_cell_length_a                    12.440688
_cell_length_b                    13.267134
_cell_length_c                    15.836652
_cell_angle_alpha                 75.761321
_cell_angle_beta                  101.780151
_cell_angle_gamma                 117.214787
_cell_volume                      2240.32695216

loop_
_atom_site_label
_atom_site_type_symbol
_atom_type_description
_atom_site_fract_x
_atom_site_fract_y
_atom_site_fract_z
_atom_type_partial_charge
C1    C     C_R   0.854908 0.286816 0.515479 0.985171
C2    C     C_3   0.998298 0.492441 0.918304 -0.117864
C3    C     C_3   0.103980 0.580440 0.028682 -0.337478
C4    C     C_3   0.997492 0.496768 0.083889 -0.085229
C5    C     C_3   0.008818 0.595387 0.953024 0.627767
C6    C     C_3   0.902686 0.515034 0.009140 -0.347391
C7    C     C_1   0.998934 0.493510 0.826392 0.134437
C8    C     C_1   0.997333 0.498110 0.175144 0.047859
C9    C     C_R   0.290583 0.027678 0.380688 0.439806
C10   C     C_R   0.230545 0.838226 0.473554 -0.319270
C11   C     C_R   0.790107 0.118581 0.632265 0.548889
C12   C     C_R   0.999909 0.498836 0.660056 0.862839
C13   C     C_R   0.692203 0.039582 0.678266 -0.298976
C14   C     C_R   0.574096 0.004400 0.636992 0.649862
C15   C     C_R   0.552930 0.037067 0.545361 -0.067170
C16   C     C_R   0.651561 0.123058 0.499499 -0.242013
C17   C     C_R   0.435755 0.991615 0.498278 -0.138096
C18   C     C_R   0.411315 0.059217 0.419029 -0.265333
C19   C     C_R   0.508942 0.151077 0.376452 0.472656
C20   C     C_R   0.627979 0.168794 0.410740 0.421728
C21   C     C_R   0.346373 0.877341 0.522575 0.460980
C22   C     C_R   0.203076 0.914440 0.403185 0.287462
C23   C     C_R   0.145776 0.714136 0.488049 0.883068
C24   C     C_R   0.769938 0.167318 0.544634 -0.202145
C25   C     C_R   0.322555 0.301121 0.620767 0.312986
C26   C     C_R   0.757723 0.642612 0.377964 0.508329
C27   C     C_R   0.659635 0.672313 0.349555 0.210386
C28   C     C_R   0.549656 0.603712 0.384475 0.454008
C29   C     C_R   0.544544 0.524509 0.464179 -0.217384
C30   C     C_R   0.649049 0.500277 0.494498 -0.091564
C31   C     C_R   0.439030 0.465342 0.512794 -0.206706
C32   C     C_R   0.430492 0.368927 0.579594 -0.339946
C33   C     C_R   0.531209 0.344584 0.607392 0.418236
C34   C     C_R   0.999445 0.499987 0.340194 0.815976
C35   C     C_R   0.637095 0.409194 0.567153 0.564088
C36   C     C_R   0.342639 0.499253 0.501521 0.676837
C37   C     C_R   0.234484 0.341133 0.607372 0.627934
C38   C     C_3   0.986893 0.392992 0.049444 0.400813
C39   C     C_3   0.893615 0.411424 0.974829 0.350996
C40   C     C_1   0.999501 0.495795 0.750386 -0.081712
C41   C     C_1   0.997872 0.499080 0.250546 -0.178144
C42   C     C_3   0.091774 0.475816 0.994096 0.357930
Cu1   Cu    Cu3+1 0.098270 0.475420 0.519690 1.088027
Cu2   Cu    Cu3+1 0.901730 0.524580 0.480310 1.053254
H1    H     H_    0.707391 0.011356 0.748023 0.204917
H2    H     H_    0.826928 0.533357 0.016731 0.171886
H3    H     H_    0.188848 0.650946 0.051878 0.182775
N1    N     N_R   0.246280 0.438200 0.549540 -0.329598
N2    N     N_R   0.754330 0.561180 0.450980 -0.240506
O1    O     O_R   0.972510 0.318130 0.524770 -0.533864
O2    O     O_R   0.806530 0.359650 0.491510 -0.520872
O3    O     O_R   0.082970 0.479240 0.637550 -0.526533
O4    O     O_R   0.916990 0.520750 0.604290 -0.530083
O5    O     O_R   0.193470 0.640350 0.508490 -0.517377
O6    O     O_R   0.027490 0.681870 0.475230 -0.527285
O7    O     O_R   0.083010 0.479250 0.395710 -0.559363
O8    O     O_R   0.917030 0.520760 0.362450 -0.550092
O9    O     O_3   0.786949 0.324284 0.941332 -0.584980
C43   C     C_3   0.699384 0.277402 0.001213 -0.290513
H4    H     H_    0.663687 0.339957 0.002436 0.169107
H5    H     H_    0.735667 0.248939 0.068344 0.193410
H6    H     H_    0.621913 0.200444 0.979272 0.189913
O10   O     O_3   0.372723 0.799281 0.589486 -0.513889
C44   C     C_3   0.457630 0.770279 0.565810 -0.118848
H7    H     H_    0.461078 0.785390 0.493765 0.171343
H8    H     H_    0.433201 0.678031 0.592358 0.187925
H9    H     H_    0.550099 0.817775 0.597151 0.120162
F1    F     F_    0.901724 0.161016 0.677636 -0.579048
F2    F     F_    0.481367 0.944796 0.688060 -0.602651
O11   O     O_3   0.720892 0.237020 0.358069 -0.587114
C45   C     C_3   0.749133 0.164580 0.323798 -0.345156
H10   H     H_    0.784036 0.110923 0.376754 0.146295
H11   H     H_    0.821975 0.219105 0.280188 0.211357
H12   H     H_    0.669056 0.108898 0.283724 0.180769
F3    F     F_    0.135305 0.281512 0.651746 -0.551246
O12   O     O_3   0.528460 0.255593 0.676008 -0.516894
C46   C     C_3   0.574059 0.300174 0.754753 -0.071868
H13   H     H_    0.520118 0.341615 0.767427 0.135737
H14   H     H_    0.671677 0.362160 0.754748 0.177847
H15   H     H_    0.566841 0.227798 0.809708 0.199694
O13   O     O_3   0.303142 0.197538 0.676489 -0.496459
C47   C     C_3   0.252630 0.109733 0.625401 -0.093262
H16   H     H_    0.237766 0.026454 0.669600 0.214545
H17   H     H_    0.315213 0.123783 0.578020 0.135506
H18   H     H_    0.162895 0.102267 0.590103 0.128130
F4    F     F_    0.346166 0.597254 0.449199 -0.629235
O14   O     O_3   0.856394 0.691938 0.329944 -0.511327
C48   C     C_3   0.818149 0.668009 0.243320 -0.205423
H19   H     H_    0.802441 0.739898 0.198664 0.195588
H20   H     H_    0.736170 0.584783 0.238493 0.112337
H21   H     H_    0.891810 0.661836 0.218827 0.150793
O15   O     O_3   0.975750 0.289906 0.107432 -0.606642
C49   C     C_3   0.966585 0.208634 0.060255 -0.264282
H22   H     H_    0.048321 0.239835 0.025813 0.212015
H23   H     H_    0.883162 0.184428 0.013192 0.206708
H24   H     H_    0.960155 0.129342 0.107361 0.182800
O16   O     O_3   0.448048 0.612324 0.334985 -0.467240
C50   C     C_3   0.388311 0.521602 0.286773 -0.228299
H25   H     H_    0.355424 0.436276 0.330599 0.126970
H26   H     H_    0.307351 0.529800 0.246974 0.185485
H27   H     H_    0.447999 0.526692 0.240778 0.120533
O17   O     O_3   0.664612 0.758770 0.278616 -0.549102
C51   C     C_3   0.727091 0.865268 0.307970 -0.263126
H28   H     H_    0.823212 0.882739 0.332974 0.188154
H29   H     H_    0.680135 0.869293 0.359045 0.148968
H30   H     H_    0.728382 0.934713 0.251754 0.180989
F5    F     F_    0.723846 0.374748 0.604070 -0.649252
F6    F     F_    0.020135 0.699441 0.901201 -0.624209
O18   O     O_3   0.187632 0.454787 0.980139 -0.545659
C52   C     C_3   0.268746 0.460531 0.057179 -0.268431
H31   H     H_    0.221752 0.401560 0.114920 0.171427
H32   H     H_    0.318623 0.550259 0.069984 0.163508
H33   H     H_    0.337024 0.433271 0.048044 0.191969
O19   O     O_3   0.094158 0.876393 0.350405 -0.528860
C53   C     C_3   0.113668 0.852557 0.273933 -0.129898
H34   H     H_    0.040989 0.856586 0.221466 0.173702
H35   H     H_    0.109641 0.764771 0.286969 0.133224
H36   H     H_    0.200986 0.915791 0.247265 0.155943
O20   O     O_3   0.488561 0.208982 0.293789 -0.518765
C54   C     C_3   0.521966 0.324411 0.299103 -0.230710
H37   H     H_    0.622247 0.373643 0.309301 0.186837
H38   H     H_    0.479357 0.330590 0.351853 0.120345
H39   H     H_    0.489660 0.365702 0.235976 0.160254
O21   O     O_3   0.260391 0.101365 0.312532 -0.513584
C55   C     C_3   0.207148 0.154423 0.346734 -0.269994
H40   H     H_    0.188629 0.218198 0.293328 0.187669
H41   H     H_    0.269411 0.201715 0.399515 0.116599
H42   H     H_    0.118940 0.090467 0.371477 0.171503

loop_
_geom_bond_atom_site_label_1
_geom_bond_atom_site_label_2
_ccdc_geom_bond_type
Cu2   N2    S    
C28   O16   S    
O14   C48   S    
C3    C42   S    
C34   O7    A    
C49   H22   S    
C19   C20   A    
C4    C8    S    
O16   C50   S    
C46   H13   S    
C10   C22   A    
C26   C27   A    
C30   C35   A    
C28   C29   A    
O13   C47   S    
C42   O18   S    
C38   C42   S    
C5    C6    S    
C9    C22   A    
C15   C16   A    
C38   O15   S    
C11   C24   A    
C9    O21   S    
C18   C19   A    
C52   H31   S    
Cu1   O5    S    
C25   C37   A    
Cu2   O4    S    
C2    C7    S    
C26   O14   S    
C53   H35   S    
C55   H42   S    
C7    C40   T    
O11   C45   S    
Cu1   N1    S    
C12   O4    A    
C54   H39   S    
C25   C32   A    
C37   F3    S    
C19   O20   S    
C43   H4    S    
C16   C24   A    
C13   C14   A    
C25   O13   S    
C20   O11   S    
C34   C41   S    
C2    C39   S    
C12   O3    A    
C54   H38   S    
O19   C53   S    
C46   H14   S    
C10   C21   A    
C43   H5    S    
C44   H9    S    
O12   C46   S    
C4    C6    S    
C26   N2    A    
C45   H11   S    
C36   F4    S    
O9    C43   S    
C39   O9    S    
C17   C21   A    
C44   H8    S    
C12   C40   S    
Cu1   Cu2   S    
C29   C30   A    
C34   O8    A    
Cu1   O7    S    
C33   O12   S    
C31   C32   A    
C14   C15   A    
C48   H21   S    
Cu2   O8    S    
C16   C20   A    
C53   H36   S    
C17   C18   A    
C54   H37   S    
C51   H29   S    
C8    C41   T    
C37   N1    A    
C1    O2    A    
C52   H33   S    
Cu2   O2    S    
C30   N2    A    
C4    C38   S    
C50   H25   S    
C49   H24   S    
C47   H17   S    
C55   H40   S    
C14   F2    S    
C2    C5    S    
C3    C4    S    
C50   H27   S    
C51   H28   S    
C11   F1    S    
C23   O5    A    
C1    O1    A    
C46   H15   S    
C15   C17   A    
C43   H6    S    
C6    H2    S    
C6    C39   S    
C48   H20   S    
C3    C5    S    
C45   H12   S    
O20   C54   S    
Cu1   O1    S    
C23   O6    A    
C10   C23   S    
C47   H18   S    
C27   O17   S    
C50   H26   S    
C32   C33   A    
C45   H10   S    
C29   C31   A    
O18   C52   S    
C44   H7    S    
C13   H1    S    
C11   C13   A    
Cu2   O6    S    
C38   C39   S    
C2    C42   S    
C3    H3    S    
O15   C49   S    
C33   C35   A    
C36   N1    A    
C51   H30   S    
O17   C51   S    
Cu1   O3    S    
C52   H32   S    
C21   O10   S    
C35   F5    S    
O10   C44   S    
C9    C18   A    
C22   O19   S    
C48   H19   S    
C1    C24   S    
C49   H23   S    
C47   H16   S    
C27   C28   A    
C55   H41   S    
C31   C36   A    
C53   H34   S    
O21   C55   S    
C5    F6    S    
