data_mof_unit_32572.cif
_audit_creation_date              2012-12-10T17:52:22-0500
_audit_creation_method            fapswitch 2.2
_symmetry_space_group_name_H-M    P1
_symmetry_Int_Tables_number       1
_space_group_crystal_system       triclinic
_cell_length_a                    19.212105
_cell_length_b                    10.67485
_cell_length_c                    9.903686
_cell_angle_alpha                 90.192845
_cell_angle_beta                  88.574508
_cell_angle_gamma                 93.949557
_cell_volume                      2025.65709909

loop_
_atom_site_label
_atom_site_type_symbol
_atom_type_description
_atom_site_fract_x
_atom_site_fract_y
_atom_site_fract_z
_atom_type_partial_charge
C1    C     C_R   0.511171 0.263352 0.499214 0.921284
C2    C     C_R   0.287797 0.515248 0.500432 -0.195797
C3    C     C_R   0.931260 0.576129 0.451770 0.327551
C4    C     C_R   0.070666 0.568758 0.466423 0.330038
C5    C     C_R   0.822707 0.580912 0.587162 -0.342916
C6    C     C_R   0.750368 0.555515 0.605154 0.536775
C7    C     C_R   0.710935 0.519938 0.491109 -0.182862
C8    C     C_R   0.744034 0.507204 0.364287 -0.345144
C9    C     C_R   0.815880 0.527801 0.348411 0.243005
C10   C     C_R   0.855405 0.564907 0.460814 -0.015565
C11   C     C_R   0.561770 0.121882 0.739083 0.568251
C12   C     C_R   0.364745 0.502662 0.501323 0.888813
C13   C     C_R   0.543999 0.065636 0.863676 -0.244891
C14   C     C_R   0.497549 0.959495 0.870007 -0.351493
C15   C     C_R   0.474312 0.900901 0.750880 0.260732
C16   C     C_R   0.503174 0.944711 0.624735 -0.007256
C17   C     C_R   0.533546 0.067178 0.619376 -0.088113
C18   C     C_R   0.526675 0.132712 0.497431 -0.109883
C19   C     C_R   0.518294 0.067124 0.375839 -0.225118
C20   C     C_R   0.507721 0.938675 0.377917 -0.224928
C21   C     C_R   0.498583 0.876324 0.501893 -0.074141
C22   C     C_R   0.421781 0.315038 0.151176 -0.106364
C23   C     C_R   0.497119 0.740764 0.500650 0.889198
C24   C     C_R   0.395255 0.205547 0.093561 -0.305489
C25   C     C_R   0.397020 0.193808 0.955933 -0.205364
C26   C     C_R   0.421420 0.295382 0.872835 0.259325
C27   C     C_R   0.461702 0.402273 0.931084 0.075322
C28   C     C_R   0.461715 0.406352 0.076042 0.081411
C29   C     C_R   0.537550 0.590914 0.069273 0.230949
C30   C     C_R   0.535895 0.590635 0.925355 -0.103771
C31   C     C_R   0.634677 0.503915 0.498242 0.904245
C32   C     C_R   0.247543 0.539290 0.620765 0.099422
C33   C     C_R   0.176154 0.563274 0.609858 0.204511
C34   C     C_R   0.144789 0.554260 0.482934 -0.022322
C35   C     C_R   0.183156 0.524926 0.368364 -0.291423
C36   C     C_R   0.253824 0.509557 0.373860 0.188190
H1    H     H_    0.562933 0.108687 0.956126 0.175259
H2    H     H_    0.478056 0.925266 0.967582 0.170782
H3    H     H_    0.504057 0.889159 0.282408 0.187933
H4    H     H_    0.408927 0.325658 0.255193 0.222666
H5    H     H_    0.368630 0.132837 0.155521 0.165318
H6    H     H_    0.369856 0.110420 0.915628 0.177082
H7    H     H_    0.564511 0.662544 0.866105 0.181339
H8    H     H_    0.158415 0.518892 0.271015 0.165569
H9    H     H_    0.853988 0.611593 0.672030 0.166954
H10   H     H_    0.714084 0.481761 0.275817 0.189178
H11   H     H_    0.517193 0.114901 0.279633 0.181114
N1    N     N_R   0.037110 0.656915 0.536264 -0.150660
N2    N     N_R   0.968272 0.659907 0.529871 -0.190069
N3    N     N_R   0.965276 0.491217 0.378404 -0.151005
N4    N     N_R   0.033871 0.487778 0.385281 -0.189149
N5    N     N_R   0.499340 0.498800 0.142780 -0.151557
N6    N     N_R   0.499320 0.498720 0.857170 -0.122957
O1    O     O_R   0.500000 0.316780 0.614690 -0.544715
O2    O     O_R   0.499990 0.316750 0.385360 -0.662482
O3    O     O_R   0.398140 0.500000 0.614700 -0.591974
O4    O     O_R   0.398130 0.499970 0.385370 -0.605564
O5    O     O_R   0.500010 0.683250 0.614640 -0.603390
O6    O     O_R   0.500000 0.683220 0.385310 -0.639817
O7    O     O_R   0.601870 0.500030 0.614630 -0.527372
O8    O     O_R   0.601860 0.500000 0.385300 -0.666897
Zn1   Zn    Zn3+2 0.500000 0.500020 0.653130 1.011516
Zn2   Zn    Zn3+2 0.500000 0.499980 0.346870 0.918829
N7    N     N_2   0.279299 0.545975 0.750127 -0.294371
H12   H     H_    0.293014 0.635586 0.782156 0.238038
C37   C     C_3   0.247497 0.468589 0.858637 -0.835920
H13   H     H_    0.288589 0.437781 0.925125 0.233442
H14   H     H_    0.217779 0.384026 0.818592 0.262651
H15   H     H_    0.213620 0.523782 0.924585 0.238616
O9    O     O_3   0.605459 0.230541 0.737623 -0.584473
C38   C     C_3   0.669528 0.205172 0.674176 -0.326430
H16   H     H_    0.663608 0.188525 0.564105 0.154079
H17   H     H_    0.693030 0.124332 0.722136 0.157585
H18   H     H_    0.706574 0.288450 0.685543 0.197807
N8    N     N_2   0.415163 0.812526 0.757616 -0.268979
H19   H     H_    0.402263 0.774690 0.851414 0.214609
C39   C     C_3   0.355740 0.840576 0.677641 -0.834429
H20   H     H_    0.342492 0.760675 0.609309 0.239974
H21   H     H_    0.310198 0.857298 0.744979 0.222245
H22   H     H_    0.366169 0.924421 0.612783 0.245006
N9    N     N_2   0.577916 0.687295 0.139102 -0.295055
H23   H     H_    0.596797 0.660152 0.229307 0.286407
C40   C     C_3   0.627352 0.771914 0.065677 -0.876137
H24   H     H_    0.654502 0.837398 0.137669 0.249350
H25   H     H_    0.600021 0.829625 0.993886 0.261100
H26   H     H_    0.667017 0.718239 0.011623 0.258995
N10   N     N_2   0.387886 0.302660 0.747442 -0.235142
H27   H     H_    0.346312 0.356043 0.757842 0.268390
C41   C     C_3   0.365732 0.189180 0.674827 -0.821820
H28   H     H_    0.358643 0.212198 0.567026 0.233677
H29   H     H_    0.405355 0.119975 0.680870 0.254440
H30   H     H_    0.315048 0.147884 0.716658 0.220512
N11   N     N_2   0.136176 0.599946 0.725007 -0.293166
H31   H     H_    0.160603 0.659921 0.793483 0.225459
C42   C     C_3   0.083319 0.508882 0.779706 -0.750263
H32   H     H_    0.096804 0.480477 0.882882 0.225103
H33   H     H_    0.077440 0.423283 0.715579 0.238296
H34   H     H_    0.032455 0.552034 0.786788 0.251674
N12   N     N_2   0.290112 0.490246 0.249124 -0.280981
H35   H     H_    0.265135 0.423734 0.188057 0.218142
C43   C     C_3   0.310621 0.604980 0.176371 -0.742167
H36   H     H_    0.344955 0.583597 0.088728 0.228471
H37   H     H_    0.340135 0.672999 0.242445 0.253825
H38   H     H_    0.263853 0.648482 0.139020 0.215927
O10   O     O_3   0.716122 0.576444 0.728003 -0.589031
C44   C     C_3   0.752010 0.531350 0.838757 -0.319489
H39   H     H_    0.791242 0.604514 0.874421 0.161589
H40   H     H_    0.777043 0.442387 0.815812 0.148456
H41   H     H_    0.713821 0.511238 0.923086 0.198301
N13   N     N_2   0.847615 0.519167 0.217627 -0.296373
H42   H     H_    0.827698 0.579009 0.149123 0.215254
C45   C     C_3   0.848889 0.392687 0.164999 -0.778606
H43   H     H_    0.795106 0.353328 0.144579 0.223601
H44   H     H_    0.873437 0.331211 0.237731 0.262888
H45   H     H_    0.879967 0.394116 0.068915 0.236813

loop_
_geom_bond_atom_site_label_1
_geom_bond_atom_site_label_2
_ccdc_geom_bond_type
O5    Zn1   S    
C23   O5    A    
C15   N8    S    
N10   H27   S    
C16   C21   A    
C28   N5    A    
C31   O8    A    
C37   H14   S    
C42   H32   S    
C1    O1    A    
C2    C12   S    
C45   H44   S    
N9    H23   S    
C3    N2    A    
C42   H34   S    
C7    C8    A    
C39   H20   S    
C23   O6    A    
C1    C18   S    
N11   H31   S    
C2    C32   A    
C18   C19   A    
C5    C6    A    
C19   H11   S    
C37   H15   S    
C44   H39   S    
C15   C16   A    
C8    C9    A    
O7    Zn1   S    
C34   C35   A    
O8    Zn2   S    
N13   H42   S    
C35   C36   A    
C26   N10   S    
O2    Zn2   S    
O9    C38   S    
C41   H29   S    
C9    C10   A    
C13   H1    S    
C37   H13   S    
C43   H37   S    
C22   C28   A    
C13   C14   A    
C24   H5    S    
C45   H43   S    
N9    C40   S    
C3    N3    A    
O4    Zn2   S    
C8    H10   S    
C39   H21   S    
C30   N6    A    
C4    C34   S    
C11   O9    S    
C7    C31   S    
C4    N4    A    
C43   H36   S    
C24   C25   A    
C32   N7    S    
C38   H17   S    
C20   H3    S    
C16   C17   A    
O1    Zn1   S    
N3    N4    A    
C25   C26   A    
C5    H9    S    
N7    C37   S    
C31   O7    A    
N8    H19   S    
C29   N9    S    
C29   C30   A    
C14   H2    S    
N6    Zn1   S    
C40   H24   S    
C22   H4    S    
C27   N6    A    
C17   C18   A    
C26   C27   A    
C41   H30   S    
C35   H8    S    
N8    C39   S    
C12   O3    A    
C12   O4    A    
N1    N2    A    
N12   C43   S    
C43   H38   S    
C21   C23   S    
C22   C24   A    
C30   H7    S    
C4    N1    A    
C39   H22   S    
C2    C36   A    
C9    N13   S    
C11   C17   A    
C40   H25   S    
N5    Zn2   S    
C33   N11   S    
C25   H6    S    
C38   H18   S    
C42   H33   S    
C6    C7    A    
O10   C44   S    
O6    Zn2   S    
N12   H35   S    
C32   C33   A    
C19   C20   A    
N10   C41   S    
C1    O2    A    
C5    C10   A    
C3    C10   S    
N7    H12   S    
C11   C13   A    
C44   H40   S    
C6    O10   S    
C33   C34   A    
C36   N12   S    
O3    Zn1   S    
N13   C45   S    
C38   H16   S    
C40   H26   S    
C20   C21   A    
N11   C42   S    
C27   C28   A    
C14   C15   A    
C41   H28   S    
C29   N5    A    
C45   H45   S    
C44   H41   S    
