data_mof_unit_20239.cif
_audit_creation_date              2012-12-10T18:35:01-0500
_audit_creation_method            fapswitch 2.2
_symmetry_space_group_name_H-M    P1
_symmetry_Int_Tables_number       1
_space_group_crystal_system       triclinic
_cell_length_a                    15.104483
_cell_length_b                    13.862985
_cell_length_c                    10.801641
_cell_angle_alpha                 89.395789
_cell_angle_beta                  90.487211
_cell_angle_gamma                 90.024738
_cell_volume                      2261.58274108

loop_
_atom_site_label
_atom_site_type_symbol
_atom_type_description
_atom_site_fract_x
_atom_site_fract_y
_atom_site_fract_z
_atom_type_partial_charge
C1    C     C_R   0.329830 0.500014 0.501089 0.858689
C2    C     C_R   0.670039 0.500025 0.499862 0.780667
C3    C     C_R   0.233186 0.500106 0.502403 -0.092510
C4    C     C_R   0.766368 0.500104 0.498027 -0.086667
C5    C     C_R   0.187190 0.418810 0.545589 -0.294051
C6    C     C_R   0.811532 0.425065 0.440165 -0.290520
C7    C     C_R   0.094896 0.418629 0.547570 0.521145
C8    C     C_R   0.903705 0.425671 0.435345 0.517725
C9    C     C_R   0.048185 0.498922 0.499965 0.009457
C10   C     C_R   0.951183 0.499370 0.495792 0.014465
C11   C     C_R   0.567778 0.107567 0.559639 -0.281041
C12   C     C_R   0.431873 0.108289 0.441995 -0.280391
C13   C     C_R   0.566178 0.209050 0.559002 0.073736
C14   C     C_R   0.433616 0.209689 0.441898 0.058226
C15   C     C_R   0.499873 0.054681 0.500768 0.132072
C16   C     C_R   0.458606 0.892937 0.404711 -0.279331
C17   C     C_R   0.541471 0.891200 0.595893 -0.281321
C18   C     C_R   0.458815 0.791444 0.406757 0.083131
C19   C     C_R   0.541360 0.789772 0.593314 0.088291
C20   C     C_R   0.499964 0.945313 0.500492 0.130002
C21   C     C_R   0.499343 0.500444 0.262478 0.888527
C22   C     C_R   0.501298 0.499046 0.737726 0.885472
C23   C     C_R   0.651197 0.575800 0.130840 -0.132869
C24   C     C_R   0.651021 0.577887 0.872689 -0.145154
C25   C     C_R   0.723098 0.614111 0.066868 -0.141429
C26   C     C_R   0.722850 0.615511 0.938105 -0.144184
C27   C     C_R   0.577326 0.538617 0.935755 0.032281
C28   C     C_R   0.577046 0.538292 0.066309 0.025185
C29   C     C_R   0.502568 0.500622 0.128796 -0.252335
C30   C     C_R   0.505934 0.495466 0.871891 -0.266394
C31   C     C_R   0.431674 0.457697 0.064811 0.335513
C32   C     C_R   0.438373 0.446357 0.936222 0.331554
C33   C     C_R   0.094374 0.580292 0.457575 -0.272360
C34   C     C_R   0.905566 0.574574 0.552986 -0.262112
C35   C     C_R   0.186337 0.581180 0.459560 -0.164430
C36   C     C_R   0.813603 0.575480 0.553033 -0.196695
Cu1   Cu    Cu3+1 0.500000 0.596430 0.500000 0.944732
Cu2   Cu    Cu3+1 0.500000 0.403570 0.500000 0.934062
H1    H     H_    0.427075 0.929571 0.327252 0.127412
H2    H     H_    0.573056 0.926396 0.673457 0.126859
H3    H     H_    0.426103 0.752806 0.332906 0.127298
H4    H     H_    0.574324 0.749871 0.666876 0.121402
H5    H     H_    0.654882 0.575238 0.230833 0.134996
H6    H     H_    0.654967 0.577957 0.772796 0.122341
H7    H     H_    0.779389 0.642425 0.117464 0.128817
H8    H     H_    0.779004 0.644757 0.888638 0.126158
H9    H     H_    0.059079 0.642692 0.421539 0.157469
H10   H     H_    0.941302 0.631919 0.599005 0.156714
H11   H     H_    0.220770 0.644464 0.425261 0.160443
H12   H     H_    0.779422 0.633835 0.598385 0.149575
H13   H     H_    0.222529 0.355793 0.579272 0.163732
H14   H     H_    0.775373 0.367191 0.395835 0.166436
H15   H     H_    0.622859 0.071378 0.604702 0.129085
H16   H     H_    0.376641 0.072703 0.397399 0.129058
H17   H     H_    0.618514 0.248056 0.605606 0.121873
H18   H     H_    0.381117 0.249061 0.395765 0.125617
N1    N     N_R   0.500000 0.258690 0.500000 -0.174298
N2    N     N_R   0.500000 0.741330 0.500000 -0.174837
O1    O     O_R   0.371460 0.581430 0.500010 -0.581004
O2    O     O_R   0.628540 0.581430 0.499990 -0.596800
O3    O     O_R   0.371470 0.418560 0.500010 -0.604817
O4    O     O_R   0.628530 0.418560 0.499990 -0.593894
O5    O     O_R   0.500000 0.581450 0.319650 -0.593001
O6    O     O_R   0.500000 0.581450 0.680350 -0.594807
O7    O     O_R   0.500010 0.418580 0.319650 -0.582442
O8    O     O_R   0.499990 0.418580 0.680350 -0.580341
O9    O     O_3   0.350712 0.449361 0.124913 -0.568217
C37   C     C_3   0.321322 0.352904 0.131702 0.092002
H19   H     H_    0.376074 0.302420 0.157342 0.118222
H20   H     H_    0.289182 0.332060 0.043441 0.195488
C38   C     C_3   0.249603 0.344304 0.228867 -0.815565
H21   H     H_    0.193427 0.393018 0.205278 0.259286
H22   H     H_    0.225312 0.268777 0.233766 0.192538
H23   H     H_    0.276530 0.363985 0.320316 0.259427
O10   O     O_3   0.375122 0.394550 0.871451 -0.576761
C39   C     C_3   0.405020 0.297826 0.860206 0.064843
H24   H     H_    0.403567 0.258912 0.950330 0.095256
H25   H     H_    0.474279 0.292742 0.826773 0.160246
C40   C     C_3   0.345243 0.244654 0.769839 -0.761759
H26   H     H_    0.349438 0.278776 0.676827 0.264729
H27   H     H_    0.366612 0.168258 0.763101 0.199293
H28   H     H_    0.275583 0.246901 0.801809 0.229699
O11   O     O_3   0.050594 0.338413 0.592019 -0.549575
C41   C     C_3   0.040810 0.347694 0.721150 0.048085
H29   H     H_    0.006274 0.416167 0.744418 0.139464
H30   H     H_    0.106552 0.345489 0.768687 0.144833
C42   C     C_3   0.985276 0.264174 0.769571 -0.763355
H31   H     H_    0.018607 0.194630 0.750126 0.248931
H32   H     H_    0.976615 0.270750 0.871072 0.190323
H33   H     H_    0.919061 0.264955 0.724006 0.253856
O12   O     O_3   0.946526 0.351955 0.375018 -0.546559
C43   C     C_3   0.964482 0.382683 0.252770 0.049251
H34   H     H_    0.014441 0.441764 0.252610 0.145241
H35   H     H_    0.903201 0.408021 0.204096 0.131082
C44   C     C_3   0.001836 0.298440 0.180950 -0.775684
H36   H     H_    0.950862 0.241191 0.171288 0.245307
H37   H     H_    0.022200 0.323309 0.087389 0.190318
H38   H     H_    0.060321 0.267995 0.230403 0.259573

loop_
_geom_bond_atom_site_label_1
_geom_bond_atom_site_label_2
_ccdc_geom_bond_type
C41   H30   S    
C14   H18   S    
C42   H31   S    
C4    C36   A    
C7    O11   S    
C44   H36   S    
C41   C42   S    
C13   H17   S    
C32   O10   S    
C44   H38   S    
C31   O9    S    
C28   C29   A    
C39   H25   S    
C1    O1    A    
C2    O2    A    
C13   N1    A    
C17   C20   A    
C23   H5    S    
C22   O8    A    
C33   C35   A    
C11   C15   A    
C18   N2    A    
C31   C32   A    
C37   H19   S    
C35   H11   S    
C24   C27   A    
C9    C10   S    
Cu1   N2    S    
C11   H15   S    
C19   H4    S    
Cu2   O3    S    
C27   C30   A    
C9    C33   A    
Cu1   O5    S    
C5    C7    A    
C19   N2    A    
C15   C20   S    
O9    C37   S    
Cu2   O8    S    
C39   H24   S    
C4    C6    A    
C18   H3    S    
O12   C43   S    
C40   H27   S    
C6    C8    A    
C25   C26   A    
C21   C29   S    
C43   C44   S    
C1    C3    S    
C17   H2    S    
C2    C4    S    
O10   C39   S    
Cu1   Cu2   S    
C38   H23   S    
Cu2   N1    S    
O11   C41   S    
C12   C15   A    
C3    C35   A    
C16   C20   A    
C43   H35   S    
C10   C34   A    
C8    O12   S    
C23   C28   A    
C41   H29   S    
Cu1   O1    S    
C16   C18   A    
C12   C14   A    
C42   H32   S    
C33   H9    S    
C34   H10   S    
C25   H7    S    
Cu1   O6    S    
C36   H12   S    
C38   H22   S    
C7    C9    A    
C14   N1    A    
C22   C30   S    
C21   O7    A    
C24   C26   A    
C3    C5    A    
C1    O3    A    
C40   H28   S    
C44   H37   S    
C38   H21   S    
C29   C31   A    
C30   C32   A    
C11   C13   A    
C37   C38   S    
C24   H6    S    
C43   H34   S    
C17   C19   A    
C34   C36   A    
C23   C25   A    
C21   O5    A    
Cu1   O2    S    
C26   H8    S    
C16   H1    S    
C22   O6    A    
C40   H26   S    
C39   C40   S    
C8    C10   A    
C42   H33   S    
C27   C28   A    
C37   H20   S    
C5    H13   S    
C6    H14   S    
Cu2   O7    S    
C12   H16   S    
C2    O4    A    
Cu2   O4    S    
