data_mof_unit_17673.cif
_audit_creation_date              2012-12-10T17:04:35-0500
_audit_creation_method            fapswitch 2.2
_symmetry_space_group_name_H-M    P1
_symmetry_Int_Tables_number       1
_space_group_crystal_system       triclinic
_cell_length_a                    14.969934
_cell_length_b                    10.718422
_cell_length_c                    10.018401
_cell_angle_alpha                 88.803062
_cell_angle_beta                  90.125871
_cell_angle_gamma                 90.095637
_cell_volume                      1607.13646498

loop_
_atom_site_label
_atom_site_type_symbol
_atom_type_description
_atom_site_fract_x
_atom_site_fract_y
_atom_site_fract_z
_atom_type_partial_charge
C1    C     C_R   0.508385 0.263110 0.501475 0.788034
C2    C     C_R   0.186563 0.406408 0.579471 0.397465
C3    C     C_R   0.231216 0.496296 0.499021 -0.282432
C4    C     C_R   0.327008 0.499433 0.499830 0.861410
C5    C     C_R   0.184644 0.582152 0.416774 0.350634
C6    C     C_2   0.536145 0.934839 0.398246 0.447872
C7    C     C_2   0.488857 0.870342 0.490947 0.298501
C8    C     C_2   0.527124 0.069273 0.392618 -0.289068
C9    C     C_2   0.534387 0.133629 0.504767 0.351343
C10   C     C_2   0.547001 0.577504 0.923392 -0.254111
C11   C     C_2   0.553660 0.570188 0.074865 0.495944
C12   C     C_R   0.906152 0.575915 0.412630 0.164690
C13   C     C_R   0.498165 0.737512 0.498226 0.816580
C14   C     C_R   0.672909 0.500039 0.500173 0.888299
C15   C     C_R   0.813874 0.576479 0.412224 -0.220776
C16   C     C_R   0.768064 0.498826 0.500956 -0.066123
C17   C     C_R   0.812367 0.419479 0.590419 -0.214801
C18   C     C_R   0.905378 0.416364 0.592560 -0.087160
C19   C     C_R   0.952634 0.494414 0.501443 0.069311
C20   C     C_R   0.952052 0.333497 0.678831 0.376229
C21   C     C_R   0.044231 0.321641 0.666412 0.464682
C22   C     C_R   0.092852 0.405382 0.581969 -0.146545
C23   C     C_R   0.046022 0.491801 0.498873 -0.154025
C24   C     C_R   0.092059 0.576375 0.412805 0.115694
C25   C     C_R   0.044517 0.657317 0.326642 -0.107739
C26   C     C_R   0.952197 0.655916 0.325531 -0.244260
H1    H     H_    0.078364 0.722013 0.259322 0.207719
H2    H     H_    0.772954 0.357502 0.653513 0.161219
H3    H     H_    0.861461 0.306721 0.813817 0.328996
H4    H     H_    0.116308 0.175162 0.676947 0.359430
H5    H     H_    0.287777 0.296053 0.611306 0.338407
H6    H     H_    0.283188 0.699159 0.387420 0.337263
H7    H     H_    0.916760 0.718592 0.257668 0.163433
H8    H     H_    0.621293 0.939764 0.252442 0.338537
H9    H     H_    0.777449 0.638235 0.344321 0.186009
H10   H     H_    0.395955 0.865527 0.627228 0.340823
H11   H     H_    0.508870 0.112574 0.297390 0.135252
H12   H     H_    0.575631 0.139421 0.690258 0.347865
H13   H     H_    0.585108 0.649413 0.871081 0.182899
H14   H     H_    0.470108 0.427289 0.899608 0.171302
H15   H     H_    0.651912 0.688126 0.071555 0.316900
H16   H     H_    0.449617 0.455058 0.102182 0.123447
N1    N     N_2   0.500970 0.501330 0.852150 -0.193489
N2    N     N_2   0.500990 0.501360 0.147810 -0.188826
O1    O     O_R   0.499990 0.319060 0.613040 -0.619130
O2    O     O_3   0.569059 0.076916 0.619521 -0.726128
O3    O     O_3   0.616502 0.641434 0.139546 -0.686260
O4    O     O_3   0.909771 0.257929 0.772458 -0.700937
O5    O     O_3   0.084808 0.228661 0.741236 -0.639370
O6    O     O_3   0.233605 0.322774 0.659523 -0.708758
O7    O     O_3   0.227519 0.674138 0.341578 -0.752004
O8    O     O_3   0.592761 0.875454 0.310937 -0.747168
O9    O     O_R   0.500010 0.319100 0.386900 -0.638290
O10   O     O_R   0.367830 0.499950 0.613080 -0.579572
O11   O     O_R   0.367860 0.499990 0.386940 -0.596461
O12   O     O_R   0.499990 0.680900 0.613100 -0.617958
O13   O     O_R   0.500010 0.680940 0.386960 -0.539704
O14   O     O_R   0.632140 0.500010 0.613060 -0.623700
O15   O     O_R   0.632170 0.500050 0.386920 -0.561765
O16   O     O_3   0.427371 0.929311 0.571558 -0.754745
Zn1   Zn    Zn3+2 0.499980 0.499970 0.650990 0.981762
Zn2   Zn    Zn3+2 0.500020 0.500030 0.349010 1.033354

loop_
_geom_bond_atom_site_label_1
_geom_bond_atom_site_label_2
_ccdc_geom_bond_type
C2    C22   A    
C19   C23   A    
C23   C24   A    
H6    O7    S    
C6    C7    D    
O10   Zn1   S    
C25   H1    S    
O9    Zn2   S    
C10   N1    D    
C26   H7    S    
C11   O3    S    
C12   C15   A    
C7    C13   S    
H3    O4    S    
C3    C5    A    
C13   O12   A    
N2    Zn2   S    
O14   Zn1   S    
C21   O5    S    
C2    C3    A    
H15   O3    S    
C11   N2    D    
C21   C22   A    
C24   C25   A    
C14   O15   A    
C1    O1    A    
C20   O4    S    
C5    C24   A    
H16   N2    S    
C12   C19   A    
O1    Zn1   S    
H4    O5    S    
C17   C18   A    
C18   C20   A    
C4    O11   A    
C14   O14   A    
C14   C16   S    
H12   O2    S    
C13   O13   A    
C8    H11   S    
O13   Zn2   S    
H5    O6    S    
C3    C4    S    
O11   Zn2   S    
C6    O8    S    
C7    O16   S    
C9    O2    S    
C1    C9    S    
C20   C21   A    
N1    Zn1   S    
C18   C19   A    
C10   C11   S    
C15   H9    S    
C1    O9    A    
C22   C23   A    
C10   H13   S    
O15   Zn2   S    
C6    C8    S    
C2    O6    S    
C4    O10   A    
C25   C26   A    
O12   Zn1   S    
C17   H2    S    
H8    O8    S    
H14   N1    S    
C5    O7    S    
C15   C16   A    
C16   C17   A    
C12   C26   A    
C8    C9    D    
H10   O16   S    
