data_mof_unit_16075.cif
_audit_creation_date              2012-12-10T16:58:26-0500
_audit_creation_method            fapswitch 2.2
_symmetry_space_group_name_H-M    P1
_symmetry_Int_Tables_number       1
_space_group_crystal_system       triclinic
_cell_length_a                    15.87217
_cell_length_b                    10.916559
_cell_length_c                    9.690203
_cell_angle_alpha                 90.033863
_cell_angle_beta                  90.069148
_cell_angle_gamma                 90.130549
_cell_volume                      1679.01056033

loop_
_atom_site_label
_atom_site_type_symbol
_atom_type_description
_atom_site_fract_x
_atom_site_fract_y
_atom_site_fract_z
_atom_type_partial_charge
C1    C     C_R   0.497196 0.265384 0.499980 0.852930
C2    C     C_3   0.082984 0.498755 0.497766 0.060222
C3    C     C_3   0.973091 0.596923 0.570393 0.132155
C4    C     C_3   0.916945 0.500205 0.500197 0.116720
C5    C     C_3   0.027834 0.602241 0.438975 0.099066
C6    C     C_3   0.970791 0.505433 0.367841 -0.243158
C7    C     C_1   0.174703 0.499056 0.498905 -0.004602
C8    C     C_1   0.825305 0.500194 0.500351 -0.042961
C9    C     C_2   0.494509 0.933062 0.392966 -0.233730
C10   C     C_2   0.523342 0.865413 0.499447 -0.153220
C11   C     C_2   0.500413 0.066633 0.387579 -0.103457
C12   C     C_R   0.339859 0.499953 0.499900 0.814874
C13   C     C_2   0.489220 0.133583 0.501581 -0.271020
C14   C     C_2   0.451582 0.429047 0.921959 -0.057914
C15   C     C_2   0.452838 0.427247 0.077698 -0.057801
C16   C     C_R   0.504874 0.734658 0.500077 0.778400
C17   C     C_R   0.660144 0.500113 0.500093 0.834396
C18   C     C_3   0.971282 0.395983 0.559223 -0.205923
C19   C     C_3   0.026450 0.402724 0.428297 0.034387
C20   C     C_1   0.250205 0.499515 0.499584 -0.146405
C21   C     C_1   0.749803 0.500196 0.500278 -0.158026
C22   C     C_3   0.028699 0.493114 0.629753 -0.225868
Cu1   Cu    Cu3+1 0.500020 0.500020 0.638630 0.978722
Cu2   Cu    Cu3+1 0.499980 0.499980 0.361370 0.961214
H1    H     H_    0.474171 0.090555 0.599571 0.148703
H2    H     H_    0.408187 0.367197 0.870405 0.152300
H3    H     H_    0.541621 0.555848 0.894036 0.208095
H4    H     H_    0.411801 0.362067 0.128987 0.155706
H5    H     H_    0.536905 0.562415 0.106162 0.200883
H6    H     H_    0.946939 0.310966 0.607920 0.157056
H7    H     H_    0.945942 0.509523 0.260787 0.149211
H8    H     H_    0.053557 0.487787 0.736712 0.148539
H9    H     H_    0.461006 0.889622 0.308099 0.169354
H10   H     H_    0.509726 0.109695 0.287708 0.171737
N1    N     N_2   0.499090 0.498660 0.846910 -0.274022
N2    N     N_2   0.499070 0.498630 0.153040 -0.279485
O1    O     O_R   0.500010 0.321960 0.617040 -0.577064
O2    O     O_R   0.499990 0.321920 0.382900 -0.578258
O3    O     O_R   0.379090 0.500010 0.617050 -0.577832
O4    O     O_R   0.379060 0.499970 0.382910 -0.566954
O5    O     O_R   0.500010 0.678080 0.617100 -0.538660
O6    O     O_R   0.499990 0.678040 0.382960 -0.582254
O7    O     O_R   0.620940 0.500030 0.617090 -0.567796
O8    O     O_R   0.620910 0.499990 0.382950 -0.568445
C23   C     C_2   0.054391 0.292588 0.348329 0.828306
O9    O     O_2   0.001625 0.223806 0.298597 -0.605582
O10   O     O_R   0.140170 0.268867 0.330969 -0.773064
H11   H     H_    0.150801 0.191838 0.275208 0.323891
C24   C     C_3   0.064655 0.713619 0.364159 -0.416650
C25   C     C_3   0.995737 0.798307 0.308295 -0.352453
C26   C     C_3   0.033645 0.903727 0.225548 -0.786247
H12   H     H_    0.076249 0.959330 0.291777 0.261568
H13   H     H_    0.069573 0.867875 0.135937 0.241125
H14   H     H_    0.982429 0.963579 0.186477 0.269194
H15   H     H_    0.952239 0.745792 0.240361 0.219484
H16   H     H_    0.958893 0.837151 0.395016 0.230446
H17   H     H_    0.106653 0.764737 0.435593 0.190478
H18   H     H_    0.103635 0.679861 0.276896 0.205987
C27   C     C_3   0.937480 0.701404 0.658028 -0.405310
C28   C     C_3   0.007329 0.780152 0.722218 -0.357943
C29   C     C_3   0.970839 0.875951 0.819939 -0.817938
H19   H     H_    0.926687 0.936967 0.763623 0.261002
H20   H     H_    0.936953 0.830734 0.906351 0.255930
H21   H     H_    0.022649 0.932537 0.863571 0.241827
H22   H     H_    0.051748 0.721310 0.780964 0.218831
H23   H     H_    0.042926 0.828028 0.639834 0.224001
H24   H     H_    0.895533 0.759005 0.593437 0.195734
H25   H     H_    0.898660 0.660343 0.741525 0.207525
C30   C     C_2   0.583077 0.913777 0.605642 0.838766
O11   O     O_2   0.580832 0.874687 0.723830 -0.592599
O12   O     O_R   0.643737 0.001058 0.569049 -0.746820
H26   H     H_    0.680802 0.025930 0.649663 0.330695

loop_
_geom_bond_atom_site_label_1
_geom_bond_atom_site_label_2
_ccdc_geom_bond_type
C2    C22   S    
C29   H21   S    
Cu2   O2    S    
Cu1   Cu2   S    
C19   C23   S    
C27   C28   S    
C12   O4    A    
C18   H6    S    
C27   H25   S    
C18   C22   S    
Cu2   O6    S    
C9    C10   D    
C27   H24   S    
C25   H15   S    
Cu1   O5    S    
C1    O1    A    
C4    C8    S    
C26   H14   S    
C4    C18   S    
C12   C20   S    
C12   O3    A    
C17   O7    A    
C6    H7    S    
C17   O8    A    
C28   H23   S    
O12   H26   S    
C10   C16   S    
C23   O9    D    
C14   H2    S    
C9    H9    S    
C6    C19   S    
C9    C11   S    
H5    N2    S    
C5    C24   S    
C15   H4    S    
Cu2   N2    S    
C22   H8    S    
C1    O2    A    
Cu1   O3    S    
C5    C6    S    
Cu2   O4    S    
C28   H22   S    
C25   C26   S    
Cu1   N1    S    
C30   O11   D    
C23   O10   S    
C29   H19   S    
Cu2   O8    S    
C24   C25   S    
C17   C21   S    
C2    C5    S    
C1    C13   S    
C24   H18   S    
C26   H12   S    
C10   C30   S    
C16   O6    A    
C15   N2    D    
C11   C13   D    
C24   H17   S    
C13   H1    S    
C4    C6    S    
C18   C19   S    
C14   N1    D    
C29   H20   S    
C14   C15   S    
C28   C29   S    
C3    C22   S    
C3    C5    S    
C2    C7    S    
H3    N1    S    
C2    C19   S    
Cu1   O1    S    
Cu1   O7    S    
C16   O5    A    
C7    C20   T    
C11   H10   S    
C25   H16   S    
C3    C4    S    
O10   H11   S    
C3    C27   S    
C30   O12   S    
C26   H13   S    
C8    C21   T    
