data_mof_unit_62073.cif
_audit_creation_date              2012-12-10T20:59:25-0500
_audit_creation_method            fapswitch 2.2
_symmetry_space_group_name_H-M    P1
_symmetry_Int_Tables_number       1
_space_group_crystal_system       triclinic
_cell_length_a                    22.226908
_cell_length_b                    22.246912
_cell_length_c                    22.230389
_cell_angle_alpha                 110.024859
_cell_angle_beta                  108.431823
_cell_angle_gamma                 109.992451
_cell_volume                      8456.71697916

loop_
_atom_site_label
_atom_site_type_symbol
_atom_type_description
_atom_site_fract_x
_atom_site_fract_y
_atom_site_fract_z
_atom_type_partial_charge
C1    C     C_R   0.900396 0.500026 0.599585 0.504234
C2    C     C_1   0.139324 0.778597 0.639303 -0.010313
C3    C     C_3   0.284955 0.576291 0.328028 -0.211593
C4    C     C_R   0.099651 0.499940 0.400442 0.500912
C5    C     C_3   0.166382 0.482899 0.209397 -0.212727
C6    C     C_3   0.209358 0.482908 0.166406 -0.212731
C7    C     C_1   0.360949 0.499753 0.139552 -0.016201
C8    C     C_3   0.214346 0.499710 0.287468 0.071025
C9    C     C_3   0.327987 0.576297 0.284981 -0.211586
C10   C     C_3   0.287443 0.499722 0.214343 0.071022
C11   C     C_3   0.279996 0.439990 0.236917 -0.212374
C12   C     C_1   0.360658 0.221403 0.860729 -0.010333
C13   C     C_3   0.236959 0.439985 0.279973 -0.212373
C14   C     C_1   0.327941 0.499704 0.173304 -0.086253
C15   C     C_1   0.173320 0.499679 0.327980 -0.086260
C16   C     C_R   0.140302 0.499183 0.639406 0.501194
C17   C     C_1   0.139572 0.499719 0.360992 -0.016221
C18   C     C_R   0.990311 0.528198 0.252432 -0.096571
C19   C     C_R   0.935975 0.536702 0.266811 -0.067089
C20   C     C_R   0.861815 0.480361 0.220526 0.053642
C21   C     C_R   0.842862 0.416191 0.158980 -0.088120
C22   C     C_R   0.897385 0.407973 0.144787 -0.110892
C23   C     C_3   0.213464 0.926905 0.713467 0.068798
C24   C     C_R   0.971030 0.463818 0.191571 -0.092995
C25   C     C_R   0.747518 0.485933 0.182859 -0.152025
C26   C     C_R   0.694020 0.497784 0.196364 0.020621
C27   C     C_R   0.695355 0.510763 0.263739 -0.029228
C28   C     C_R   0.860475 0.500725 0.359678 0.501068
C29   C     C_R   0.752021 0.513697 0.317086 -0.151774
C30   C     C_R   0.805606 0.501920 0.303598 0.020553
C31   C     C_R   0.803991 0.488580 0.236054 -0.029579
C32   C     C_R   0.654536 0.581252 0.340085 -0.087946
C33   C     C_R   0.599128 0.588369 0.353266 -0.110754
C34   C     C_3   0.207858 0.042908 0.726264 -0.213139
C35   C     C_R   0.525728 0.532098 0.305509 -0.093171
C36   C     C_R   0.507627 0.468358 0.244738 -0.097113
C37   C     C_R   0.562827 0.460969 0.231361 -0.067730
C38   C     C_R   0.636738 0.517778 0.278564 0.053302
C39   C     C_3   0.796916 0.578073 0.753954 -0.213453
C40   C     C_R   0.900443 0.300791 0.400374 0.502538
C41   C     C_3   0.814262 0.478032 0.771210 -0.213358
C42   C     C_3   0.771246 0.478015 0.814238 -0.213365
C43   C     C_1   0.639298 0.499974 0.860736 -0.010514
C44   C     C_3   0.786549 0.500023 0.713455 0.068758
C45   C     C_3   0.286516 0.073095 0.786571 0.068820
C46   C     C_3   0.753900 0.578056 0.796982 -0.213450
C47   C     C_3   0.713454 0.499995 0.786572 0.068761
C48   C     C_3   0.660334 0.443932 0.703362 -0.213785
C49   C     C_3   0.703349 0.443949 0.660334 -0.213787
C50   C     C_1   0.672686 0.499980 0.827348 -0.077274
C51   C     C_1   0.827315 0.500036 0.672676 -0.077266
C52   C     C_R   0.099587 0.699204 0.599601 0.502579
C53   C     C_1   0.860699 0.500038 0.639284 -0.010504
C54   C     C_3   0.815571 0.043130 0.335706 -0.213471
C55   C     C_3   0.795325 0.042895 0.217705 -0.213501
C56   C     C_3   0.280372 0.043077 0.839140 -0.214101
C57   C     C_3   0.752295 0.956882 0.174745 -0.213315
C58   C     C_1   0.639242 0.778601 0.139380 -0.010304
C59   C     C_3   0.786557 0.073094 0.286512 0.068805
C60   C     C_3   0.772540 0.957117 0.292747 -0.213134
C61   C     C_3   0.713425 0.926906 0.213498 0.068816
C62   C     C_3   0.660592 0.956982 0.218084 -0.214097
C63   C     C_3   0.703621 0.042995 0.261043 -0.213543
C64   C     C_3   0.164877 0.956894 0.683251 -0.213481
C65   C     C_1   0.672635 0.845365 0.172764 -0.077191
C66   C     C_1   0.827347 0.154635 0.327246 -0.077208
C67   C     C_3   0.237392 0.957063 0.796128 -0.213546
C68   C     C_1   0.860740 0.221399 0.360629 -0.010325
C69   C     C_R   0.244740 0.468292 0.507654 -0.097108
C70   C     C_R   0.231361 0.460921 0.562847 -0.067735
C71   C     C_R   0.278555 0.517735 0.636767 0.053292
C72   C     C_R   0.340068 0.581196 0.654579 -0.087931
C73   C     C_R   0.353251 0.588295 0.599178 -0.110761
C74   C     C_R   0.305503 0.532019 0.525769 -0.093183
C75   C     C_R   0.317073 0.513673 0.752040 -0.151758
C76   C     C_3   0.283230 0.957023 0.706159 -0.213480
C77   C     C_R   0.303583 0.501916 0.805619 0.020550
C78   C     C_1   0.327269 0.154638 0.827346 -0.077201
C79   C     C_R   0.236038 0.488598 0.803999 -0.029588
C80   C     C_R   0.182842 0.485950 0.747527 -0.152037
C81   C     C_R   0.196349 0.497783 0.694037 0.020616
C82   C     C_R   0.263727 0.510741 0.695376 -0.029219
C83   C     C_R   0.158976 0.416248 0.842859 -0.088141
C84   C     C_R   0.144788 0.408054 0.897381 -0.110887
C85   C     C_R   0.191567 0.463908 0.971033 -0.092983
C86   C     C_R   0.252416 0.528275 0.990321 -0.096579
C87   C     C_R   0.266790 0.536756 0.935987 -0.067097
C88   C     C_3   0.326212 0.043037 0.749172 -0.213307
C89   C     C_1   0.172712 0.845363 0.672690 -0.077196
C90   C     C_R   0.220510 0.480404 0.861820 0.053635
C91   C     C_R   0.639389 0.499182 0.140316 0.501192
C92   C     C_R   0.359665 0.500722 0.860487 0.501076
C93   C     C_R   0.400406 0.499984 0.099639 0.500910
C94   C     C_R   0.599596 0.499978 0.900430 0.504243
C95   C     C_R   0.599541 0.699209 0.099636 0.502586
C96   C     C_R   0.400394 0.300796 0.900424 0.502522
H1    H     H_    0.210628 0.063446 0.687505 0.112999
H2    H     H_    0.178859 0.427949 0.115357 0.108008
H3    H     H_    0.271770 0.450927 0.335401 0.105367
H4    H     H_    0.147072 0.936255 0.623900 0.112340
H5    H     H_    0.187210 0.384261 0.250817 0.111394
H6    H     H_    0.335435 0.450934 0.271705 0.105362
H7    H     H_    0.320626 0.589654 0.384305 0.107685
H8    H     H_    0.384274 0.589662 0.320634 0.107683
H9    H     H_    0.250850 0.384270 0.187146 0.111401
H10   H     H_    0.013085 0.457228 0.180557 0.095088
H11   H     H_    0.047378 0.571452 0.288524 0.094353
H12   H     H_    0.114380 0.936280 0.688058 0.114679
H13   H     H_    0.951629 0.586949 0.314075 0.088553
H14   H     H_    0.786039 0.372268 0.122552 0.103712
H15   H     H_    0.882552 0.358212 0.097585 0.099371
H16   H     H_    0.319325 0.936506 0.727729 0.114845
H17   H     H_    0.746786 0.477178 0.131470 0.129968
H18   H     H_    0.752724 0.522384 0.368447 0.129590
H19   H     H_    0.711122 0.625534 0.377219 0.103487
H20   H     H_    0.613089 0.637643 0.400414 0.099106
H21   H     H_    0.482897 0.537827 0.315628 0.096430
H22   H     H_    0.450783 0.424747 0.207887 0.094123
H23   H     H_    0.177939 0.063471 0.751665 0.114721
H24   H     H_    0.548013 0.411218 0.184094 0.088632
H25   H     H_    0.792677 0.619478 0.856362 0.112548
H26   H     H_    0.856288 0.619502 0.792732 0.112553
H27   H     H_    0.807231 0.421967 0.743545 0.114490
H28   H     H_    0.267613 0.936385 0.647232 0.111931
H29   H     H_    0.873955 0.517614 0.810307 0.113152
H30   H     H_    0.810343 0.517589 0.873937 0.113152
H31   H     H_    0.743619 0.421942 0.807174 0.114476
H32   H     H_    0.681903 0.458599 0.618320 0.113306
H33   H     H_    0.694269 0.387255 0.630621 0.112693
H34   H     H_    0.336197 0.063740 0.882965 0.112586
H35   H     H_    0.618292 0.458574 0.681949 0.113312
H36   H     H_    0.777194 0.595194 0.713665 0.114512
H37   H     H_    0.713583 0.595169 0.777295 0.114511
H38   H     H_    0.630659 0.387230 0.694250 0.112685
H39   H     H_    0.811465 0.936536 0.291096 0.113067
H40   H     H_    0.331172 0.063576 0.710836 0.112554
H41   H     H_    0.875095 0.063727 0.354621 0.112377
H42   H     H_    0.774639 0.063393 0.181196 0.114830
H43   H     H_    0.854475 0.063489 0.234439 0.111871
H44   H     H_    0.790847 0.936299 0.170912 0.112505
H45   H     H_    0.333972 0.620345 0.270394 0.111227
H46   H     H_    0.711011 0.936202 0.117668 0.114675
H47   H     H_    0.695680 0.063666 0.309486 0.112669
H48   H     H_    0.681241 0.063493 0.225332 0.113301
H49   H     H_    0.632054 0.936476 0.245963 0.112104
H50   H     H_    0.809701 0.063804 0.385531 0.114665
H51   H     H_    0.746069 0.936613 0.322003 0.114691
H52   H     H_    0.382884 0.063698 0.791333 0.114664
H53   H     H_    0.617612 0.936302 0.161809 0.112689
H54   H     H_    0.315623 0.537734 0.482943 0.096436
H55   H     H_    0.207896 0.424677 0.450803 0.094131
H56   H     H_    0.270339 0.620334 0.334045 0.111217
H57   H     H_    0.184100 0.411180 0.548022 0.088627
H58   H     H_    0.377195 0.625482 0.711172 0.103538
H59   H     H_    0.400393 0.637559 0.613150 0.099108
H60   H     H_    0.368436 0.522345 0.752748 0.129585
H61   H     H_    0.131452 0.477211 0.746791 0.129959
H62   H     H_    0.122554 0.372318 0.786031 0.103657
H63   H     H_    0.097595 0.358303 0.882541 0.099365
H64   H     H_    0.188237 0.936453 0.803023 0.112706
H65   H     H_    0.180558 0.457337 0.013088 0.095100
H66   H     H_    0.288504 0.571537 0.047393 0.094343
H67   H     H_    0.115356 0.427934 0.178885 0.107996
H68   H     H_    0.314045 0.586992 0.951647 0.088558
H69   H     H_    0.272642 0.936550 0.819361 0.113249
H70   H     H_    0.251792 0.063643 0.866625 0.112162
H71   H     H_    0.149589 0.525228 0.213195 0.105769
H72   H     H_    0.213123 0.525244 0.149645 0.105768
O1    O     O_3   0.000000 0.500000 0.500000 -0.434998
O2    O     O_R   0.573110 0.542970 0.909170 -0.539247
O3    O     O_R   0.590800 0.663980 0.133850 -0.538228
O4    O     O_R   0.909130 0.543010 0.573110 -0.539234
O5    O     O_R   0.469890 0.336020 0.926900 -0.539591
O6    O     O_R   0.573080 0.663970 0.030140 -0.539520
O7    O     O_R   0.366170 0.336040 0.909160 -0.538145
O8    O     O_R   0.366140 0.457030 0.030130 -0.533357
O9    O     O_R   0.590860 0.456990 0.926900 -0.539208
O10   O     O_R   0.615780 0.542990 0.158810 -0.528595
O11   O     O_R   0.427160 0.542990 0.884210 -0.550803
O12   O     O_R   0.158790 0.542980 0.615810 -0.528563
O13   O     O_R   0.133840 0.542970 0.469880 -0.533235
O14   O     O_R   0.072820 0.457010 0.615810 -0.551087
O15   O     O_R   0.884200 0.457010 0.341200 -0.528666
O16   O     O_R   0.926910 0.336030 0.469870 -0.539597
O17   O     O_R   0.030090 0.663980 0.573120 -0.539528
O18   O     O_R   0.909180 0.336020 0.366160 -0.538155
O19   O     O_R   0.133810 0.663960 0.590860 -0.538197
O20   O     O_R   0.884180 0.543000 0.427180 -0.550819
O21   O     O_R   0.926880 0.457030 0.590850 -0.539197
O22   O     O_R   0.030150 0.456990 0.366160 -0.533377
O23   O     O_3   0.499990 0.500000 0.000010 -0.435000
O24   O     O_R   0.615810 0.457000 0.072830 -0.551067
O25   O     O_R   0.341200 0.457020 0.884200 -0.528675
O26   O     O_R   0.469840 0.543010 0.133850 -0.533229
Zn1   Zn    Zn3+2 0.104790 0.561410 0.543380 0.941892
Zn2   Zn    Zn3+2 0.981970 0.438590 0.543380 0.929730
Zn3   Zn    Zn3+2 0.956640 0.438570 0.395200 0.941808
Zn4   Zn    Zn3+2 0.956600 0.561430 0.518040 0.929832
Zn5   Zn    Zn3+2 0.395190 0.438590 0.956630 0.941789
Zn6   Zn    Zn3+2 0.543350 0.561430 0.104810 0.941886
Zn7   Zn    Zn3+2 0.518020 0.561410 0.956640 0.929863
Zn8   Zn    Zn3+2 0.543380 0.438570 0.981970 0.929736

loop_
_geom_bond_atom_site_label_1
_geom_bond_atom_site_label_2
_ccdc_geom_bond_type
C44   C49   S    
C25   C31   A    
C66   C68   T    
C29   H18   S    
C77   C92   S    
C3    H56   S    
C8    C13   S    
C96   O7    A    
C55   C59   S    
C27   C29   A    
C70   H57   S    
C85   H65   S    
C41   C42   S    
C35   C36   A    
C23   C76   S    
C43   C94   S    
C81   C82   A    
O1    Zn1   S    
C54   C60   S    
C85   C86   A    
C83   H62   S    
C26   C27   A    
O15   Zn3   S    
C39   H26   S    
C57   H46   S    
C83   C84   A    
C18   C24   A    
C5    H67   S    
C48   H38   S    
C36   C37   A    
C62   H53   S    
C28   O15   A    
O23   Zn5   S    
C25   H17   S    
C28   O20   A    
C59   C66   S    
C30   C31   A    
C16   O14   A    
C54   H41   S    
C40   O18   A    
C39   H36   S    
C27   C38   S    
C91   O10   A    
C34   H1    S    
C55   H43   S    
C18   C19   A    
C73   C74   A    
C23   C67   S    
C49   H32   S    
C1    C53   S    
C18   H11   S    
O2    Zn7   S    
C93   O26   A    
C75   H60   S    
C7    C14   T    
O26   Zn6   S    
C19   C20   A    
C45   C56   S    
C79   C90   S    
C62   H49   S    
C12   C78   T    
C11   H9    S    
C63   H48   S    
C23   C89   S    
C48   H35   S    
C64   H12   S    
C67   H64   S    
C86   H66   S    
O23   Zn8   S    
C32   C38   A    
C4    O13   A    
O1    Zn2   S    
C29   C30   A    
C36   H22   S    
C9    C10   S    
C76   C88   S    
C54   H50   S    
C71   C82   S    
C67   H69   S    
C19   H13   S    
C87   H68   S    
C60   H51   S    
C21   C22   A    
C69   C70   A    
C84   H63   S    
C21   H14   S    
C47   C50   S    
C54   C59   S    
C77   C79   A    
C7    C93   S    
C6    H72   S    
O18   Zn3   S    
C72   H58   S    
C96   O5    A    
C76   H28   S    
O11   Zn7   S    
C45   C88   S    
O23   Zn6   S    
C88   H40   S    
C3    C8    S    
C10   C14   S    
C9    H45   S    
C86   C87   A    
C72   C73   A    
C25   C26   A    
O25   Zn5   S    
C49   H33   S    
O6    Zn7   S    
C57   H44   S    
C60   C61   S    
C51   C53   T    
C94   O9    A    
C69   H55   S    
C13   H3    S    
C2    C89   T    
C58   C95   S    
C37   C38   A    
C3    C9    S    
C92   O11   A    
C4    O22   A    
C58   C65   T    
C47   C48   S    
O20   Zn4   S    
C76   H16   S    
C73   H59   S    
C62   C63   S    
C34   C64   S    
C88   H52   S    
C69   C74   A    
C46   H25   S    
C34   C45   S    
C84   C85   A    
O4    Zn4   S    
C75   C77   A    
C60   H39   S    
O7    Zn5   S    
C45   C78   S    
O12   Zn1   S    
C2    C52   S    
C42   H31   S    
C39   C46   S    
C4    C17   S    
C44   C51   S    
C48   C49   S    
C52   O19   A    
C92   O25   A    
C8    C15   S    
C55   C57   S    
O17   Zn4   S    
C41   C44   S    
C22   C24   A    
C35   H21   S    
O3    Zn6   S    
C24   H10   S    
C52   O17   A    
O8    Zn5   S    
C13   H5    S    
C43   C50   T    
C6    H2    S    
C70   C71   A    
O1    Zn3   S    
C3    H7    S    
C34   H23   S    
C15   C17   T    
C83   C90   A    
O10   Zn6   S    
C46   C47   S    
C23   C64   S    
C33   H20   S    
O24   Zn8   S    
C93   O8    A    
O19   Zn1   S    
O5    Zn8   S    
C12   C96   S    
C80   C81   A    
C6    C10   S    
C5    C8    S    
C75   C82   A    
C57   C61   S    
C39   C44   S    
C56   C67   S    
C91   O24   A    
C1    O4    A    
C59   C63   S    
C32   C33   A    
C41   H27   S    
C28   C30   S    
C26   C91   S    
C71   C72   A    
O16   Zn2   S    
C94   O2    A    
C46   H37   S    
C11   C13   S    
O21   Zn2   S    
C80   H61   S    
C5    C6    S    
C37   H24   S    
C9    H8    S    
C95   O6    A    
C16   C81   S    
C33   C35   A    
C41   H29   S    
C11   H6    S    
C42   C47   S    
C5    H71   S    
C32   H19   S    
C61   C62   S    
O13   Zn1   S    
C10   C11   S    
C42   H30   S    
C55   H42   S    
C79   C80   A    
C61   C65   S    
C64   H4    S    
O14   Zn2   S    
C20   C21   A    
C22   H15   S    
C40   C68   S    
C87   C90   A    
C56   H70   S    
C63   H47   S    
O9    Zn8   S    
C74   H54   S    
O23   Zn7   S    
C95   O3    A    
C56   H34   S    
C16   O12   A    
O22   Zn3   S    
O1    Zn4   S    
C40   O16   A    
C20   C31   S    
C1    O21   A    
