data_mof_unit_30961.cif
_audit_creation_date              2012-10-26T20:06:13-0400
_audit_creation_method            fapswitch 2.2
_symmetry_space_group_name_H-M    P1
_symmetry_Int_Tables_number       1
_space_group_crystal_system       triclinic
_cell_length_a                    9.514096
_cell_length_b                    10.836241
_cell_length_c                    13.40711
_cell_angle_alpha                 89.750592
_cell_angle_beta                  73.037864
_cell_angle_gamma                 89.640351
_cell_volume                      1322.07243303

loop_
_atom_site_label
_atom_site_type_symbol
_atom_type_description
_atom_site_fract_x
_atom_site_fract_y
_atom_site_fract_z
_atom_type_partial_charge
C1    C     C_R   0.500407 0.738006 0.497193 0.578293
C2    C     C_R   0.382220 0.444364 0.809808 0.016479
C3    C     C_R   0.609150 0.934989 0.524505 -0.154934
C4    C     C_R   0.423555 0.481675 0.698478 0.565717
C5    C     C_R   0.610681 0.062589 0.525136 -0.119644
C6    C     C_R   0.502098 0.128790 0.496346 -0.018884
C7    C     C_R   0.394613 0.067100 0.463866 -0.091508
C8    C     C_R   0.393380 0.939382 0.461157 0.227500
C9    C     C_R   0.500158 0.872178 0.493795 0.027675
C10   C     C_R   0.897162 0.572473 0.567982 0.058360
C11   C     C_R   0.045959 0.572275 0.568105 0.051650
C12   C     C_R   0.443118 0.435786 0.975053 0.012920
C13   C     C_R   0.102836 0.427564 0.431982 0.044997
C14   C     C_R   0.953950 0.427549 0.432052 0.076942
C15   C     C_R   0.500709 0.262241 0.499117 0.557387
C16   C     C_R   0.578358 0.502899 0.299550 0.572101
C17   C     C_R   0.805396 0.507904 0.015429 -0.098111
C18   C     C_R   0.623257 0.500786 0.184697 0.019655
C19   C     C_R   0.233023 0.431305 0.864519 -0.132429
C20   C     C_R   0.190031 0.412623 0.971793 -0.104177
C21   C     C_R   0.291927 0.421423 0.027517 -0.075982
C22   C     C_R   0.488938 0.427737 0.864649 0.040877
C23   C     C_R   0.550925 0.458282 0.027386 0.013951
C24   C     C_R   0.700134 0.469790 0.968259 -0.027798
C25   C     C_R   0.744044 0.435917 0.863703 -0.102646
C26   C     C_R   0.639686 0.404011 0.814754 0.241622
C27   C     C_R   0.515521 0.472807 0.135781 -0.143829
C28   C     C_R   0.768563 0.524002 0.123013 0.227800
Cl1   Cl    Cl    0.907981 0.575859 0.174988 -0.598110
Cl2   Cl    Cl    0.259411 0.870833 0.411927 -0.561155
Cl3   Cl    Cl    0.698835 0.301015 0.709023 -0.613433
Cu1   Cu    Cu3+1 0.359340 0.499980 0.500000 1.006519
Cu2   Cu    Cu3+1 0.640660 0.500020 0.500000 1.050120
H1    H     H_    0.695348 0.109174 0.549607 0.197802
H2    H     H_    0.149367 0.435326 0.824438 0.125858
H3    H     H_    0.248812 0.414385 0.111032 0.132220
H4    H     H_    0.076175 0.395888 0.013120 0.154622
H5    H     H_    0.692495 0.885554 0.549356 0.155450
H6    H     H_    0.312473 0.118239 0.438931 0.161432
H7    H     H_    0.818299 0.630492 0.622492 0.111838
H8    H     H_    0.079293 0.630236 0.622673 0.122892
H9    H     H_    0.181649 0.369407 0.377579 0.105457
H10   H     H_    0.920527 0.369439 0.377662 0.129394
H11   H     H_    0.859811 0.425950 0.822126 0.129606
H12   H     H_    0.916611 0.525668 0.967949 0.128903
H13   H     H_    0.404427 0.461142 0.184156 0.134843
N1    N     N_R   0.147940 0.499970 0.499970 -0.222833
N2    N     N_R   0.852060 0.500060 0.499990 -0.203262
O1    O     O_R   0.381250 0.680340 0.500010 -0.443777
O2    O     O_R   0.618820 0.680370 0.500010 -0.511134
O3    O     O_R   0.323240 0.499950 0.650980 -0.523340
O4    O     O_R   0.560810 0.499980 0.650980 -0.471691
O5    O     O_R   0.381180 0.319630 0.499990 -0.522447
O6    O     O_R   0.618750 0.319660 0.499990 -0.475369
O7    O     O_R   0.439190 0.500020 0.349020 -0.512962
O8    O     O_R   0.676760 0.500050 0.349020 -0.451425

loop_
_geom_bond_atom_site_label_1
_geom_bond_atom_site_label_2
_ccdc_geom_bond_type
C2    C22   A    
C2    C4    S    
C23   C24   A    
C16   O8    A    
Cu1   O3    S    
C6    C7    A    
C3    C9    A    
C23   C27   A    
C1    O2    A    
Cu1   O7    S    
C11   N1    A    
C19   C20   A    
C8    Cl2   S    
Cu1   Cu2   S    
Cu2   O8    S    
C6    C15   S    
C16   O7    A    
C1    C9    S    
C26   Cl3   S    
C21   H3    S    
C19   H2    S    
C13   C14   A    
C5    H1    S    
Cu2   O4    S    
C20   H4    S    
C12   C23   A    
C4    O4    A    
C15   O5    A    
C25   H11   S    
C24   C25   A    
C28   Cl1   S    
C25   C26   A    
C17   H12   S    
C11   H8    S    
C10   N2    A    
C5    C6    A    
Cu1   N1    S    
Cu1   O1    S    
C17   C24   A    
C10   C11   A    
C4    O3    A    
C15   O6    A    
C12   C22   A    
Cu1   O5    S    
C7    C8    A    
C18   C28   A    
C20   C21   A    
C27   H13   S    
C8    C9    A    
C16   C18   S    
C22   C26   A    
Cu2   O6    S    
C13   N1    A    
Cu2   N2    S    
C7    H6    S    
C13   H9    S    
C10   H7    S    
C14   N2    A    
Cu2   O2    S    
C2    C19   A    
C17   C28   A    
C1    O1    A    
C12   C21   A    
C18   C27   A    
C3    H5    S    
C14   H10   S    
C3    C5    A    
