data_mof_unit_44597.cif
_audit_creation_date              2012-12-10T18:53:56-0500
_audit_creation_method            fapswitch 2.2
_symmetry_space_group_name_H-M    P1
_symmetry_Int_Tables_number       1
_space_group_crystal_system       triclinic
_cell_length_a                    19.485482
_cell_length_b                    18.15902
_cell_length_c                    10.82476
_cell_angle_alpha                 89.773685
_cell_angle_beta                  90.625494
_cell_angle_gamma                 90.082081
_cell_volume                      3829.94157629

loop_
_atom_site_label
_atom_site_type_symbol
_atom_type_description
_atom_site_fract_x
_atom_site_fract_y
_atom_site_fract_z
_atom_type_partial_charge
C1    C     C_R   0.367328 0.499944 0.500611 0.823533
C2    C     C_R   0.035476 0.524230 0.400832 -0.180612
C3    C     C_R   0.071930 0.484577 0.491270 0.158986
C4    C     C_R   0.928363 0.485180 0.491843 0.126380
C5    C     C_R   0.036384 0.444555 0.581299 -0.148996
C6    C     C_R   0.964908 0.444957 0.581745 -0.127164
C7    C     C_R   0.452515 0.721050 0.431071 0.060033
C8    C     C_R   0.546664 0.720973 0.570514 0.084741
C9    C     C_R   0.450743 0.798367 0.431484 -0.251046
C10   C     C_R   0.547927 0.798302 0.570792 -0.269883
C11   C     C_R   0.499319 0.838407 0.501037 0.098388
C12   C     C_R   0.632672 0.500042 0.500000 0.811349
C13   C     C_R   0.498103 0.961672 0.613593 -0.008605
C14   C     C_R   0.500235 0.962456 0.388944 -0.011703
C15   C     C_R   0.502705 0.500007 0.262222 0.811229
C16   C     C_R   0.500498 0.499720 0.737859 0.826769
C17   C     C_R   0.498804 0.039211 0.612867 -0.221931
C18   C     C_R   0.500024 0.039947 0.390246 -0.217633
C19   C     C_R   0.499543 0.079243 0.501655 0.133090
C20   C     C_R   0.499211 0.921580 0.501147 0.008538
C21   C     C_R   0.456485 0.201441 0.421046 -0.413522
C22   C     C_R   0.542708 0.201445 0.581559 -0.410502
C23   C     C_R   0.820812 0.557430 0.489280 -0.277295
C24   C     C_R   0.456485 0.279852 0.420903 0.583381
C25   C     C_R   0.543033 0.279863 0.580188 0.584762
C26   C     C_R   0.499499 0.161927 0.501642 0.051189
C27   C     C_R   0.534199 0.559278 0.062526 0.037887
C28   C     C_R   0.529275 0.559503 0.935919 -0.002618
C29   C     C_R   0.510687 0.498344 0.129450 -0.113531
C30   C     C_R   0.506608 0.498012 0.870851 -0.049826
C31   C     C_R   0.497548 0.432383 0.065140 -0.207663
C32   C     C_R   0.495756 0.432169 0.936390 -0.230077
C33   C     C_3   0.511021 0.639040 0.928725 0.242004
C34   C     C_R   0.179161 0.556786 0.502567 -0.292296
C35   C     C_3   0.520403 0.640308 0.069207 0.198339
C36   C     C_R   0.741690 0.429743 0.505109 -0.285877
C37   C     C_R   0.258361 0.429268 0.494091 -0.323046
C38   C     C_R   0.813067 0.424268 0.501318 0.443894
C39   C     C_R   0.186534 0.423391 0.492913 0.464317
C40   C     C_R   0.852997 0.488638 0.494731 -0.013591
C41   C     C_R   0.147157 0.487958 0.494849 0.004442
C42   C     C_1   0.493780 0.924905 0.731788 0.215697
C43   C     C_1   0.503233 0.926781 0.270160 0.204405
C44   C     C_3   0.367750 0.283681 0.269448 0.002467
C45   C     C_R   0.749442 0.563220 0.491203 -0.009434
C46   C     C_3   0.324775 0.337835 0.194002 -0.760193
C47   C     C_3   0.625583 0.284265 0.742426 0.014399
C48   C     C_3   0.666052 0.339118 0.820306 -0.759409
C49   C     C_3   0.429049 0.723507 0.869431 0.083539
C50   C     C_3   0.352423 0.735041 0.850557 -0.734293
C51   C     C_3   0.573388 0.718573 0.210423 0.080815
C52   C     C_3   0.633497 0.771248 0.226453 -0.705636
C53   C     C_3   0.849690 0.327617 0.387734 0.062459
C54   C     C_3   0.890015 0.256027 0.393155 -0.763066
C55   C     C_3   0.174911 0.304858 0.567267 0.044323
C56   C     C_R   0.250503 0.562728 0.506571 -0.008931
C57   C     C_3   0.121170 0.244307 0.576419 -0.777369
C58   C     C_1   0.720921 0.636428 0.485098 0.264535
C59   C     C_1   0.278992 0.635877 0.516985 0.260102
C60   C     C_R   0.708693 0.498661 0.499043 -0.148743
C61   C     C_R   0.291281 0.498300 0.500973 -0.136771
C62   C     C_R   0.964085 0.524360 0.400889 -0.208850
Cu1   Cu    Cu3+1 0.500000 0.573360 0.500000 0.954164
Cu2   Cu    Cu3+1 0.500000 0.426640 0.500000 1.016999
H1    H     H_    0.484735 0.382001 0.113563 0.185238
H2    H     H_    0.576375 0.170209 0.641880 0.137162
H3    H     H_    0.549324 0.671146 0.874536 0.100108
H4    H     H_    0.472746 0.654227 0.120617 0.090339
H5    H     H_    0.712271 0.379252 0.511961 0.193737
H6    H     H_    0.288511 0.379547 0.486777 0.178070
H7    H     H_    0.851777 0.607064 0.484600 0.157334
H8    H     H_    0.147999 0.606196 0.506516 0.157207
H9    H     H_    0.936643 0.555296 0.330326 0.140423
H10   H     H_    0.062381 0.555272 0.330680 0.139400
H11   H     H_    0.063980 0.414730 0.652975 0.134141
H12   H     H_    0.482251 0.381641 0.889068 0.170659
H13   H     H_    0.938211 0.415441 0.653907 0.159785
H14   H     H_    0.332271 0.250928 0.328085 0.146986
H15   H     H_    0.395228 0.247687 0.203354 0.142718
H16   H     H_    0.358194 0.371192 0.133038 0.240634
H17   H     H_    0.287152 0.307303 0.135824 0.202005
H18   H     H_    0.296474 0.375308 0.255974 0.255409
H19   H     H_    0.663112 0.247989 0.695518 0.152403
H20   H     H_    0.592155 0.251884 0.805384 0.140330
H21   H     H_    0.630488 0.376651 0.868771 0.250415
H22   H     H_    0.697729 0.309256 0.890075 0.198619
H23   H     H_    0.415934 0.690901 0.374933 0.134551
H24   H     H_    0.700387 0.372294 0.760604 0.250837
H25   H     H_    0.455741 0.741327 0.784017 0.173050
H26   H     H_    0.446247 0.758386 0.948508 0.159925
H27   H     H_    0.324732 0.720561 0.936459 0.233505
H28   H     H_    0.342110 0.793601 0.827053 0.210379
H29   H     H_    0.333280 0.699692 0.774204 0.266369
H30   H     H_    0.573475 0.679647 0.289672 0.196624
H31   H     H_    0.525487 0.751854 0.209295 0.149323
H32   H     H_    0.634477 0.811189 0.148530 0.250547
H33   H     H_    0.628216 0.802012 0.314306 0.214612
H34   H     H_    0.583316 0.690748 0.626609 0.134349
H35   H     H_    0.682505 0.740111 0.228628 0.250417
H36   H     H_    0.877765 0.366682 0.326561 0.147673
H37   H     H_    0.798055 0.316028 0.347057 0.140673
H38   H     H_    0.863022 0.215252 0.452039 0.246219
H39   H     H_    0.895064 0.233154 0.298707 0.197191
H40   H     H_    0.942097 0.266256 0.432304 0.255947
H41   H     H_    0.180490 0.330656 0.660268 0.130281
H42   H     H_    0.224306 0.279091 0.540795 0.148163
H43   H     H_    0.137259 0.203211 0.647199 0.198790
H44   H     H_    0.071039 0.268145 0.603212 0.245417
H45   H     H_    0.411722 0.826636 0.377523 0.147869
H46   H     H_    0.115160 0.216217 0.485971 0.252248
H47   H     H_    0.586694 0.826548 0.625181 0.151095
H48   H     H_    0.497277 0.068610 0.699793 0.140101
H49   H     H_    0.501506 0.069921 0.303466 0.141070
H50   H     H_    0.423016 0.170135 0.360759 0.136862
N1    N     N_R   0.500000 0.683620 0.500000 -0.188181
N2    N     N_R   0.500000 0.316380 0.500000 -0.233207
N3    N     N_1   0.490391 0.895754 0.826778 -0.304163
N4    N     N_1   0.505420 0.898783 0.174444 -0.294901
N5    N     N_1   0.698946 0.695517 0.480287 -0.326338
N6    N     N_1   0.300977 0.694881 0.525486 -0.311932
O1    O     O_R   0.400190 0.561980 0.499980 -0.579261
O2    O     O_3   0.585748 0.323282 0.654578 -0.547210
O3    O     O_3   0.441687 0.648248 0.892545 -0.583222
O4    O     O_3   0.581171 0.679403 0.099587 -0.593872
O5    O     O_3   0.843593 0.355733 0.508445 -0.593275
O6    O     O_3   0.153740 0.356179 0.476093 -0.579300
O7    O     O_R   0.599810 0.561980 0.500020 -0.596710
O8    O     O_R   0.400190 0.438070 0.500040 -0.548478
O9    O     O_R   0.599810 0.438070 0.499960 -0.545243
O10   O     O_R   0.500000 0.561960 0.319660 -0.619192
O11   O     O_R   0.500000 0.561960 0.680340 -0.571461
O12   O     O_R   0.500000 0.438060 0.319720 -0.541838
O13   O     O_R   0.500000 0.438060 0.680280 -0.557543
O14   O     O_3   0.415041 0.323160 0.343485 -0.548926

loop_
_geom_bond_atom_site_label_1
_geom_bond_atom_site_label_2
_ccdc_geom_bond_type
C38   C40   A    
C21   C26   A    
C45   C60   A    
C34   C56   A    
C59   N6    T    
Cu2   N2    S    
C27   C29   A    
C14   C18   A    
C1    O8    A    
C49   H26   S    
C39   C41   A    
C12   O7    A    
C53   C54   S    
C55   H41   S    
C23   C45   A    
C54   H40   S    
C35   O4    S    
C5    C6    A    
C8    C10   A    
C16   C30   S    
C23   C40   A    
C49   O3    S    
C4    C62   A    
C52   H33   S    
C31   H1    S    
C18   C19   A    
Cu1   O10   S    
C7    N1    A    
C16   O11   A    
C19   C26   S    
C8    H34   S    
C22   H2    S    
C8    N1    A    
C17   C19   A    
C46   H18   S    
C7    H23   S    
C15   O12   A    
Cu2   O12   S    
C53   H37   S    
Cu2   O8    S    
C22   C25   A    
C48   H24   S    
C62   H9    S    
C47   H19   S    
C25   O2    S    
C2    H10   S    
Cu1   N1    S    
C39   O6    S    
C37   H6    S    
C9    H45   S    
C51   O4    S    
C34   C41   A    
C16   O13   A    
C18   H49   S    
C13   C42   S    
Cu1   O1    S    
C44   C46   S    
C15   C29   S    
C53   H36   S    
C44   O14   S    
C11   C20   S    
C45   C58   S    
C12   O9    A    
C55   H42   S    
C51   C52   S    
C47   C48   S    
C14   C20   A    
C54   H39   S    
C48   H21   S    
C4    C6    A    
C25   N2    A    
C6    H13   S    
C47   O2    S    
C43   N4    T    
C36   C60   A    
C5    H11   S    
C44   H14   S    
C4    C40   S    
C23   H7    S    
C46   H17   S    
C31   C32   A    
C55   O6    S    
C10   H47   S    
C42   N3    T    
C47   H20   S    
C9    C11   A    
C53   O5    S    
C50   H28   S    
C57   H43   S    
C28   C33   S    
C24   N2    A    
Cu1   O11   S    
C55   C57   S    
C48   H22   S    
C17   H48   S    
C34   H8    S    
C38   O5    S    
C36   H5    S    
C33   H3    S    
C24   O14   S    
C7    C9    A    
Cu2   O13   S    
C3    C41   S    
C13   C20   A    
C56   C61   A    
C54   H38   S    
C44   H15   S    
C49   H25   S    
C21   H50   S    
C3    C5    A    
C1    C61   S    
C32   H12   S    
C37   C61   A    
C50   H29   S    
C52   H35   S    
C56   C59   S    
C13   C17   A    
C27   C35   S    
C36   C38   A    
C2    C3    A    
C29   C31   A    
C30   C32   A    
C15   O10   A    
C35   H4    S    
C28   C30   A    
C58   N5    T    
C33   C35   S    
C52   H32   S    
C1    O1    A    
C10   C11   A    
C51   H30   S    
Cu1   Cu2   S    
C12   C60   S    
C50   H27   S    
C57   H44   S    
Cu2   O9    S    
C37   C39   A    
C49   C50   S    
C22   C26   A    
C21   C24   A    
C27   C28   A    
C33   O3    S    
C57   H46   S    
C46   H16   S    
Cu1   O7    S    
C2    C62   A    
C51   H31   S    
C14   C43   S    
