data_mof_unit_33341.cif
_audit_creation_date              2012-12-10T20:28:47-0500
_audit_creation_method            fapswitch 2.2
_symmetry_space_group_name_H-M    P1
_symmetry_Int_Tables_number       1
_space_group_crystal_system       triclinic
_cell_length_a                    10.632316
_cell_length_b                    10.664103
_cell_length_c                    9.86669
_cell_angle_alpha                 89.9502
_cell_angle_beta                  89.896086
_cell_angle_gamma                 89.877778
_cell_volume                      1118.72108935

loop_
_atom_site_label
_atom_site_type_symbol
_atom_type_description
_atom_site_fract_x
_atom_site_fract_y
_atom_site_fract_z
_atom_type_partial_charge
C1    C     C_R   0.504526 0.259896 0.500043 0.879472
C2    C     C_R   0.065418 0.611770 0.565749 0.097197
C3    C     C_R   0.128193 0.512234 0.499903 -0.102433
C4    C     C_R   0.064549 0.418485 0.430435 -0.221082
C5    C     C_R   0.936082 0.418539 0.430213 -0.206500
C6    C     C_R   0.871661 0.512423 0.499317 -0.095606
C7    C     C_R   0.533251 0.063783 0.622527 0.141904
C8    C     C_R   0.526902 0.128589 0.500168 -0.106129
C9    C     C_R   0.546917 0.064776 0.377696 -0.232892
C10   C     C_R   0.547199 0.935138 0.377705 -0.220769
C11   C     C_R   0.527440 0.871198 0.500175 -0.100672
C12   C     C_R   0.260470 0.503608 0.500116 0.874119
C13   C     C_R   0.533844 0.935825 0.622596 0.115594
C14   C     C_3   0.451834 0.928639 0.745646 -0.479799
C15   C     C_3   0.450684 0.070784 0.745111 -0.487228
C16   C     C_R   0.438361 0.408245 0.071426 0.212845
C17   C     C_R   0.569935 0.583821 0.071738 -0.126317
C18   C     C_R   0.569955 0.583832 0.927745 -0.127966
C19   C     C_R   0.438288 0.408314 0.928901 0.212912
C20   C     C_3   0.300925 0.380954 0.923645 -0.502952
C21   C     C_3   0.301088 0.380622 0.077545 -0.509726
C22   C     C_R   0.504694 0.740067 0.499953 0.852908
C23   C     C_R   0.739495 0.503575 0.499864 0.863080
C24   C     C_R   0.130164 0.712221 0.627821 -0.192248
C25   C     C_R   0.064121 0.809864 0.689631 -0.140320
C26   C     C_R   0.933251 0.809994 0.689268 -0.135448
C27   C     C_R   0.867995 0.712500 0.627134 -0.189373
C28   C     C_R   0.933578 0.611904 0.565396 0.097763
H1    H     H_    0.114686 0.343705 0.378841 0.149676
H2    H     H_    0.502199 0.888026 0.834098 0.199691
H3    H     H_    0.356496 0.111314 0.722786 0.197577
H4    H     H_    0.499921 0.112456 0.833532 0.202832
H5    H     H_    0.624442 0.653070 0.125883 0.144043
H6    H     H_    0.245365 0.459412 0.879518 0.227935
H7    H     H_    0.281288 0.287309 0.879310 0.195342
H8    H     H_    0.245419 0.458745 0.122230 0.227877
H9    H     H_    0.281946 0.286713 0.121901 0.197204
H10   H     H_    0.231613 0.717414 0.627252 0.144813
H11   H     H_    0.114585 0.886334 0.736670 0.131053
H12   H     H_    0.882085 0.886507 0.735996 0.134181
H13   H     H_    0.766499 0.718066 0.626245 0.142355
H14   H     H_    0.886545 0.343687 0.378644 0.152492
H15   H     H_    0.552980 0.886288 0.281655 0.167478
H16   H     H_    0.358247 0.887003 0.724567 0.198539
N1    N     N_R   0.499160 0.499140 0.142800 -0.106423
N2    N     N_R   0.499160 0.499180 0.857150 -0.105529
O1    O     O_R   0.500020 0.316790 0.614690 -0.612062
O2    O     O_R   0.500000 0.316760 0.385350 -0.624257
O3    O     O_R   0.316770 0.500020 0.614690 -0.623396
O4    O     O_R   0.316760 0.499980 0.385350 -0.613471
O5    O     O_R   0.500000 0.683240 0.614650 -0.632641
O6    O     O_R   0.499980 0.683210 0.385310 -0.621859
O7    O     O_R   0.683240 0.500020 0.614650 -0.619826
O8    O     O_R   0.683230 0.499980 0.385310 -0.616425
Zn1   Zn    Zn3+2 0.500010 0.500020 0.653130 0.936925
Zn2   Zn    Zn3+2 0.499990 0.499980 0.346870 0.941747
H17   H     H_    0.624505 0.653053 0.873229 0.143230
H18   H     H_    0.552562 0.113743 0.281629 0.170568

loop_
_geom_bond_atom_site_label_1
_geom_bond_atom_site_label_2
_ccdc_geom_bond_type
C16   N1    A    
N2    Zn1   S    
C4    H1    S    
C24   H10   S    
C5    H14   S    
C1    O2    A    
C15   H3    S    
C16   C21   S    
C1    C8    S    
O4    Zn2   S    
C9    C10   A    
C27   H13   S    
C11   C22   S    
C12   O4    A    
C19   C20   S    
C20   H6    S    
C7    C15   S    
C2    C3    A    
C10   H15   S    
C19   N2    A    
C7    C8    A    
C21   H8    S    
C13   C14   S    
C25   H11   S    
C4    C5    A    
C11   C13   A    
C26   H12   S    
C26   C27   A    
C17   H5    S    
C14   H2    S    
C16   C19   A    
C6    C23   S    
C18   N2    A    
C23   O7    A    
C14   H16   S    
C17   N1    A    
C17   C18   A    
O5    Zn1   S    
O7    Zn1   S    
C2    C24   A    
C5    C6    A    
O8    Zn2   S    
C24   C25   A    
C12   O3    A    
C10   C11   A    
C3    C4    A    
C7    C13   A    
C21   H9    S    
C20   C21   S    
C23   O8    A    
C22   O6    A    
C9    H18   S    
C27   C28   A    
O2    Zn2   S    
O1    Zn1   S    
C14   C15   S    
C22   O5    A    
C2    C28   A    
C3    C12   S    
C18   H17   S    
C25   C26   A    
O3    Zn1   S    
C20   H7    S    
C6    C28   A    
O6    Zn2   S    
N1    Zn2   S    
C1    O1    A    
C8    C9    A    
C15   H4    S    
