data_mof_unit_44143.cif
_audit_creation_date              2013-03-05T16:32:34-0500
_audit_creation_method            fapswitch 2.2
_symmetry_space_group_name_H-M    P1
_symmetry_Int_Tables_number       1
_space_group_crystal_system       triclinic
_cell_length_a                    15.855736
_cell_length_b                    10.817709
_cell_length_c                    9.61777
_cell_angle_alpha                 89.7595
_cell_angle_beta                  89.787833
_cell_angle_gamma                 91.693546
_cell_volume                      1648.91904976

loop_
_atom_site_label
_atom_site_type_symbol
_atom_site_description
_atom_site_fract_x
_atom_site_fract_y
_atom_site_fract_z
_atom_type_partial_charge
O1    O     O_R   0.500000 0.319640 0.618810 -0.611757
O2    O     O_R   0.500010 0.319680 0.381230 -0.564312
C1    C     C_R   0.499242 0.262514 0.500225 0.819095
O3    O     O_R   0.379070 0.499970 0.618770 -0.569858
O4    O     O_R   0.379080 0.500010 0.381190 -0.550689
C2    C     C_R   0.340071 0.500068 0.500237 0.843791
Cu1   Cu    Cu3+1 0.500000 0.499980 0.640670 0.990378
Cu2   Cu    Cu3+1 0.500000 0.500020 0.359330 0.995675
O5    O     O_R   0.499990 0.680320 0.618770 -0.575236
O6    O     O_R   0.500000 0.680360 0.381190 -0.587086
O7    O     O_R   0.620920 0.499990 0.618810 -0.549543
O8    O     O_R   0.620930 0.500030 0.381230 -0.575483
C3    C     C_R   0.501810 0.737227 0.499865 0.788098
C4    C     C_R   0.659964 0.500413 0.499822 0.826890
C5    C     C_3   0.970807 0.391824 0.543693 -0.000175
C6    C     C_3   0.027492 0.412734 0.414333 -0.243856
H1    H     H_    0.050552 0.339616 0.344259 0.183311
C7    C     C_1   0.250468 0.500596 0.500812 -0.039494
C8    C     C_1   0.749639 0.500808 0.499543 -0.096434
C9    C     C_3   0.027775 0.479933 0.630524 -0.174458
C10   C     C_3   0.083353 0.502394 0.500610 0.105838
C11   C     C_3   0.972912 0.590334 0.586324 -0.236060
C12   C     C_3   0.916894 0.500707 0.500119 0.097733
C13   C     C_3   0.029687 0.611522 0.456986 -0.016499
C14   C     C_3   0.972807 0.523107 0.370940 0.122038
C15   C     C_1   0.174970 0.501326 0.501017 0.095537
C16   C     C_1   0.825185 0.500959 0.499781 0.075197
H2    H     H_    0.949787 0.663478 0.656302 0.187388
H3    H     H_    0.051147 0.461546 0.737099 0.189245
C17   C     C_R   0.473702 0.060695 0.615989 0.055580
C18   C     C_R   0.502365 0.129085 0.500779 -0.039827
C19   C     C_R   0.540496 0.067104 0.389847 -0.160926
H4    H     H_    0.567128 0.117918 0.302020 0.167768
C20   C     C_R   0.542494 0.938110 0.390115 -0.177593
H5    H     H_    0.570326 0.891684 0.302574 0.155436
C21   C     C_R   0.506567 0.870488 0.501458 -0.082619
C22   C     C_R   0.476935 0.933729 0.616991 0.002653
C23   C     C_3   0.396588 0.917575 0.698182 -0.240076
C24   C     C_3   0.391108 0.058612 0.693437 -0.114199
H6    H     H_    0.408132 0.882038 0.804977 0.170881
H7    H     H_    0.398447 0.099068 0.798815 0.147424
C25   C     C_R   0.561563 0.562856 0.072558 0.198962
N1    N     N_R   0.500530 0.500930 0.147930 -0.218135
C26   C     C_R   0.443217 0.428227 0.074697 0.241327
C27   C     C_R   0.440771 0.433371 0.926490 -0.021675
N2    N     N_R   0.500530 0.500890 0.852020 -0.253541
C28   C     C_R   0.562363 0.561543 0.925825 0.234050
C29   C     C_3   0.582976 0.697074 0.919461 -0.037281
C30   C     C_3   0.581462 0.698073 0.077348 -0.516000
H8    H     H_    0.531660 0.751193 0.872908 0.160710
H9    H     H_    0.643750 0.718789 0.125869 0.225692
H10   H     H_    0.528363 0.751270 0.119759 0.197821
I1    I     I_    0.287994 0.134456 0.576275 -0.338222
I2    I     I_    0.359101 0.295441 0.174633 -0.241231
C31   C     C_2   0.370453 0.370297 0.853775 0.482570
H11   H     H_    0.382390 0.308589 0.769466 0.099465
O9    O     O_2   0.297426 0.391019 0.884485 -0.501766
I3    I     I_    0.705750 0.734903 0.833002 -0.311283
C32   C     C_2   0.940389 0.266845 0.593163 0.409345
H12   H     H_    0.985862 0.198027 0.620887 0.089183
O10   O     O_2   0.865069 0.241689 0.602666 -0.518597
I4    I     I_    0.928789 0.555593 0.164412 -0.307808
C33   C     C_2   0.060685 0.736678 0.408732 0.442407
H13   H     H_    0.015543 0.805898 0.380812 0.082298
O11   O     O_2   0.136104 0.761513 0.400522 -0.513599
C34   C     C_2   0.328346 0.845339 0.622522 0.496922
H14   H     H_    0.317826 0.860348 0.512312 0.110601
O12   O     O_2   0.284840 0.768169 0.684690 -0.505985

loop_
_geom_bond_atom_site_label_1
_geom_bond_atom_site_label_2
_geom_bond_distance
_ccdc_geom_bond_type
O4    Cu2   1.927993 S    
C34   O12   1.220230 D    
N1    C26   1.381161 A    
C33   O11   1.220049 D    
C29   I3    2.141627 S    
C6    C10   1.541177 S    
C33   H13   1.084683 S    
C12   C16   1.454220 S    
C8    C16   1.197803 T    
C18   C19   1.406623 A    
C28   C29   1.493610 S    
C7    C15   1.197327 T    
Cu2   N1    2.033165 S    
Cu2   O8    1.929739 S    
C30   H10   1.111048 S    
C19   H4    1.083387 S    
C31   H11   1.072293 S    
C5    C12   1.533535 S    
O2    C1    1.298421 A    
C32   H12   1.084728 S    
C24   H7    1.110780 S    
C11   H2    1.110529 S    
C27   N2    1.376216 A    
C13   C14   1.540853 S    
C1    C18   1.445699 S    
Cu1   O7    1.927990 S    
C24   I1    2.168214 S    
C22   C23   1.497200 S    
C9    H3    1.110409 S    
O3    Cu1   1.929740 S    
C29   C30   1.518712 S    
O4    C2    1.299346 A    
C29   H8    1.110807 S    
C25   C28   1.411390 A    
C23   H6    1.112884 S    
C10   C15   1.453060 S    
C9    C11   1.556802 S    
C17   C24   1.503739 S    
C34   H14   1.085906 S    
C13   C33   1.497896 S    
C20   C21   1.403803 A    
C14   I4    2.138934 S    
C31   O9    1.221298 D    
C17   C18   1.396853 A    
C2    C7    1.420887 S    
O7    C4    1.299023 A    
C11   C13   1.545129 S    
C32   O10   1.220014 D    
O3    C2    1.298952 A    
C6    H1    1.110525 S    
C25   N1    1.364972 A    
C25   C30   1.488176 S    
C5    C6    1.544104 S    
Cu1   N2    2.032829 S    
C26   I2    2.152136 S    
Cu1   Cu2   2.705861 S    
C12   C14   1.537815 S    
C23   C24   1.531235 S    
C9    C10   1.540596 S    
C27   C31   1.470567 S    
C3    C21   1.441465 S    
Cu2   O6    1.963039 S    
C20   H5    1.081555 S    
C10   C13   1.533495 S    
C6    C14   1.552829 S    
Cu1   O5    1.961330 S    
O5    C3    1.296314 A    
N2    C28   1.366242 A    
C21   C22   1.394628 A    
C30   H9    1.111128 S    
O1    Cu1   1.963039 S    
C5    C32   1.497069 S    
C4    C8    1.421731 S    
C11   C12   1.541964 S    
O2    Cu2   1.961328 S    
C26   C27   1.426984 A    
C23   C34   1.507174 S    
C17   C22   1.375942 A    
O8    C4    1.299670 A    
C5    C9    1.543758 S    
O1    C1    1.299382 A    
O6    C3    1.298892 A    
C19   C20   1.396708 A    
