data_mof_unit_14272.cif
_audit_creation_date              2012-12-10T17:04:34-0500
_audit_creation_method            fapswitch 2.2
_symmetry_space_group_name_H-M    P1
_symmetry_Int_Tables_number       1
_space_group_crystal_system       triclinic
_cell_length_a                    14.939581
_cell_length_b                    10.667967
_cell_length_c                    10.032376
_cell_angle_alpha                 91.507708
_cell_angle_beta                  89.950475
_cell_angle_gamma                 90.183786
_cell_volume                      1598.34723373

loop_
_atom_site_label
_atom_site_type_symbol
_atom_type_description
_atom_site_fract_x
_atom_site_fract_y
_atom_site_fract_z
_atom_type_partial_charge
C1    C     C_R   0.498442 0.262629 0.497886 0.875941
C2    C     C_R   0.907413 0.609727 0.577032 0.135718
C3    C     C_R   0.951443 0.345512 0.332600 0.556735
C4    C     C_R   0.044106 0.345151 0.329794 0.520575
C5    C     C_R   0.092057 0.428755 0.412754 -0.109169
C6    C     C_R   0.046980 0.516015 0.497946 -0.032817
C7    C     C_R   0.095661 0.599288 0.583468 0.153422
C8    C     C_R   0.050120 0.688927 0.664557 0.146899
C9    C     C_R   0.956838 0.692931 0.659726 -0.246347
C10   C     C_R   0.184593 0.426219 0.412432 -0.157647
C11   C     C_R   0.231678 0.504544 0.499913 -0.062945
C12   C     C_R   0.327019 0.500017 0.500012 0.843969
C13   C     C_R   0.188662 0.589487 0.585376 -0.241491
C14   C     C_2   0.446385 0.930921 0.405267 0.687666
C15   C     C_2   0.473470 0.867320 0.510313 -0.406735
C16   C     C_2   0.435063 0.065518 0.421425 -0.091556
C17   C     C_2   0.499001 0.130123 0.489777 0.367234
C18   C     C_2   0.548027 0.577072 0.926854 0.648396
C19   C     C_2   0.543994 0.581267 0.077063 -0.167725
C20   C     C_R   0.494076 0.737218 0.502034 0.940152
C21   C     C_R   0.672800 0.505922 0.500049 0.876474
C22   C     C_R   0.812963 0.613987 0.572109 0.102849
C23   C     C_R   0.768223 0.517394 0.499360 -0.113269
C24   C     C_R   0.813960 0.429969 0.420516 -0.154840
C25   C     C_R   0.906118 0.431652 0.415887 -0.128368
C26   C     C_R   0.953460 0.519245 0.497221 -0.050789
H1    H     H_    0.477427 0.912438 0.608722 0.176530
H2    H     H_    0.455655 0.443113 0.896356 0.104334
H3    H     H_    0.581035 0.655418 0.128732 0.210211
H4    H     H_    0.469586 0.427210 0.100210 0.154316
H5    H     H_    0.776811 0.359662 0.362955 0.215362
H6    H     H_    0.220408 0.361747 0.346483 0.189680
H7    H     H_    0.229262 0.648957 0.650114 0.157916
H8    H     H_    0.923677 0.761976 0.722712 0.163333
N1    N     N_2   0.500970 0.501330 0.852150 -0.225474
N2    N     N_2   0.500990 0.501360 0.147810 -0.214339
O1    O     O_R   0.499990 0.319060 0.613040 -0.597212
O2    O     O_R   0.500010 0.319100 0.386900 -0.639092
O3    O     O_R   0.367830 0.499950 0.613080 -0.626447
O4    O     O_R   0.367860 0.499990 0.386940 -0.610815
O5    O     O_R   0.499990 0.680900 0.613100 -0.591823
O6    O     O_R   0.500010 0.680940 0.386960 -0.547211
O7    O     O_R   0.632140 0.500010 0.613060 -0.574057
O8    O     O_R   0.632170 0.500050 0.386920 -0.609891
Zn1   Zn    Zn3+2 0.499980 0.499970 0.650990 1.017695
Zn2   Zn    Zn3+2 0.500020 0.500030 0.349010 0.996727
C27   C     C_3   0.761012 0.724029 0.635084 -0.399930
C28   C     C_3   0.775099 0.843933 0.557392 -0.776770
H9    H     H_    0.846619 0.871903 0.555048 0.258894
H10   H     H_    0.750933 0.829779 0.453355 0.269250
H11   H     H_    0.736357 0.921601 0.605204 0.299033
H12   H     H_    0.687993 0.708133 0.636482 0.265898
H13   H     H_    0.779514 0.738689 0.741424 0.238304
C29   C     C_3   0.351922 0.123790 0.361401 -0.414514
C30   C     C_3   0.266917 0.072318 0.424922 -0.829933
H14   H     H_    0.261030 0.969696 0.405233 0.278039
H15   H     H_    0.267638 0.091521 0.534300 0.246664
H16   H     H_    0.207388 0.118316 0.382030 0.298582
H17   H     H_    0.350228 0.227020 0.374808 0.196908
H18   H     H_    0.350648 0.102609 0.252395 0.269342
F1    F     F_    0.574086 0.074379 0.537234 -0.682761
F2    F     F_    0.603329 0.659877 0.867319 -0.652450
F3    F     F_    0.905996 0.261969 0.253358 -0.615087
F4    F     F_    0.086898 0.261846 0.247362 -0.638730
C31   C     C_3   0.097980 0.783172 0.755787 -0.404794
C32   C     C_3   0.137555 0.890745 0.676954 -0.827466
H19   H     H_    0.187064 0.855852 0.602490 0.251237
H20   H     H_    0.083523 0.940865 0.624352 0.273754
H21   H     H_    0.171719 0.958172 0.746220 0.261134
H22   H     H_    0.050849 0.824372 0.830645 0.224915
H23   H     H_    0.150598 0.736739 0.814745 0.210839
F5    F     F_    0.428133 0.874008 0.285201 -0.642435

loop_
_geom_bond_atom_site_label_1
_geom_bond_atom_site_label_2
_ccdc_geom_bond_type
C2    C22   A    
C7    C13   A    
C32   H20   S    
C23   C24   A    
C13   H7    S    
C27   H12   S    
C21   O7    A    
H4    N2    S    
C21   O8    A    
C11   C13   A    
C18   N1    D    
C4    F4    S    
C15   H1    S    
C27   C28   S    
C14   C15   D    
C1    O1    A    
O3    Zn1   S    
C12   O3    A    
C28   H10   S    
C32   H19   S    
C6    C26   A    
C24   H5    S    
C8    C31   S    
C2    C26   A    
C29   H18   S    
N2    Zn2   S    
C20   O6    A    
O7    Zn1   S    
C6    C7    A    
C1    O2    A    
C20   O5    A    
C27   H13   S    
C28   H9    S    
O8    Zn2   S    
C9    H8    S    
C22   C27   S    
C3    F3    S    
C19   N2    D    
C30   H15   S    
C21   C23   S    
C5    C6    A    
C28   H11   S    
C16   C17   D    
C14   C16   S    
C30   H14   S    
O2    Zn2   S    
C32   H21   S    
C7    C8    A    
C10   C11   A    
O4    Zn2   S    
O1    Zn1   S    
C31   H22   S    
C19   H3    S    
C11   C12   S    
C10   H6    S    
C5    C10   A    
C3    C25   A    
C18   C19   S    
C24   C25   A    
C15   C20   S    
C31   C32   S    
O6    Zn2   S    
C16   C29   S    
C29   C30   S    
C30   H16   S    
C22   C23   A    
C4    C5    A    
O5    Zn1   S    
C12   O4    A    
C17   F1    S    
C25   C26   A    
C29   H17   S    
C2    C9    A    
C14   F5    S    
C1    C17   S    
C18   F2    S    
C3    C4    A    
H2    N1    S    
C31   H23   S    
C8    C9    A    
N1    Zn1   S    
