data_mof_unit_58554.cif
_audit_creation_date              2012-12-11T18:37:23-0500
_audit_creation_method            fapswitch 2.2
_symmetry_space_group_name_H-M    P1
_symmetry_Int_Tables_number       1
_space_group_crystal_system       triclinic
_cell_length_a                    8.214616
_cell_length_b                    14.302326
_cell_length_c                    26.962784
_cell_angle_alpha                 93.260415
_cell_angle_beta                  92.723607
_cell_angle_gamma                 88.440349
_cell_volume                      3158.15181992

loop_
_atom_site_label
_atom_site_type_symbol
_atom_type_description
_atom_site_fract_x
_atom_site_fract_y
_atom_site_fract_z
_atom_type_partial_charge
Ba1   Ba    Ba6+2 0.849670 0.455410 0.524690 1.643828
Ba2   Ba    Ba6+2 0.340150 0.544510 0.475310 1.659147
C1    C     C_3   0.606085 0.123326 0.665305 -0.365355
C2    C     C_3   0.624227 0.217914 0.643433 0.342257
C3    C     C_3   0.524697 0.690673 0.623266 0.298996
C4    C     C_3   0.501063 0.727632 0.676549 -0.370134
C5    C     C_3   0.010272 0.812305 0.336194 0.290684
C6    C     C_3   0.045373 0.835107 0.283474 -0.304091
C7    C     C_3   0.535704 0.793503 0.349155 0.434405
C8    C     C_3   0.509718 0.882172 0.321004 -0.364696
C9    C     C_R   0.009371 0.436666 0.181166 0.595111
C10   C     C_R   0.959118 0.602253 0.179414 0.588350
C11   C     C_2   0.779721 0.571908 0.271283 -0.091182
C12   C     C_3   0.133761 0.248951 0.665696 0.283007
C13   C     C_3   0.757613 0.599303 0.325514 -0.062295
C14   C     C_1   0.983524 0.489667 0.344932 0.047720
C15   C     C_2   0.025312 0.483172 0.297517 -0.075584
C16   C     C_2   0.917001 0.524748 0.257334 0.208526
C17   C     C_R   0.040889 0.515019 0.103717 -0.080078
C18   C     C_R   0.051137 0.433054 0.130496 -0.035665
C19   C     C_R   0.100947 0.348924 0.105836 -0.058760
C20   C     C_R   0.993848 0.599964 0.128494 -0.027894
C21   C     C_2   0.859605 0.541973 0.360909 -0.273477
C22   C     C_2   0.348811 0.477695 0.642292 -0.280344
C23   C     C_3   0.102698 0.228160 0.718985 -0.333314
C24   C     C_R   0.178575 0.425846 0.977400 0.019750
C25   C     C_R   0.087599 0.590937 0.973214 0.019957
C26   C     C_R   0.151382 0.507187 0.949813 0.050359
C27   C     C_R   0.251232 0.346075 0.953045 -0.100261
C28   C     C_R   0.291666 0.345555 0.903343 -0.060610
C29   C     C_R   0.260241 0.424118 0.875240 -0.030612
C30   C     C_R   0.188810 0.504909 0.898314 -0.078062
C31   C     C_R   0.155737 0.583663 0.869985 -0.034297
C32   C     C_R   0.192903 0.580407 0.819094 0.590460
C33   C     C_R   0.299813 0.423550 0.824603 0.579111
C34   C     C_3   0.209549 0.244615 0.394349 0.801391
C35   C     C_2   0.458213 0.480505 0.730251 -0.072612
C36   C     C_3   0.500157 0.485789 0.676174 -0.052121
C37   C     C_1   0.213249 0.519386 0.656868 0.037195
C38   C     C_2   0.175098 0.521238 0.704415 -0.104854
C39   C     C_2   0.303455 0.499301 0.744285 0.203215
C40   C     C_R   0.133900 0.427124 0.028193 0.019767
C41   C     C_R   0.078120 0.512260 0.052191 0.050391
C42   C     C_R   0.059346 0.594835 0.025234 0.019935
C43   C     C_R   0.142058 0.345948 0.056077 -0.099840
C44   C     C_R   0.983407 0.681591 0.102015 -0.061554
C45   C     C_3   0.134686 0.165313 0.421588 -0.385886
C46   C     C_R   0.053063 0.668059 0.943405 -0.100951
C47   C     C_R   0.086082 0.664290 0.893098 -0.061488
C48   C     C_R   0.014550 0.679182 0.051652 -0.101566
C49   C     C_R   0.688669 0.064834 0.472019 -0.051931
C50   C     C_R   0.506867 0.197622 0.499882 0.032276
C51   C     C_R   0.367417 0.228573 0.524105 -0.282690
C52   C     C_R   0.270052 0.165842 0.545966 0.020748
C53   C     C_R   0.316372 0.071447 0.546294 -0.140166
C54   C     C_R   0.458103 0.038859 0.522854 -0.002761
C55   C     C_R   0.552795 0.101181 0.497952 -0.030495
C56   C     C_3   0.031641 0.741240 0.574320 0.304384
C57   C     C_R   0.638837 0.908063 0.497672 -0.021376
C58   C     C_R   0.733781 0.969473 0.472376 0.006902
C59   C     C_R   0.682836 0.812014 0.496630 0.032043
C60   C     C_R   0.816202 0.778111 0.470536 -0.277815
C61   C     C_R   0.917710 0.839034 0.449203 -0.011211
C62   C     C_R   0.875638 0.934791 0.449177 -0.146689
C63   C     C_R   0.503252 0.944131 0.523248 -0.039998
C64   C     C_3   0.028556 0.847096 0.584240 -0.378454
C65   C     C_3   0.657748 0.346920 0.381003 0.310771
C66   C     C_3   0.672855 0.325163 0.325497 -0.363272
H1    H     H_    0.737409 0.215200 0.622404 0.105313
H2    H     H_    0.052332 0.123745 0.395542 0.106226
H3    H     H_    0.228595 0.117952 0.438153 0.029938
H4    H     H_    0.062321 0.196077 0.452366 0.111957
H5    H     H_    0.908487 0.717908 0.562480 0.001862
H6    H     H_    0.116491 0.723000 0.544351 0.074615
H7    H     H_    0.936247 0.867835 0.611853 0.136570
H8    H     H_    0.997673 0.882728 0.549508 0.066727
H9    H     H_    0.150354 0.870310 0.598945 0.114292
H10   H     H_    0.774281 0.373601 0.397335 0.018959
H11   H     H_    0.561114 0.401487 0.386232 0.089820
H12   H     H_    0.599387 0.067569 0.634922 0.078128
H13   H     H_    0.774459 0.273774 0.319016 0.138887
H14   H     H_    0.696744 0.389907 0.306690 0.065056
H15   H     H_    0.557620 0.295724 0.308978 0.154798
H16   H     H_    0.517134 0.230489 0.617851 -0.035723
H17   H     H_    0.492831 0.123307 0.686224 0.124292
H18   H     H_    0.403940 0.670539 0.606463 0.028686
H19   H     H_    0.608596 0.628487 0.623390 0.034777
H20   H     H_    0.424180 0.792751 0.676714 0.137905
H21   H     H_    0.439307 0.675292 0.697341 0.078384
H22   H     H_    0.621075 0.743065 0.695524 0.125389
H23   H     H_    0.712587 0.108191 0.690779 0.135304
H24   H     H_    0.152789 0.284607 0.744565 0.131295
H25   H     H_    0.959153 0.741279 0.335158 0.017990
H26   H     H_    0.920071 0.865501 0.350233 -0.019748
H27   H     H_    0.134938 0.783368 0.267707 0.168726
H28   H     H_    0.930627 0.833059 0.260012 0.119174
H29   H     H_    0.095134 0.906501 0.283349 0.091614
H30   H     H_    0.669548 0.780529 0.353219 -0.143747
H31   H     H_    0.487277 0.805606 0.386824 0.077572
H32   H     H_    0.574438 0.940775 0.341486 0.042411
H33   H     H_    0.378193 0.900991 0.317336 0.137021
H34   H     H_    0.084104 0.320439 0.659447 0.082181
H35   H     H_    0.558801 0.871458 0.283372 0.115655
H36   H     H_    0.139990 0.449234 0.287653 0.130092
H37   H     H_    0.108829 0.284367 0.125079 0.122467
H38   H     H_    0.555359 0.468351 0.758038 0.102722
H39   H     H_    0.347755 0.282510 0.886861 0.121647
H40   H     H_    0.282256 0.283008 0.971742 0.069276
H41   H     H_    0.176490 0.277920 0.040170 0.069013
H42   H     H_    0.696478 0.601943 0.243671 0.106892
H43   H     H_    0.949771 0.748392 0.120183 0.118842
H44   H     H_    0.996644 0.732337 0.957577 0.069329
H45   H     H_    0.267229 0.246744 0.660689 -0.011938
H46   H     H_    0.056935 0.725626 0.872268 0.122149
H47   H     H_    0.051481 0.538746 0.714718 0.123984
H48   H     H_    0.006113 0.745671 0.034745 0.068773
H49   H     H_    0.847568 0.558502 0.400362 0.080099
H50   H     H_    0.350383 0.436940 0.607051 0.070202
H51   H     H_    0.330805 0.301831 0.524271 0.073405
H52   H     H_    0.240724 0.023557 0.564061 0.072309
H53   H     H_    0.954378 0.981780 0.432028 0.065441
H54   H     H_    0.848932 0.704288 0.470410 0.057203
H55   H     H_    0.760811 0.109434 0.451242 0.099487
H56   H     H_    0.969523 0.225012 0.723969 0.139809
H57   H     H_    0.429509 0.899192 0.543370 0.098122
H58   H     H_    0.161866 0.160207 0.728237 0.122076
H59   H     H_    0.295566 0.282964 0.420517 -0.076962
N1    N     N_R   0.962757 0.520789 0.205239 -0.421953
N2    N     N_R   0.263941 0.500777 0.796717 -0.424777
O1    O     O_2   0.918080 0.549800 0.616640 -0.464822
O2    O     O_3   0.618527 0.264765 0.403090 -0.641448
O3    O     O_3   0.055784 0.181696 0.633619 -0.603556
O4    O     O_2   0.271610 0.450170 0.383330 -0.473135
O5    O     O_3   0.039630 0.450200 0.443530 -0.489847
O6    O     O_3   0.531440 0.620360 0.408460 -0.475275
O7    O     O_3   0.076706 0.301322 0.379300 -0.641541
O8    O     O_3   0.643350 0.612530 0.521650 -0.473590
O9    O     O_3   0.127390 0.668260 0.431510 -0.466112
O10   O     O_2   0.254969 0.833698 0.458160 -0.491810
O11   O     O_3   0.155493 0.815203 0.365681 -0.578520
O12   O     O_3   0.150070 0.549720 0.556460 -0.492868
O13   O     O_3   0.546340 0.387390 0.478340 -0.489465
O14   O     O_2   0.398940 0.728800 0.517420 -0.469157
O15   O     O_3   0.592536 0.761290 0.597544 -0.646434
O16   O     O_2   0.431555 0.535158 0.321751 -0.485640
O17   O     O_3   0.454101 0.718708 0.323223 -0.568603
O18   O     O_2   0.012573 0.364631 0.203509 -0.591510
O19   O     O_2   0.365829 0.353961 0.805353 -0.600710
O20   O     O_2   0.926683 0.677456 0.200893 -0.625330
O21   O     O_2   0.164463 0.649262 0.794955 -0.597172
O22   O     O_3   0.658250 0.379560 0.591530 -0.488216
O23   O     O_2   0.830469 0.424756 0.674628 -0.498832
O24   O     O_3   0.081842 0.699662 0.618301 -0.626732
O25   O     O_3   0.631934 0.288271 0.681946 -0.592422
O26   O     O_2   0.790750 0.271170 0.482550 -0.456577
O27   O     O_3   0.062300 0.331660 0.568480 -0.486890
O28   O     O_2   0.931219 0.166328 0.543224 -0.486954
P1    P     P_3+3 0.090020 0.577590 0.608380 0.995304
P2    P     P_3+3 0.614340 0.285150 0.467650 0.973620
P3    P     P_3+3 0.079559 0.210230 0.572229 0.940905
P4    P     P_3+3 0.099670 0.422330 0.391610 1.004952
P5    P     P_3+3 0.112134 0.790252 0.426324 0.956366
P6    P     P_3+3 0.656486 0.396669 0.656215 0.969172
P7    P     P_3+3 0.583826 0.729496 0.533910 0.936929
P8    P     P_3+3 0.542134 0.614402 0.343887 0.972859
O29   O     O_3   0.289301 0.213350 0.350404 -0.633473
C67   C     C_3   0.382387 0.129422 0.355032 0.156328
H60   H     H_    0.302336 0.068126 0.348852 0.040284
H61   H     H_    0.450352 0.126155 0.391441 0.022452
H62   H     H_    0.473022 0.124432 0.325738 0.081215

loop_
_geom_bond_atom_site_label_1
_geom_bond_atom_site_label_2
_ccdc_geom_bond_type
C25   C46   A    
C61   P5    S    
C2    O25   S    
C53   C54   A    
C38   C39   S    
C7    H30   S    
C28   H39   S    
C1    H17   S    
C59   P7    S    
C49   H55   S    
C17   C18   A    
C6    H28   S    
O13   P2    S    
C23   H58   S    
C32   O21   D    
C5    C6    S    
C67   H61   S    
C12   O3    S    
C51   C52   A    
C65   H10   S    
C56   H6    S    
Ba2   O5    S    
C11   C16   D    
C66   H13   S    
Ba1   P2    S    
Ba1   P1    S    
C15   H36   S    
C3    C4    S    
C43   H41   S    
C12   H34   S    
C38   H47   S    
O11   P5    S    
C54   C63   A    
C10   C20   A    
C7    O17   S    
C22   C37   D    
C4    H20   S    
C54   C55   A    
C34   C45   S    
C1    H23   S    
Ba1   Ba2   S    
O24   P1    S    
Ba1   O26   S    
Ba1   O13   S    
C16   N1    S    
C25   C42   A    
C56   C64   S    
C32   N2    Am   
C14   C15   D    
C22   C36   S    
C27   H40   S    
C49   C55   A    
C7    C8    S    
C33   N2    Am   
C53   H52   S    
C50   P2    S    
C13   C21   S    
C47   H46   S    
C57   C58   A    
C7    H31   S    
C44   H43   S    
O15   P7    S    
Ba2   O14   S    
C66   H15   S    
C6    H27   S    
C1    H12   S    
C34   O7    S    
Ba2   P4    S    
C2    H1    S    
C67   H60   S    
C17   C41   A    
C62   H53   S    
C15   C16   S    
C67   H62   S    
C19   C43   A    
O7    P4    S    
C8    H33   S    
C5    H25   S    
C9    C18   A    
C57   C59   A    
Ba2   O4    S    
O26   P2    D    
C65   C66   S    
Ba2   O9    S    
O25   P6    S    
C26   C30   A    
C17   C20   A    
C65   H11   S    
Ba1   O1    S    
C37   C38   D    
C3    O15   S    
O16   P8    D    
C4    H22   S    
C40   C43   A    
C63   H57   S    
C35   C36   S    
Ba1   O27   S    
O2    P2    S    
C41   C42   A    
C45   H2    S    
C27   C28   A    
C56   O24   S    
C29   C30   A    
C2    H16   S    
O27   P3    S    
C28   C29   A    
C64   H8    S    
C60   C61   A    
C34   O29   S    
C31   C32   A    
O6    P8    S    
O9    P5    S    
O3    P3    S    
C8    H32   S    
C11   H42   S    
C45   H3    S    
C3    H18   S    
C36   P6    S    
C46   H44   S    
O17   P8    S    
O28   P3    D    
O22   P6    S    
C11   C13   S    
C37   P1    S    
O29   C67   S    
Ba2   O13   S    
C29   C33   A    
C34   H59   S    
C40   C41   A    
Ba1   O5    S    
C4    H21   S    
O14   P7    D    
C60   H54   S    
Ba1   O8    S    
C50   C51   A    
C24   C40   A    
C42   C48   A    
C64   H9    S    
C52   C53   A    
C8    H35   S    
C23   H24   S    
C20   C44   A    
Ba2   O8    S    
C24   C26   A    
C10   O20   D    
O10   P5    D    
C65   O2    S    
C5    H26   S    
O4    P4    D    
C21   H49   S    
O8    P7    S    
C51   H51   S    
C10   N1    Am   
C14   P4    S    
C14   C21   D    
C12   H45   S    
C44   C48   A    
C22   H50   S    
Ba2   O6    S    
O5    P4    S    
O1    P1    D    
C58   C62   A    
C66   H14   S    
C30   C31   A    
C9    N1    Am   
C35   H38   S    
C57   C63   A    
C39   N2    S    
C9    O18   D    
C5    O11   S    
C6    H29   S    
C46   C47   A    
C64   H7    S    
Ba1   O22   S    
C48   H48   S    
C33   O19   D    
C12   C23   S    
C35   C39   D    
C59   C60   A    
C23   H56   S    
C45   H4    S    
O23   P6    D    
Ba1   O12   S    
C50   C55   A    
C52   P3    S    
C61   C62   A    
C3    H19   S    
O12   P1    S    
C18   C19   A    
C24   C27   A    
C25   C26   A    
Ba2   O12   S    
C13   P8    S    
C49   C58   A    
C31   C47   A    
C19   H37   S    
C1    C2    S    
C56   H5    S    
