data_mof_unit_30300.cif
_audit_creation_date              2012-12-11T17:01:19-0500
_audit_creation_method            fapswitch 2.2
_symmetry_space_group_name_H-M    P1
_symmetry_Int_Tables_number       1
_space_group_crystal_system       triclinic
_cell_length_a                    19.465472
_cell_length_b                    7.115004
_cell_length_c                    17.602773
_cell_angle_alpha                 90.000693
_cell_angle_beta                  108.659617
_cell_angle_gamma                 89.999468
_cell_volume                      2309.78239003

loop_
_atom_site_label
_atom_site_type_symbol
_atom_type_description
_atom_site_fract_x
_atom_site_fract_y
_atom_site_fract_z
_atom_type_partial_charge
O1    O     O_R   0.413720 0.494330 0.415730 -0.534693
O2    O     O_R   0.586280 0.994330 0.584270 -0.534689
O3    O     O_R   0.560210 0.819300 0.430070 -0.545515
O4    O     O_R   0.439790 0.319300 0.569930 -0.545522
C1    C     C_R   0.581070 0.655135 0.414267 0.719449
C2    C     C_R   0.418929 0.155137 0.585732 0.719457
O5    O     O_R   0.412670 0.823730 0.406310 -0.533638
O6    O     O_R   0.587330 0.323730 0.593690 -0.533638
O7    O     O_R   0.437690 0.998790 0.560340 -0.540342
O8    O     O_R   0.562310 0.498790 0.439660 -0.540338
C3    C     C_R   0.385932 0.655073 0.382745 0.688384
C4    C     C_R   0.614069 0.155073 0.617254 0.688385
O9    O     O_3   0.508380 0.662350 0.550560 -0.354517
O10   O     O_3   0.491620 0.162350 0.449440 -0.354515
V1    V     V_3+5 0.498450 0.935370 0.490620 1.476942
V2    V     V_3+5 0.501550 0.435370 0.509380 1.476935
C5    C     C_R   0.727563 0.986381 0.697060 0.029830
C6    C     C_R   0.272439 0.486380 0.302938 0.029869
C7    C     C_R   0.683483 0.145866 0.684578 -0.083295
C8    C     C_R   0.316517 0.645867 0.315421 -0.083293
C9    C     C_R   0.708704 0.296931 0.737395 -0.112604
C10   C     C_R   0.291296 0.796930 0.262605 -0.112623
H1    H     H_    0.675821 0.420227 0.731745 0.146111
H2    H     H_    0.324178 0.920227 0.268256 0.146110
C11   C     C_R   0.774242 0.284958 0.801408 -0.113706
C12   C     C_R   0.225758 0.784955 0.198591 -0.113704
H3    H     H_    0.789164 0.400543 0.843384 0.112132
H4    H     H_    0.210836 0.900538 0.156615 0.112131
C13   C     C_R   0.818113 0.122702 0.813416 -0.083637
C14   C     C_R   0.181888 0.622699 0.186583 -0.083619
C15   C     C_R   0.795195 0.977441 0.756818 0.058818
C16   C     C_R   0.204807 0.477438 0.243181 0.058774
C17   C     C_3   0.786686 0.772461 0.770430 -0.237281
C18   C     C_3   0.213321 0.272457 0.229568 -0.237291
C19   C     C_3   0.709366 0.788349 0.711277 -0.244985
C20   C     C_3   0.290640 0.288351 0.288720 -0.244978
H5    H     H_    0.790205 0.739203 0.833306 0.125356
H6    H     H_    0.209803 0.239199 0.166692 0.125365
H7    H     H_    0.696893 0.702171 0.655848 0.158274
H8    H     H_    0.303115 0.202174 0.344149 0.158281
C21   C     C_R   0.326204 0.988685 0.632558 -0.206625
C22   C     C_R   0.673829 0.488726 0.367477 -0.206602
C23   C     C_R   0.370675 0.146336 0.635856 -0.081184
C24   C     C_R   0.629324 0.646330 0.364142 -0.081210
C25   C     C_R   0.368194 0.296927 0.686621 -0.212164
C26   C     C_R   0.631775 0.796882 0.313346 -0.212138
C27   C     C_R   0.321891 0.291143 0.733407 0.094850
C28   C     C_R   0.678082 0.791107 0.266563 0.094869
C29   C     C_R   0.275778 0.135198 0.728124 0.083484
C30   C     C_R   0.724224 0.635206 0.271877 0.083441
C31   C     C_R   0.278255 0.983418 0.677526 0.097485
C32   C     C_R   0.721783 0.483469 0.322513 0.097511
C33   C     C_R   0.320914 0.439154 0.785303 -0.214315
C34   C     C_R   0.679044 0.939095 0.214649 -0.214239
C35   C     C_R   0.275047 0.432786 0.832008 -0.121732
C36   C     C_R   0.724918 0.932733 0.167951 -0.121629
C37   C     C_R   0.227564 0.279858 0.826615 0.094326
C38   C     C_R   0.772425 0.779841 0.173372 0.094344
C39   C     C_R   0.227058 0.131461 0.773211 -0.043609
C40   C     C_R   0.772946 0.631487 0.226796 -0.043748
C41   C     C_R   0.178070 0.979984 0.764298 0.059402
C42   C     C_R   0.821974 0.480095 0.235758 0.059653
C43   C     C_R   0.183413 0.826684 0.715433 -0.162754
C44   C     C_R   0.816706 0.326879 0.284692 -0.162593
C45   C     C_R   0.232767 0.828716 0.672756 -0.192809
C46   C     C_R   0.767331 0.328852 0.327346 -0.192945
C47   C     C_R   0.181758 0.272729 0.874469 0.116804
C48   C     C_R   0.818244 0.772705 0.125531 0.117030
C49   C     C_R   0.129872 0.125155 0.863750 -0.162580
C50   C     C_R   0.870170 0.625199 0.136297 -0.162702
C51   C     C_R   0.125163 0.985295 0.804258 0.136417
C52   C     C_R   0.874899 0.485424 0.195834 0.136389
H9    H     H_    0.327656 0.871797 0.593570 0.129544
H10   H     H_    0.672407 0.371880 0.406496 0.129544
H11   H     H_    0.402879 0.418190 0.690367 0.132137
H12   H     H_    0.597068 0.918111 0.309576 0.132138
H13   H     H_    0.355963 0.559993 0.790121 0.139539
H14   H     H_    0.643978 0.059911 0.209814 0.139508
H15   H     H_    0.276426 0.550217 0.871593 0.174954
H16   H     H_    0.723528 0.050141 0.128351 0.174910
H17   H     H_    0.150868 0.701448 0.710917 0.145732
H18   H     H_    0.849367 0.201813 0.289301 0.146120
H19   H     H_    0.235107 0.708889 0.635638 0.135092
H20   H     H_    0.765040 0.209085 0.364515 0.135105
O11   O     O_R   0.937800 0.775460 0.060470 -0.547151
O12   O     O_R   0.062200 0.275460 0.939530 -0.547230
O13   O     O_R   0.087350 0.441340 0.093710 -0.527989
O14   O     O_R   0.912650 0.941340 0.906290 -0.527929
C53   C     C_R   0.114519 0.610121 0.116663 0.684261
C54   C     C_R   0.885481 0.110122 0.883337 0.684360
O15   O     O_R   0.939820 0.446010 0.069950 -0.519056
O16   O     O_R   0.060180 0.946010 0.930050 -0.518791
O17   O     O_R   0.913690 0.271230 0.915700 -0.540129
O18   O     O_R   0.086310 0.771230 0.084300 -0.540119
C55   C     C_R   0.918742 0.614969 0.085238 0.706074
C56   C     C_R   0.081274 0.114962 0.914781 0.706507
O19   O     O_3   0.991670 0.603050 0.949510 -0.352813
O20   O     O_3   0.008330 0.103050 0.050490 -0.352877
V3    V     V_3+5 0.001550 0.329940 0.009370 1.479865
V4    V     V_3+5 0.998450 0.829940 0.990630 1.480142
N1    N     N_3   0.190348 0.414691 0.934942 -0.662928
H21   H     H_    0.197156 0.351025 0.990415 0.241919
H22   H     H_    0.145005 0.502723 0.918970 0.263794
N2    N     N_3   0.809621 0.914574 0.065015 -0.662918
H23   H     H_    0.854943 0.002675 0.080958 0.263755
H24   H     H_    0.802827 0.850828 0.009562 0.241908
N3    N     N_3   0.065102 0.854668 0.782628 -0.628156
H25   H     H_    0.052105 0.818236 0.722247 0.212373
H26   H     H_    0.018306 0.927694 0.781933 0.236161
N4    N     N_3   0.934962 0.354806 0.217585 -0.628497
H27   H     H_    0.948247 0.319980 0.278172 0.212368
H28   H     H_    0.981696 0.427296 0.217690 0.236504
C57   C     C_2   0.838760 0.658239 0.741101 0.762438
O21   O     O_2   0.816983 0.561062 0.680795 -0.567627
O22   O     O_R   0.912665 0.663329 0.784160 -0.641099
H29   H     H_    0.942403 0.579839 0.759922 0.293206
C58   C     C_2   0.161250 0.158225 0.258896 0.762427
O23   O     O_2   0.183026 0.061107 0.319219 -0.567601
O24   O     O_R   0.087350 0.163231 0.215817 -0.641185
H30   H     H_    0.057613 0.079748 0.240058 0.293281
C59   C     C_2   0.651047 0.779365 0.751466 0.757094
O25   O     O_2   0.659809 0.857442 0.815864 -0.555416
O26   O     O_R   0.586365 0.684213 0.713754 -0.653072
H31   H     H_    0.551317 0.688831 0.745687 0.284312
C60   C     C_2   0.348959 0.279368 0.248532 0.757088
O27   O     O_2   0.340198 0.357452 0.184137 -0.555417
O28   O     O_R   0.413640 0.184206 0.286241 -0.653075
H32   H     H_    0.448688 0.188826 0.254308 0.284310

loop_
_geom_bond_atom_site_label_1
_geom_bond_atom_site_label_2
_ccdc_geom_bond_type
C43   C45   A    
N1    H21   S    
C51   N3    S    
C21   C23   A    
C19   H7    S    
C20   C60   S    
O1    C3    A    
C49   C56   S    
O2    C4    A    
C2    O7    A    
C26   H12   S    
C32   C46   A    
O26   H31   S    
C27   C29   A    
C28   C34   A    
C47   N1    S    
C43   H17   S    
C7    C9    A    
C58   O24   S    
C37   C39   A    
C38   C40   A    
O22   H29   S    
O16   C56   A    
C40   C42   A    
C31   C45   A    
C25   C27   A    
C53   O18   A    
C49   C51   A    
N4    H27   S    
C13   C54   S    
C42   C44   A    
C17   C19   S    
C29   C31   A    
C30   C32   A    
N3    H25   S    
C15   C17   S    
O17   V3    S    
C18   C20   S    
C27   C33   A    
C19   C59   S    
C41   C51   A    
C18   C58   S    
C28   C30   A    
N1    H22   S    
N3    H26   S    
C22   C24   A    
C37   C47   A    
C14   C53   S    
N2    H24   S    
N2    H23   S    
O19   V3    S    
C24   C26   A    
O5    C3    A    
C26   C28   A    
C33   C35   A    
C11   C13   A    
C52   N4    S    
C3    C8    S    
C39   C41   A    
C22   H10   S    
C20   H8    S    
O4    C2    A    
C16   C18   S    
C21   H9    S    
C17   H5    S    
C57   O22   S    
C47   C49   A    
C44   C46   A    
O4    V2    S    
C33   H13   S    
C35   C37   A    
O12   V3    S    
C35   H15   S    
O18   V4    S    
O6    C4    A    
C41   C43   A    
C42   C52   A    
O1    V2    S    
O2    V1    S    
C23   C25   A    
C44   H18   S    
C59   O25   D    
O14   V4    S    
O12   C56   A    
C38   C48   A    
C1    C24   S    
C8    C10   A    
C12   C14   A    
O20   V4    S    
C2    C23   S    
C9    H1    S    
C60   O27   D    
C5    C15   A    
C10   H2    S    
C6    C16   A    
O28   H32   S    
O19   V4    S    
O3    V1    S    
O16   V4    S    
C54   O17   A    
C57   O21   D    
C9    C11   A    
C18   H6    S    
C12   H4    S    
C48   N2    S    
O14   C54   A    
O3    C1    A    
C29   C39   A    
O24   H30   S    
C34   C36   A    
C11   H3    S    
C17   C57   S    
C36   H16   S    
C25   H11   S    
C30   C40   A    
O13   C53   A    
C50   C55   S    
O7    V1    S    
C1    O8    A    
C13   C15   A    
O11   V4    S    
O8    V2    S    
C58   O23   D    
C14   C16   A    
O11   C55   A    
C4    C7    S    
O5    V1    S    
C5    C7    A    
C36   C38   A    
C6    C8    A    
N4    H28   S    
C59   O26   S    
C45   H19   S    
C46   H20   S    
O13   V3    S    
O15   C55   A    
O6    V2    S    
O20   V3    S    
C10   C12   A    
O9    V2    S    
C60   O28   S    
C48   C50   A    
O10   V1    S    
C50   C52   A    
C5    C19   S    
O15   V3    S    
C6    C20   S    
C21   C31   A    
C22   C32   A    
C34   H14   S    
