data_mof_unit_10160.cif
_audit_creation_date              2012-12-10T16:55:45-0500
_audit_creation_method            fapswitch 2.2
_symmetry_space_group_name_H-M    P1
_symmetry_Int_Tables_number       1
_space_group_crystal_system       triclinic
_cell_length_a                    7.833468
_cell_length_b                    8.43358
_cell_length_c                    10.505123
_cell_angle_alpha                 91.100541
_cell_angle_beta                  85.188098
_cell_angle_gamma                 94.238328
_cell_volume                      689.615914488

loop_
_atom_site_label
_atom_site_type_symbol
_atom_type_description
_atom_site_fract_x
_atom_site_fract_y
_atom_site_fract_z
_atom_type_partial_charge
C1    C     C_R   0.545584 0.794648 0.513887 0.815612
C2    C     C_R   0.454125 0.205764 0.517918 0.836871
C3    C     C_R   0.501471 0.500229 0.742179 0.890467
C4    C     C_R   0.498774 0.500570 0.257876 0.856385
C5    C     C_3   0.456175 0.642960 0.961624 -0.235252
C6    C     C_3   0.545200 0.358846 0.038479 -0.198021
C7    C     C_3   0.612539 0.618188 0.038304 -0.242378
C8    C     C_3   0.388576 0.383581 0.961869 -0.169008
C9    C     C_3   0.496804 0.501510 0.123125 -0.040808
C10   C     C_3   0.504199 0.500302 0.876923 -0.028736
C11   C     C_3   0.342695 0.526026 0.048197 0.051569
C12   C     C_3   0.658477 0.475970 0.951836 0.051301
C13   C     C_2   0.566161 0.958129 0.555618 0.058682
C14   C     C_2   0.428915 0.044650 0.559928 0.122785
H1    H     H_    0.703791 0.712988 0.073236 0.172409
H2    H     H_    0.297372 0.288675 0.927224 0.183728
H3    H     H_    0.420732 0.758922 0.927901 0.199540
H4    H     H_    0.582260 0.243959 0.073700 0.155095
H5    H     H_    0.012832 0.383637 0.401662 0.205654
H6    H     H_    0.986764 0.614546 0.599468 0.257785
N1    N     N_2   0.950320 0.457950 0.465730 -0.135177
N2    N     N_2   0.049680 0.542050 0.534270 -0.116553
O1    O     O_R   0.389250 0.738570 0.508410 -0.569107
O2    O     O_R   0.610750 0.261430 0.491590 -0.589086
O3    O     O_R   0.678390 0.711620 0.486450 -0.575770
O4    O     O_R   0.321610 0.288380 0.513550 -0.560671
O5    O     O_R   0.355460 0.513510 0.697030 -0.571068
O6    O     O_R   0.644540 0.486490 0.302970 -0.612235
O7    O     O_R   0.644600 0.486560 0.675070 -0.616039
O8    O     O_R   0.355400 0.513440 0.324930 -0.638345
Zn1   Zn    Zn3+2 0.306940 0.517990 0.514670 1.074753
Zn2   Zn    Zn3+2 0.693060 0.482010 0.485330 1.046755
C15   C     C_1   0.169187 0.555631 0.103130 0.205202
N3    N     N_1   0.032787 0.579271 0.146961 -0.200556
C16   C     C_1   0.832511 0.448979 0.896675 0.277325
N4    N     N_1   0.969451 0.427905 0.852628 -0.144846
S1    S     S_3+6 0.736255 0.019630 0.649692 0.067644
O9    O     O_2   0.873298 0.111295 0.566996 -0.191013
O10   O     O_2   0.673087 0.126242 0.757153 -0.342472
O11   O     O_3   0.816414 0.861009 0.711237 -0.509604
H7    H     H_    0.725220 0.818350 0.775079 0.330878
S2    S     S_3+6 0.232439 0.982147 0.646669 0.085139
O12   O     O_2   0.113706 0.910756 0.552652 -0.212906
O13   O     O_2   0.261036 0.859121 0.742793 -0.344860
O14   O     O_3   0.146716 0.138348 0.723063 -0.498326
H8    H     H_    0.073290 0.092567 0.796688 0.397255

loop_
_geom_bond_atom_site_label_1
_geom_bond_atom_site_label_2
_ccdc_geom_bond_type
C2    O4    A    
O2    Zn2   S    
C1    O1    A    
S1    O9    D    
C13   C14   D    
O7    Zn2   S    
C13   S1    S    
C16   N4    T    
C11   C15   S    
C14   S2    S    
O3    Zn2   S    
C3    O5    A    
C15   N3    T    
C5    C10   S    
S1    O10   D    
C3    C10   S    
O14   H8    S    
C12   C16   S    
C1    O3    A    
C9    C11   S    
C7    C12   S    
S2    O13   D    
C6    C9    S    
C8    C11   S    
C2    C14   S    
C10   C12   S    
C6    C12   S    
C7    H1    S    
O11   H7    S    
C4    O6    A    
H6    N2    S    
C5    C11   S    
S1    O11   S    
C2    O2    A    
O8    Zn1   S    
C6    H4    S    
N1    Zn2   S    
C1    C13   S    
S2    O12   D    
O5    Zn1   S    
C7    C9    S    
O6    Zn2   S    
C5    H3    S    
C5    C7    S    
N2    Zn1   S    
C3    O7    A    
C6    C8    S    
C8    H2    S    
H5    N1    S    
C4    C9    S    
N1    N2    D    
O4    Zn1   S    
C8    C10   S    
C4    O8    A    
S2    O14   S    
O1    Zn1   S    
