data_mof_unit_22100.cif
_audit_creation_date              2012-12-10T19:44:55-0500
_audit_creation_method            fapswitch 2.2
_symmetry_space_group_name_H-M    P1
_symmetry_Int_Tables_number       1
_space_group_crystal_system       triclinic
_cell_length_a                    15.005262
_cell_length_b                    11.097753
_cell_length_c                    13.888218
_cell_angle_alpha                 91.829187
_cell_angle_beta                  91.052372
_cell_angle_gamma                 84.195751
_cell_volume                      2299.43535852

loop_
_atom_site_label
_atom_site_type_symbol
_atom_type_description
_atom_site_fract_x
_atom_site_fract_y
_atom_site_fract_z
_atom_type_partial_charge
C1    C     C_R   0.498266 0.262551 0.498759 0.827593
C2    C     C_R   0.501229 0.737560 0.501125 0.821301
C3    C     C_R   0.067668 0.282664 0.481125 -0.129044
C4    C     C_R   0.932275 0.717042 0.519486 -0.130327
C5    C     C_R   0.430841 0.178265 0.166862 -0.180353
C6    C     C_R   0.559715 0.824108 0.834521 -0.170137
C7    C     C_R   0.429657 0.156689 0.265487 0.048400
C8    C     C_R   0.563979 0.845305 0.736074 0.048346
C9    C     C_R   0.510175 0.112161 0.313338 -0.012732
C10   C     C_R   0.484730 0.888390 0.685296 -0.041863
C11   C     C_R   0.591373 0.091247 0.260437 -0.139120
C12   C     C_R   0.401423 0.906614 0.734556 -0.139903
C13   C     C_R   0.589255 0.106656 0.159028 -0.071743
C14   C     C_R   0.399879 0.888549 0.835397 -0.024959
C15   C     C_R   0.508208 0.149713 0.113120 0.113474
C16   C     C_R   0.479996 0.849342 0.884811 0.108408
C17   C     C_R   0.510850 0.930545 0.412985 -0.011409
C18   C     C_R   0.486610 0.069876 0.586235 -0.006599
C19   C     C_R   0.502964 0.871493 0.501645 -0.098814
C20   C     C_R   0.495460 0.128841 0.497786 -0.108051
C21   C     C_R   0.492048 0.942431 0.588452 0.034172
C22   C     C_R   0.505540 0.058053 0.410729 0.027490
C23   C     C_R   0.329267 0.500452 0.499299 0.868538
C24   C     C_R   0.670787 0.499037 0.500660 0.867325
C25   C     C_R   0.570691 0.438648 0.793905 0.095661
C26   C     C_R   0.428581 0.559214 0.206143 0.089586
C27   C     C_R   0.428990 0.556614 0.794975 0.277427
C28   C     C_R   0.571926 0.445399 0.206441 0.296453
C29   C     C_R   0.427374 0.553306 0.896697 -0.001640
C30   C     C_R   0.572614 0.444009 0.104014 -0.054368
C31   C     C_R   0.499656 0.495604 0.948571 0.022441
C32   C     C_R   0.499430 0.500106 0.051944 0.040436
C33   C     C_R   0.571457 0.432850 0.897318 -0.124495
C34   C     C_R   0.427144 0.562811 0.102895 -0.124643
C35   C     C_R   0.354871 0.611764 0.947344 -0.213683
C36   C     C_R   0.644247 0.383701 0.052837 -0.238620
C37   C     C_R   0.355792 0.624141 0.047622 -0.003309
C38   C     C_R   0.642002 0.369692 0.952515 0.016575
C39   C     C_R   0.804824 0.603804 0.516100 -0.202707
C40   C     C_R   0.195298 0.395398 0.486606 -0.204193
C41   C     C_R   0.767432 0.495624 0.502047 -0.011802
C42   C     C_R   0.232643 0.503880 0.497762 -0.031338
C43   C     C_R   0.820581 0.386185 0.484674 0.058369
C44   C     C_R   0.179543 0.614166 0.510910 0.047101
C45   C     C_R   0.915815 0.383617 0.489188 0.039173
C46   C     C_R   0.084217 0.616577 0.508350 0.035081
C47   C     C_R   0.953211 0.497188 0.500337 0.019319
C48   C     C_R   0.046855 0.502768 0.498819 0.015424
C49   C     C_R   0.896872 0.605969 0.512702 0.065151
C50   C     C_R   0.103185 0.393673 0.488105 0.064654
C51   C     C_R   0.975926 0.275197 0.482900 0.141580
C52   C     C_R   0.023893 0.724880 0.515263 0.144744
Cu1   Cu    Cu3+1 0.500010 0.499980 0.597420 1.002530
Cu2   Cu    Cu3+1 0.499990 0.500020 0.402580 1.036418
H1    H     H_    0.761304 0.687272 0.525845 0.148048
H2    H     H_    0.238851 0.311603 0.479548 0.153144
H3    H     H_    0.298040 0.655320 0.908470 0.209030
H4    H     H_    0.701281 0.339795 0.090965 0.186316
H5    H     H_    0.112095 0.199329 0.476318 0.157149
H6    H     H_    0.887748 0.800202 0.525583 0.158355
H7    H     H_    0.369476 0.210902 0.129501 0.189758
H8    H     H_    0.620161 0.793572 0.874375 0.192526
N1    N     N_R   0.499960 0.499900 0.743810 -0.245683
N2    N     N_R   0.500040 0.500100 0.256190 -0.225466
O1    O     O_R   0.500000 0.319630 0.582270 -0.540187
O2    O     O_R   0.500000 0.680370 0.417730 -0.541079
O3    O     O_R   0.499990 0.319660 0.417730 -0.583558
O4    O     O_R   0.500010 0.680340 0.582270 -0.617896
O5    O     O_R   0.370260 0.499960 0.582280 -0.598604
O6    O     O_R   0.629740 0.500040 0.417720 -0.541557
O7    O     O_R   0.370250 0.499990 0.417740 -0.572507
O8    O     O_R   0.629750 0.500010 0.582260 -0.576919
C53   C     C_2   0.527088 0.860763 0.319864 0.884368
O9    O     O_2   0.471162 0.870335 0.254688 -0.523684
O10   O     O_R   0.607025 0.785876 0.307053 -0.740184
H9    H     H_    0.610169 0.743515 0.241244 0.338827
C54   C     C_2   0.467764 0.139822 0.678821 0.888080
O11   O     O_2   0.521860 0.130599 0.745776 -0.520024
O12   O     O_R   0.387511 0.214761 0.688919 -0.743724
H10   H     H_    0.382494 0.257418 0.754543 0.338118
C55   C     C_2   0.651605 0.390383 0.741816 0.923439
O13   O     O_2   0.719876 0.441574 0.751510 -0.569188
O14   O     O_R   0.651674 0.284844 0.684378 -0.685888
H11   H     H_    0.712563 0.258514 0.656178 0.327868
C56   C     C_2   0.348725 0.609974 0.258997 0.916069
O15   O     O_2   0.350796 0.701444 0.309969 -0.536853
O16   O     O_R   0.269734 0.553328 0.249240 -0.727920
H12   H     H_    0.218860 0.596695 0.287973 0.337923
N3    N     N_3   0.356601 0.626626 0.747653 -0.589827
H13   H     H_    0.306298 0.571126 0.729345 0.251175
H14   H     H_    0.378634 0.669737 0.688572 0.281123
N4    N     N_3   0.646926 0.389529 0.259199 -0.506170
H15   H     H_    0.658261 0.298349 0.239266 0.212848
H16   H     H_    0.703655 0.432395 0.243523 0.220334
C57   C     C_2   0.285724 0.714775 0.087313 0.867243
O17   O     O_2   0.206595 0.702442 0.071927 -0.562341
O18   O     O_R   0.310418 0.817813 0.137336 -0.666132
H17   H     H_    0.256798 0.874130 0.159487 0.358650
C58   C     C_2   0.710254 0.276683 0.912662 0.870545
O19   O     O_2   0.686932 0.189296 0.866506 -0.501906
O20   O     O_R   0.800995 0.285406 0.933000 -0.729282
H18   H     H_    0.841029 0.215298 0.903539 0.344593
N5    N     N_3   0.774772 0.284192 0.454217 -0.569215
H19   H     H_    0.782041 0.216982 0.505147 0.248727
H20   H     H_    0.796476 0.253543 0.385889 0.254890
N6    N     N_3   0.225898 0.718071 0.533861 -0.574978
H21   H     H_    0.207128 0.753135 0.601942 0.255895
H22   H     H_    0.217048 0.780968 0.479550 0.271061
N7    N     N_3   0.949246 0.155077 0.486154 -0.586002
H23   H     H_    0.914531 0.145191 0.549437 0.237170
H24   H     H_    0.913650 0.132943 0.424033 0.241826
N8    N     N_3   0.050008 0.845270 0.511626 -0.586072
H25   H     H_    0.086641 0.867598 0.572936 0.244147
H26   H     H_    0.082901 0.856271 0.447398 0.238180
N9    N     N_3   0.503944 0.164177 0.010850 -0.518027
H27   H     H_    0.477477 0.252787 0.997477 0.224962
H28   H     H_    0.458547 0.107010 0.981710 0.270031
N10   N     N_3   0.480885 0.835363 0.987117 -0.515187
H29   H     H_    0.510828 0.748756 0.001859 0.224871
H30   H     H_    0.522135 0.896669 0.018279 0.274790
C59   C     C_2   0.341360 0.172137 0.313794 0.836208
O21   O     O_2   0.284615 0.252695 0.289129 -0.571271
O22   O     O_R   0.321100 0.091947 0.383988 -0.739230
H31   H     H_    0.257588 0.108793 0.407983 0.329972
C60   C     C_2   0.653790 0.830096 0.690870 0.860695
O23   O     O_2   0.710236 0.750703 0.718225 -0.568237
O24   O     O_R   0.675566 0.908683 0.620162 -0.742626
H32   H     H_    0.739700 0.891553 0.598080 0.328617
C61   C     C_2   0.675612 0.041723 0.310781 0.879434
O25   O     O_2   0.690644 0.073891 0.393921 -0.608440
O26   O     O_R   0.735379 0.953898 0.265389 -0.711422
H33   H     H_    0.788674 0.926458 0.308054 0.342872
C62   C     C_2   0.318817 0.957225 0.681679 0.879635
O27   O     O_2   0.307346 0.929045 0.596942 -0.608311
O28   O     O_R   0.256650 0.042092 0.726838 -0.716282
H34   H     H_    0.204888 0.070866 0.682554 0.341671
C63   C     C_2   0.670957 0.078899 0.100047 0.915898
O29   O     O_2   0.667090 0.020807 0.024044 -0.539674
O30   O     O_R   0.752251 0.119532 0.131003 -0.776549
H35   H     H_    0.802603 0.095150 0.084442 0.357610
C64   C     C_2   0.315373 0.910930 0.890198 0.921733
O31   O     O_2   0.314153 0.968520 0.966778 -0.554940
O32   O     O_R   0.237120 0.866096 0.854276 -0.757437
H36   H     H_    0.184290 0.886726 0.898351 0.356740

loop_
_geom_bond_atom_site_label_1
_geom_bond_atom_site_label_2
_ccdc_geom_bond_type
C17   C53   S    
O16   H12   S    
O20   H18   S    
C27   C29   A    
C34   C37   A    
C41   C43   A    
C53   O9    D    
C23   O5    A    
C57   O17   D    
Cu1   O5    S    
N8    H26   S    
C55   O13   D    
C24   O6    A    
O28   H34   S    
C39   C41   A    
C54   O11   D    
C63   O30   S    
C23   C42   S    
Cu2   N2    S    
C4    C52   A    
O14   H11   S    
C19   C21   A    
C36   H4    S    
N7    H24   S    
C9    C22   S    
N6    H21   S    
C52   N8    S    
N9    H27   S    
C18   C21   A    
C46   C52   A    
C11   C13   A    
C37   C57   S    
C25   N1    A    
C45   C47   A    
Cu1   O4    S    
C26   N2    A    
N10   H29   S    
C1    O3    A    
C26   C34   A    
C39   H1    S    
Cu2   O7    S    
C58   O19   D    
N9    H28   S    
C1    O1    A    
C31   C33   A    
N3    H14   S    
Cu1   O1    S    
C18   C20   A    
C48   C50   A    
C14   C64   S    
C51   N7    S    
C25   C55   S    
C24   C41   S    
C53   O10   S    
C42   C44   A    
C7    C59   S    
C11   C61   S    
N8    H25   S    
C55   O14   S    
C3    C50   A    
C44   C46   A    
O18   H17   S    
C43   N5    S    
C56   O16   S    
C10   C21   S    
C46   C48   A    
C5    C15   A    
C23   O7    A    
O22   H31   S    
C47   C49   A    
C5    C7    A    
C3    C51   A    
C6    C8    A    
Cu2   O3    S    
C40   H2    S    
C56   O15   D    
C13   C63   S    
O10   H9    S    
C16   N10   S    
C43   C45   A    
C40   C42   A    
C47   C48   A    
Cu2   O6    S    
C4    H6    S    
N4    H16   S    
C54   O12   S    
C5    H7    S    
C28   N4    S    
C9    C11   A    
C59   O21   D    
C10   C12   A    
C28   N2    A    
C39   C49   A    
C12   C14   A    
C12   C62   S    
C13   C15   A    
C60   O23   D    
N5    H20   S    
C15   N9    S    
O26   H33   S    
C24   O8    A    
C62   O28   S    
C61   O25   D    
C7    C9    A    
C1    C20   S    
C35   C37   A    
C2    C19   S    
C31   C32   A    
C17   C22   A    
C20   C22   A    
C38   C58   S    
C2    O2    A    
O30   H35   S    
C57   O18   S    
Cu1   Cu2   S    
Cu2   O2    S    
C44   N6    S    
C63   O29   D    
C29   C35   A    
C2    O4    A    
C33   C38   A    
C30   C36   A    
C4    C49   A    
C35   H3    S    
C6    H8    S    
C64   O32   S    
O32   H36   S    
C28   C30   A    
C29   C31   A    
N7    H23   S    
C30   C32   A    
Cu1   N1    S    
C62   O27   D    
N6    H22   S    
C26   C56   S    
C40   C50   A    
C36   C38   A    
N4    H15   S    
C17   C19   A    
C27   N3    S    
C14   C16   A    
C18   C54   S    
N10   H30   S    
C59   O22   S    
C6    C16   A    
O12   H10   S    
C8    C60   S    
C8    C10   A    
C25   C33   A    
N5    H19   S    
C60   O24   S    
C45   C51   A    
C27   N1    A    
N3    H13   S    
C64   O31   D    
Cu1   O8    S    
C58   O20   S    
O24   H32   S    
C32   C34   A    
C61   O26   S    
C3    H5    S    
