data_mof_unit_62749.cif
_audit_creation_date              2013-03-05T16:39:15-0500
_audit_creation_method            fapswitch 2.2
_symmetry_space_group_name_H-M    P1
_symmetry_Int_Tables_number       1
_space_group_crystal_system       triclinic
_cell_length_a                    16.002556
_cell_length_b                    14.766993
_cell_length_c                    27.845157
_cell_angle_alpha                 90.008404
_cell_angle_beta                  89.97103
_cell_angle_gamma                 89.993437
_cell_volume                      6580.07786062

loop_
_atom_site_label
_atom_site_type_symbol
_atom_site_description
_atom_site_fract_x
_atom_site_fract_y
_atom_site_fract_z
_atom_type_partial_charge
O1    O     O_R   0.380310 0.575320 0.500010 -0.561530
O2    O     O_R   0.619690 0.424680 0.499990 -0.567651
O3    O     O_R   0.619690 0.575320 0.499990 -0.552976
O4    O     O_R   0.380310 0.424680 0.500010 -0.557339
C1    C     C_R   0.340861 0.500004 0.500012 0.800694
C2    C     C_R   0.659139 0.499996 0.499988 0.800454
O5    O     O_R   0.500010 0.575330 0.430260 -0.511227
O6    O     O_R   0.499990 0.424670 0.569740 -0.578850
O7    O     O_R   0.499990 0.575330 0.569740 -0.514065
O8    O     O_R   0.500010 0.424670 0.430260 -0.580890
C3    C     C_R   0.499613 0.500012 0.407200 0.891849
C4    C     C_R   0.500329 0.500019 0.592802 0.891555
Cu1   Cu    Cu3+1 0.500000 0.589220 0.500000 1.146489
Cu2   Cu    Cu3+1 0.500000 0.410780 0.500000 1.085989
C5    C     C_R   0.427412 0.482007 0.177698 0.719059
C6    C     C_R   0.572187 0.482093 0.822313 0.719046
O9    O     O_2   0.356264 0.469540 0.202874 -0.390015
O10   O     O_2   0.643379 0.469852 0.797142 -0.390306
N1    N     N_R   0.500829 0.494703 0.201677 -0.439758
N2    N     N_R   0.498740 0.494551 0.798329 -0.439641
C7    C     C_R   0.574708 0.507342 0.177982 0.733255
C8    C     C_R   0.424814 0.506934 0.822019 0.733226
C9    C     C_R   0.524424 0.418103 0.279388 0.346883
C10   C     C_R   0.475434 0.417969 0.720573 0.345179
C11   C     C_R   0.523828 0.421218 0.329631 -0.295240
C12   C     C_R   0.476122 0.421124 0.670333 -0.294398
C13   C     C_R   0.474780 0.576514 0.328132 0.577508
C14   C     C_R   0.524690 0.576578 0.671921 0.573899
C15   C     C_R   0.475045 0.575469 0.277738 0.224391
C16   C     C_R   0.524343 0.575486 0.722315 0.224109
C17   C     C_R   0.500176 0.496003 0.253263 0.019933
C18   C     C_R   0.499421 0.495915 0.746744 0.020654
C19   C     C_R   0.501415 0.495331 0.101768 -0.154413
C20   C     C_R   0.498127 0.495206 0.898238 -0.154436
C21   C     C_R   0.425972 0.482032 0.127273 -0.137296
C22   C     C_R   0.573615 0.482143 0.872738 -0.137279
C23   C     C_R   0.351463 0.467772 0.101769 0.680834
C24   C     C_R   0.648164 0.468155 0.898246 0.680791
C25   C     C_R   0.577197 0.507187 0.127222 -0.192951
C26   C     C_R   0.422312 0.506781 0.872779 -0.192860
C27   C     C_R   0.499386 0.499611 0.354243 -0.281815
C28   C     C_R   0.500407 0.499607 0.645763 -0.284455
C29   C     C_R   0.422672 0.502842 0.974950 -0.066354
C30   C     C_R   0.576838 0.503143 0.025054 -0.066343
C31   C     C_R   0.575772 0.491757 0.974359 0.025702
C32   C     C_R   0.423774 0.491530 0.025648 0.025706
C33   C     C_R   0.498779 0.496669 0.949268 0.019144
C34   C     C_R   0.500753 0.496737 0.050738 0.019166
C35   C     C_R   0.348526 0.521153 0.949026 0.549898
C36   C     C_R   0.650926 0.521750 0.050972 0.549877
C37   C     C_R   0.347596 0.521141 0.898864 0.255908
C38   C     C_R   0.651860 0.521799 0.101133 0.255871
O11   O     O_2   0.354731 0.520552 0.796149 -0.427215
O12   O     O_2   0.644757 0.521195 0.203847 -0.426709
C39   C     C_R   0.350828 0.471662 0.051978 -0.146383
C40   C     C_R   0.648782 0.472102 0.948036 -0.146381
H1    H     H_    0.457748 0.361595 0.650206 0.252330
H2    H     H_    0.542405 0.361731 0.349728 0.244844
H3    H     H_    0.292695 0.454482 0.034670 0.249307
H4    H     H_    0.706966 0.455139 0.965350 0.249293
C41   C     C_R   0.956362 0.582068 0.496898 0.539003
C42   C     C_R   0.043638 0.417937 0.503101 0.537459
C43   C     C_R   0.043617 0.582073 0.496900 0.536843
C44   C     C_R   0.956384 0.417932 0.503099 0.534610
C45   C     C_R   0.912727 0.499997 0.499997 -0.356617
C46   C     C_R   0.087273 0.500008 0.500002 -0.357004
C47   C     C_1   0.823218 0.499991 0.499994 0.266357
C48   C     C_1   0.176782 0.500013 0.500006 0.266680
C49   C     C_1   0.251793 0.500012 0.500009 -0.065209
C50   C     C_1   0.748207 0.499990 0.499990 -0.066019
C51   C     C_R   0.512932 0.951763 0.543148 0.220771
C52   C     C_R   0.487287 0.048264 0.456792 0.234662
C53   C     C_R   0.489738 0.951725 0.456583 0.222722
C54   C     C_R   0.510367 0.048294 0.543377 0.237417
C55   C     C_R   0.502708 0.902908 0.499746 -0.281025
C56   C     C_R   0.497384 0.097109 0.500213 -0.270525
C57   C     C_1   0.500966 0.802594 0.499910 0.433036
C58   C     C_1   0.499077 0.197411 0.500074 0.413996
N3    N     N_1   0.500000 0.276710 0.500000 -0.133712
N4    N     N_1   0.500000 0.723290 0.500000 -0.117919
F1    F     F_    0.451086 0.653018 0.351595 -0.545467
F2    F     F_    0.548108 0.653207 0.648509 -0.544799
N5    N     N_R   0.524262 0.096661 0.587491 0.169346
O13   O     O_R   0.474211 0.161712 0.600433 -0.294822
O14   O     O_R   0.587791 0.076559 0.614630 -0.211436
N6    N     N_R   0.475874 0.903350 0.412474 0.179729
O15   O     O_R   0.526024 0.838402 0.399522 -0.244166
O16   O     O_R   0.412366 0.923432 0.385315 -0.188695
N7    N     N_R   0.477675 0.096596 0.412293 0.165779
O17   O     O_R   0.423512 0.161958 0.408605 -0.289136
O18   O     O_R   0.523971 0.076191 0.375411 -0.211515
N8    N     N_R   0.522984 0.903419 0.587599 0.176043
O19   O     O_R   0.577751 0.838639 0.591206 -0.229961
O20   O     O_R   0.476746 0.923451 0.624562 -0.197939
N9    N     N_R   0.449651 0.655139 0.251700 0.187811
O21   O     O_R   0.390360 0.706750 0.268279 -0.164650
O22   O     O_R   0.488145 0.679232 0.212573 -0.286350
N10   N     N_R   0.549447 0.655219 0.748398 0.186984
O23   O     O_R   0.608602 0.707046 0.731871 -0.163608
O24   O     O_R   0.510817 0.679146 0.787516 -0.287246
F3    F     F_    0.278397 0.449225 0.124576 -0.537444
F4    F     F_    0.721290 0.449830 0.875445 -0.537485
N11   N     N_R   0.450282 0.335479 0.744263 0.181659
O25   O     O_R   0.403141 0.277187 0.722015 -0.230598
O26   O     O_R   0.479263 0.314309 0.786435 -0.287446
N12   N     N_R   0.549756 0.335706 0.255649 0.181728
O27   O     O_R   0.597043 0.277501 0.277857 -0.237732
O28   O     O_R   0.520798 0.314516 0.213472 -0.286793
N13   N     N_R   0.269259 0.535760 0.875264 0.211586
O29   O     O_R   0.232498 0.614077 0.878618 -0.180300
O30   O     O_R   0.227986 0.466932 0.858309 -0.209321
N14   N     N_R   0.730148 0.536745 0.124728 0.211710
O31   O     O_R   0.766597 0.615224 0.121393 -0.179907
O32   O     O_R   0.771700 0.468086 0.141653 -0.209464
F5    F     F_    0.276943 0.546129 0.971639 -0.583369
F6    F     F_    0.722423 0.546962 0.028351 -0.583376
F7    F     F_    0.085503 0.661851 0.493886 -0.536581
F8    F     F_    0.914498 0.338153 0.506112 -0.540060
F9    F     F_    0.914456 0.661841 0.493884 -0.535015
F10   F     F_    0.085544 0.338164 0.506117 -0.537284

loop_
_geom_bond_atom_site_label_1
_geom_bond_atom_site_label_2
_geom_bond_distance
_ccdc_geom_bond_type
C46   C48   1.432379 S    
C39   H3    1.078209 S    
C13   C15   1.403310 A    
N9    O21   1.301351 A    
C54   N5    1.438218 S    
C52   C56   1.417121 A    
O3    C2    1.278904 A    
N1    C17   1.436573 S    
N14   O32   1.300961 A    
C5    N1    1.364578 A    
C19   C25   1.415830 A    
C54   C56   1.416982 A    
O1    C1    1.278924 A    
N1    C7    1.366449 A    
C56   C58   1.481410 S    
N13   O30   1.300965 A    
C7    O12   1.348324 S    
C43   F7    1.358068 S    
N6    O16   1.301341 A    
C41   F9    1.358075 S    
N12   O27   1.301640 A    
C38   N14   1.432041 S    
C44   F8    1.358067 S    
C5    O9    1.349417 S    
C41   C43   1.396290 A    
O7    Cu1   1.952751 S    
C42   C44   1.396289 A    
C23   F3    1.358233 S    
C51   N8    1.438029 S    
C31   C40   1.409081 A    
C48   C49   1.200371 T    
C35   C37   1.396864 A    
C32   C39   1.409090 A    
C36   C38   1.396840 A    
N7    O18   1.301331 A    
C42   F10   1.358075 S    
O3    Cu1   1.926288 S    
C6    N2    1.364577 A    
C52   C53   1.426138 A    
C25   C38   1.414585 A    
C43   C46   1.401435 A    
C37   N13   1.432043 S    
Cu1   Cu2   2.635021 S    
C53   C55   1.416956 A    
O2    C2    1.278931 A    
C4    C28   1.474708 S    
C5    C21   1.404293 A    
N14   O31   1.300782 A    
C29   C32   1.421691 A    
C8    O11   1.348316 S    
C31   C33   1.418560 A    
C32   C34   1.418570 A    
C42   C46   1.401419 A    
C14   F2    1.358679 S    
C16   C18   1.415109 A    
C13   F1    1.358793 S    
O8    Cu2   1.952756 S    
C11   C27   1.400786 A    
C15   N9    1.440617 S    
N6    O15   1.301303 A    
C29   C35   1.415229 A    
C45   C47   1.432379 S    
C9    N12   1.442613 S    
C1    C49   1.425303 S    
C40   H4    1.078217 S    
C9    C17   1.415446 A    
O5    C3    1.284203 A    
C10   C18   1.415405 A    
O7    C4    1.284303 A    
C13   C27   1.404899 A    
N5    O13   1.301368 A    
C7    C25   1.413957 A    
O6    C4    1.284621 A    
C8    C26   1.413983 A    
C36   F6    1.357875 S    
N8    O20   1.301315 A    
N11   O26   1.300933 A    
Cu2   N3    1.979812 S    
C55   C57   1.481618 S    
C6    O10   1.349416 S    
C35   F5    1.357871 S    
N2    C8    1.366454 A    
N10   O24   1.300982 A    
C20   C26   1.415830 A    
O1    Cu1   1.926336 S    
C11   H2    1.083250 S    
C22   C24   1.403991 A    
C30   C31   1.421657 A    
C12   C28   1.400833 A    
N2    C18   1.436567 S    
C57   N4    1.171187 T    
C30   C36   1.415220 A    
C2    C50   1.425304 S    
O6    Cu2   1.952691 S    
C21   C23   1.403995 A    
C58   N3    1.171108 T    
C10   C12   1.399783 A    
O4    C1    1.278910 A    
C51   C54   1.426072 A    
N9    O22   1.300981 A    
C26   C37   1.414592 A    
C16   N10   1.440614 S    
C47   C50   1.200373 T    
C44   C45   1.401434 A    
C10   N11   1.442579 S    
C14   C16   1.403310 A    
C15   C17   1.415138 A    
N13   O29   1.300793 A    
C6    C22   1.404284 A    
C51   C55   1.416961 A    
C52   N7    1.438311 S    
N12   O28   1.300935 A    
C14   C28   1.404856 A    
N8    O19   1.301239 A    
C19   C21   1.414103 A    
C3    C27   1.474597 S    
C20   C22   1.414105 A    
C9    C11   1.399787 A    
O4    Cu2   1.926290 S    
N5    O14   1.301340 A    
O2    Cu2   1.926335 S    
C12   H1    1.083235 S    
C53   N6    1.438075 S    
Cu1   N4    1.979812 S    
O8    C3    1.284678 A    
C23   C39   1.387692 A    
C41   C45   1.401421 A    
O5    Cu1   1.952696 S    
C24   C40   1.387683 A    
C24   F4    1.358242 S    
N10   O23   1.301337 A    
N11   O25   1.301634 A    
C19   C34   1.421138 A    
C20   C33   1.421140 A    
N7    O17   1.301286 A    
C29   C33   1.414938 A    
C30   C34   1.414932 A    
