data_mof_unit_58175.cif
_audit_creation_date              2012-12-11T14:50:45-0500
_audit_creation_method            fapswitch 2.2
_symmetry_space_group_name_H-M    P1
_symmetry_Int_Tables_number       1
_space_group_crystal_system       triclinic
_cell_length_a                    10.943074
_cell_length_b                    10.891003
_cell_length_c                    18.76291
_cell_angle_alpha                 90.190463
_cell_angle_beta                  89.688199
_cell_angle_gamma                 59.784509
_cell_volume                      1932.29655078

loop_
_atom_site_label
_atom_site_type_symbol
_atom_type_description
_atom_site_fract_x
_atom_site_fract_y
_atom_site_fract_z
_atom_type_partial_charge
C1    C     C_R   0.239073 0.645723 0.610583 0.567468
C2    C     C_R   0.561845 0.245575 0.797367 -0.103560
C3    C     C_R   0.542676 0.263064 0.724899 -0.050508
C4    C     C_R   0.655440 0.624183 0.600306 0.587128
C5    C     C_R   0.656041 0.188728 0.677404 0.067559
C6    C     C_R   0.189880 0.555426 0.722442 -0.182449
C7    C     C_R   0.183302 0.557489 0.796611 -0.213977
C8    C     C_R   0.184601 0.667681 0.835036 0.028606
C9    C     C_R   0.210666 0.765079 0.798968 0.363970
C10   C     C_R   0.215415 0.763727 0.725569 -0.058332
C11   C     C_R   0.204248 0.659765 0.686414 -0.009310
C12   C     C_3   0.672019 0.586413 0.802891 -0.129556
C13   C     C_R   0.804305 0.604711 0.295108 -0.154035
C14   C     C_R   0.822713 0.623430 0.223781 -0.196770
C15   C     C_R   0.706649 0.713933 0.181788 0.021064
C16   C     C_R   0.628027 0.227920 0.602908 0.555579
C17   C     C_R   0.571967 0.794069 0.213530 0.357905
C18   C     C_R   0.553554 0.774683 0.285283 -0.099919
C19   C     C_R   0.668649 0.675220 0.325476 -0.031416
C20   C     C_R   0.558361 0.139005 0.290141 -0.136226
C21   C     C_R   0.555090 0.134141 0.217225 -0.083738
C22   C     C_R   0.650009 0.156085 0.176575 0.041877
C23   C     C_3   0.722559 0.695817 0.807346 -0.026651
C24   C     C_R   0.744701 0.188648 0.209452 -0.139152
C25   C     C_R   0.745530 0.197268 0.282809 -0.141309
C26   C     C_R   0.650175 0.175180 0.323250 0.020586
C27   C     C_R   0.078591 0.800624 0.305380 -0.155584
C28   C     C_R   0.219952 0.649364 0.402231 0.549502
C29   C     C_R   0.056213 0.813740 0.233266 -0.171949
C30   C     C_R   0.111865 0.691858 0.189464 0.043898
C31   C     C_R   0.178858 0.556400 0.218716 0.339923
C32   C     C_R   0.199648 0.543230 0.291375 -0.100626
C33   C     C_R   0.156153 0.665545 0.333915 -0.026810
C34   C     C_3   0.679994 0.655711 0.674207 0.076488
C35   C     C_R   0.703294 0.100614 0.895956 0.524849
C36   C     C_R   0.753960 0.710958 0.882671 0.538077
C37   C     C_R   0.120445 0.704918 0.906055 0.557218
C38   C     C_R   0.673984 0.107637 0.103904 0.541478
C39   C     C_R   0.731857 0.718946 0.105560 0.566927
C40   C     C_R   0.644453 0.626208 0.393549 0.542794
C41   C     C_R   0.085864 0.713197 0.114631 0.586267
C42   C     C_R   0.618542 0.227729 0.395279 0.540102
C43   C     C_3   0.603669 0.837400 0.774676 -0.255642
C44   C     C_3   0.568323 0.808789 0.698820 -0.267386
C45   C     C_3   0.827159 0.642853 0.681728 -0.272978
C46   C     C_3   0.858041 0.646873 0.761618 -0.259467
C47   C     C_3   0.671907 0.544865 0.724833 0.550455
C48   C     C_R   0.791260 0.095466 0.703293 -0.101235
C49   C     C_R   0.810673 0.075943 0.776829 -0.097186
C50   C     C_R   0.695002 0.150261 0.823779 0.032853
Cl1   Cl    Cl    0.820508 0.368340 0.712045 -0.593522
Cr1   Cr    Cr6+3 0.392930 0.397900 0.502230 1.024012
Cr2   Cr    Cr6+3 0.398240 0.708600 0.501260 1.034865
Cr3   Cr    Cr6+3 0.708800 0.393470 0.496460 1.064122
Cr4   Cr    Cr6+3 0.937620 0.938540 0.007640 1.076998
Cr5   Cr    Cr6+3 0.625150 0.937450 0.994520 1.097896
Cr6   Cr    Cr6+3 0.937990 0.625080 0.001190 1.064584
F1    F     F_    0.223169 0.867546 0.834012 -0.623298
F2    F     F_    0.456781 0.883140 0.174794 -0.616395
F3    F     F_    0.228968 0.438258 0.177110 -0.626279
F4    F     F_    0.549389 0.540544 0.712132 -0.639345
H1    H     H_    0.639088 0.916810 0.772284 0.130440
H2    H     H_    0.505536 0.884202 0.807753 0.193877
H3    H     H_    0.231117 0.843420 0.699638 0.156335
H4    H     H_    0.894989 0.528600 0.325299 0.151172
H5    H     H_    0.927209 0.562034 0.200473 0.176920
H6    H     H_    0.447766 0.830098 0.307861 0.158684
H7    H     H_    0.483438 0.122087 0.320337 0.142328
H8    H     H_    0.482241 0.106851 0.193052 0.219105
H9    H     H_    0.820418 0.203229 0.178615 0.147179
H10   H     H_    0.816132 0.227274 0.307407 0.146033
H11   H     H_    0.043294 0.895138 0.337947 0.140982
H12   H     H_    0.940376 0.538911 0.778542 0.174446
H13   H     H_    0.461191 0.821101 0.699221 0.178942
H14   H     H_    0.998039 0.919790 0.211528 0.156980
H15   H     H_    0.260033 0.437231 0.313112 0.164452
H16   H     H_    0.566329 0.888741 0.661324 0.114843
H17   H     H_    0.898584 0.721244 0.769734 0.111447
H18   H     H_    0.828178 0.732257 0.653671 0.102960
H19   H     H_    0.738725 0.490302 0.835247 0.172710
H20   H     H_    0.563321 0.634134 0.825835 0.166728
H21   H     H_    0.912838 0.543290 0.657167 0.175050
H22   H     H_    0.880149 0.038749 0.667143 0.119607
H23   H     H_    0.913490 0.997943 0.796733 0.151681
H24   H     H_    0.471298 0.301161 0.832726 0.132945
H25   H     H_    0.438787 0.336781 0.705544 0.160499
H26   H     H_    0.184933 0.471882 0.693453 0.138998
H27   H     H_    0.167115 0.478887 0.823455 0.148555
O1    O     O_R   0.507430 0.255570 0.581420 -0.540702
O2    O     O_R   0.837200 0.593290 0.915250 -0.507098
O3    O     O_R   0.065330 0.635370 0.931590 -0.531071
O4    O     O_R   0.280190 0.527390 0.578910 -0.498999
O5    O     O_R   0.068300 0.828790 0.091860 -0.511583
O6    O     O_R   0.798730 0.057480 0.079370 -0.521007
O7    O     O_R   0.584680 0.080480 0.076790 -0.489729
O8    O     O_R   0.626790 0.809640 0.067050 -0.409952
O9    O     O_R   0.816010 0.596460 0.076500 -0.498930
O10   O     O_R   0.045680 0.638310 0.081070 -0.477464
O11   O     O_3   0.833590 0.833690 0.001120 -0.331716
O12   O     O_R   0.524460 0.695920 0.424060 -0.511984
O13   O     O_R   0.260310 0.739740 0.584580 -0.524165
O14   O     O_R   0.532250 0.695150 0.573830 -0.497617
O15   O     O_R   0.744930 0.503430 0.576380 -0.470237
O16   O     O_R   0.699250 0.276390 0.571950 -0.445622
O17   O     O_R   0.499020 0.256400 0.419850 -0.529461
O18   O     O_R   0.272400 0.528160 0.429140 -0.514428
O19   O     O_R   0.251910 0.740570 0.423020 -0.515418
O20   O     O_R   0.736530 0.504260 0.414810 -0.525208
O21   O     O_R   0.691460 0.277160 0.422180 -0.514225
O22   O     O_3   0.499990 0.499990 0.499980 -0.239838
O23   O     O_R   0.089490 0.825610 0.930610 -0.428076
O24   O     O_R   0.818370 0.054540 0.929880 -0.487374
O25   O     O_R   0.605870 0.077310 0.915530 -0.526857
O26   O     O_R   0.646440 0.806700 0.917570 -0.485576

loop_
_geom_bond_atom_site_label_1
_geom_bond_atom_site_label_2
_ccdc_geom_bond_type
Cr2   O22   S    
Cr5   O7    S    
Cr4   O24   S    
C27   C29   A    
C47   F4    S    
C45   H21   S    
C1    C11   S    
Cr4   O5    S    
C36   O26   A    
C24   H9    S    
C7    C8    A    
C13   H4    S    
C45   C46   S    
C27   C33   A    
C12   C23   S    
C49   H23   S    
Cr3   O16   S    
C44   H16   S    
C42   O21   A    
C18   C19   A    
C12   C47   S    
C30   C31   A    
C39   O9    A    
C28   O19   A    
C22   C38   S    
C4    O15   A    
C23   C43   S    
Cr3   O22   S    
C2    H24   S    
Cr5   O8    S    
C9    F1    S    
C5    C16   S    
C2    C50   A    
C16   O16   A    
C41   O5    A    
C31   C32   A    
Cr2   O13   S    
C8    C9    A    
C4    O14   A    
C38   O7    A    
Cr5   O25   S    
C30   C41   S    
C25   H10   S    
C9    C10   A    
C40   O20   A    
Cr1   O18   S    
C16   O1    A    
C23   C46   S    
C13   C14   A    
C3    H25   S    
Cr1   O1    S    
Cr4   O6    S    
Cr2   O12   S    
C5    C48   A    
C4    C34   S    
Cr6   O2    S    
C37   O3    A    
C43   H2    S    
Cr3   O15   S    
C34   C44   S    
C24   C25   A    
C10   C11   A    
C28   O18   A    
C6    C11   A    
C46   H17   S    
C13   C19   A    
C47   Cl1   S    
C25   C26   A    
C6    H26   S    
Cr3   O21   S    
C21   H8    S    
C31   F3    S    
C43   C44   S    
C40   O12   A    
C29   C30   A    
Cr2   O19   S    
C7    H27   S    
Cr1   O22   S    
Cr2   O14   S    
Cr6   O9    S    
C38   O6    A    
C35   C50   S    
C17   C18   A    
C14   H5    S    
C45   H18   S    
C34   C45   S    
C44   H13   S    
C15   C39   S    
C17   F2    S    
C48   C49   A    
C28   C33   S    
C23   C36   S    
C1    O4    A    
C22   C24   A    
Cr1   O4    S    
C8    C37   S    
C1    O13   A    
C26   C42   S    
Cr1   O17   S    
C36   O2    A    
C15   C17   A    
Cr6   O3    S    
Cr4   O23   S    
C14   C15   A    
C20   H7    S    
C10   H3    S    
C3    C5    A    
C32   H15   S    
C6    C7    A    
C29   H14   S    
C48   H22   S    
Cr3   O20   S    
C32   C33   A    
C2    C3    A    
C18   H6    S    
C20   C26   A    
Cr6   O10   S    
C12   H19   S    
C12   H20   S    
C35   O25   A    
C42   O17   A    
C39   O8    A    
C37   O23   A    
C19   C40   S    
C27   H11   S    
C20   C21   A    
C49   C50   A    
Cr4   O11   S    
Cr5   O26   S    
C41   O10   A    
C34   C47   S    
Cr5   O11   S    
C21   C22   A    
C46   H12   S    
C35   O24   A    
C43   H1    S    
Cr6   O11   S    
