data_mof_unit_67414.cif
_audit_creation_date              2013-03-05T15:39:48-0500
_audit_creation_method            fapswitch 2.2
_symmetry_space_group_name_H-M    P1
_symmetry_Int_Tables_number       1
_space_group_crystal_system       triclinic
_cell_length_a                    12.043077
_cell_length_b                    12.558856
_cell_length_c                    7.522425
_cell_angle_alpha                 89.060958
_cell_angle_beta                  108.462504
_cell_angle_gamma                 90.361601
_cell_volume                      1079.04201052

loop_
_atom_site_label
_atom_site_type_symbol
_atom_site_description
_atom_site_fract_x
_atom_site_fract_y
_atom_site_fract_z
_atom_type_partial_charge
O1    O     O_R   0.398880 0.887420 0.621600 -0.578311
O2    O     O_R   0.601120 0.112580 0.378400 -0.578312
O3    O     O_R   0.601120 0.887420 0.378400 -0.573595
O4    O     O_R   0.398880 0.112580 0.621600 -0.573539
O5    O     O_R   0.898880 0.387420 0.621600 -0.578296
O6    O     O_R   0.101120 0.612580 0.378400 -0.578345
O7    O     O_R   0.101120 0.387420 0.378400 -0.573553
O8    O     O_R   0.898880 0.612580 0.621600 -0.573577
O9    O     O_R   0.369080 0.887420 0.305440 -0.515462
O10   O     O_R   0.630920 0.112580 0.694560 -0.515464
O11   O     O_R   0.630920 0.887420 0.694560 -0.524805
O12   O     O_R   0.369080 0.112580 0.305440 -0.524845
O13   O     O_R   0.869080 0.387420 0.305440 -0.515472
O14   O     O_R   0.130920 0.612580 0.694560 -0.515449
O15   O     O_R   0.130920 0.387420 0.694560 -0.524798
O16   O     O_R   0.869080 0.612580 0.305440 -0.524820
C1    C     C_R   0.344346 0.856212 0.453647 0.829120
C2    C     C_R   0.655655 0.143786 0.546352 0.829100
C3    C     C_R   0.653351 0.853440 0.547399 0.829128
C4    C     C_R   0.346654 0.146564 0.452602 0.829190
C5    C     C_R   0.844344 0.356215 0.453648 0.829096
C6    C     C_R   0.155654 0.643788 0.546352 0.829085
C7    C     C_R   0.153357 0.353445 0.547400 0.829127
C8    C     C_R   0.846652 0.646562 0.452601 0.829160
Cu1   Cu    Cu3+1 0.517640 1.000000 0.687200 1.224713
Cu2   Cu    Cu3+1 0.482360 0.000000 0.312800 1.224686
Cu3   Cu    Cu3+1 0.017640 0.500000 0.687200 1.224714
Cu4   Cu    Cu3+1 0.982360 0.500000 0.312800 1.224696
C9    C     C_2   0.250386 0.218053 0.428358 0.076812
C10   C     C_2   0.749631 0.781962 0.571645 0.076751
C11   C     C_2   0.754501 0.211269 0.565419 0.082633
C12   C     C_2   0.245501 0.788727 0.434574 0.082621
C13   C     C_2   0.750378 0.718047 0.428356 0.076753
C14   C     C_2   0.249645 0.281974 0.571642 0.076750
C15   C     C_2   0.254500 0.711271 0.565425 0.082627
C16   C     C_2   0.745495 0.288735 0.434579 0.082658
N1    N     N_2   0.455760 0.000000 0.031460 0.021321
N2    N     N_2   0.544240 0.000000 0.968540 0.021327
N3    N     N_2   0.955760 0.500000 0.031460 0.021313
N4    N     N_2   0.044240 0.500000 0.968540 0.021338
N5    N     N_R   0.649267 0.704719 0.264576 0.141072
O17   O     O_R   0.549314 0.676585 0.283380 -0.245954
O18   O     O_R   0.660821 0.705623 0.098363 -0.198242
N6    N     N_R   0.350772 0.295326 0.735392 0.141076
O19   O     O_R   0.450726 0.323398 0.716542 -0.245991
O20   O     O_R   0.339238 0.294484 0.901623 -0.198210
N7    N     N_R   0.365264 0.679056 0.698750 0.142419
O21   O     O_R   0.457983 0.671500 0.646085 -0.280262
O22   O     O_R   0.368400 0.637559 0.859945 -0.176682
N8    N     N_R   0.634725 0.320968 0.301287 0.142462
O23   O     O_R   0.542014 0.328486 0.353962 -0.280267
O24   O     O_R   0.631585 0.362560 0.140162 -0.176732
N9    N     N_R   0.149276 0.204725 0.264584 0.141067
O25   O     O_R   0.049343 0.176538 0.283372 -0.245939
O26   O     O_R   0.160811 0.205714 0.098366 -0.198271
N10   N     N_R   0.850743 0.795293 0.735423 0.141076
O27   O     O_R   0.950704 0.823389 0.716619 -0.245984
O28   O     O_R   0.839185 0.794435 0.901632 -0.198232
N11   N     N_R   0.865267 0.179048 0.698735 0.142423
O29   O     O_R   0.957991 0.171521 0.646088 -0.280275
O30   O     O_R   0.868405 0.137542 0.859930 -0.176702
N12   N     N_R   0.134736 0.820939 0.301244 0.142418
O31   O     O_R   0.042018 0.828514 0.353936 -0.280253
O32   O     O_R   0.131608 0.862465 0.140075 -0.176724
N13   N     N_R   0.350945 0.962062 0.911861 0.259107
O33   O     O_R   0.322670 0.863169 0.928118 -0.245850
O34   O     O_R   0.268025 0.029508 0.831793 -0.267132
N14   N     N_R   0.649056 0.037952 0.088132 0.259098
O35   O     O_R   0.677276 0.136861 0.071964 -0.245930
O36   O     O_R   0.732029 0.970535 0.168049 -0.267014
N15   N     N_R   0.850936 0.462071 0.911853 0.259108
O37   O     O_R   0.822677 0.363172 0.928030 -0.245898
O38   O     O_R   0.767990 0.529508 0.831906 -0.267041
N16   N     N_R   0.149061 0.537933 0.088149 0.259100
O39   O     O_R   0.177359 0.636813 0.071866 -0.245843
O40   O     O_R   0.231984 0.470495 0.168158 -0.267071

loop_
_geom_bond_atom_site_label_1
_geom_bond_atom_site_label_2
_geom_bond_distance
_ccdc_geom_bond_type
O16   Cu4   1.958879 S    
O2    C2    1.291731 A    
N5    O17   1.301807 A    
C15   N7    1.447448 S    
O4    Cu1   1.960554 S    
N7    O22   1.301500 A    
C5    C16   1.427948 S    
N9    O25   1.301695 A    
C6    C15   1.427946 S    
O11   C3    1.298806 A    
N12   O31   1.302262 A    
N16   O40   1.300051 A    
O11   Cu1   1.958879 S    
O6    C6    1.291736 A    
N10   O27   1.301767 A    
C11   N11   1.447456 S    
N12   O32   1.301487 A    
O5    Cu3   1.959200 S    
O6    Cu4   1.959198 S    
N4    N16   1.384605 S    
N14   O35   1.299703 A    
N13   O34   1.300193 A    
N1    N13   1.384550 S    
N8    O24   1.301470 A    
O13   Cu4   1.947729 S    
O3    C3    1.293473 A    
O14   Cu3   1.947727 S    
O15   C7    1.298812 A    
N11   O29   1.302082 A    
O16   C8    1.298802 A    
O1    Cu1   1.959200 S    
N5    O18   1.300965 A    
N6    O20   1.301011 A    
O9    Cu2   1.947729 S    
C4    C9    1.434340 S    
N9    O26   1.300906 A    
N11   O30   1.301543 A    
N16   O39   1.299769 A    
C12   C15   1.352502 D    
C14   N6    1.443153 S    
N3    N4    1.295723 D    
N15   O38   1.300123 A    
Cu4   N3    2.037693 S    
Cu1   Cu2   2.711956 S    
C10   N10   1.443142 S    
C9    C14   1.356766 D    
O7    Cu4   1.960554 S    
O12   Cu2   1.958879 S    
N1    N2    1.295723 D    
Cu1   N2    2.037694 S    
O15   Cu3   1.958879 S    
N7    O21   1.302130 A    
Cu3   N4    2.037694 S    
C7    C14   1.434381 S    
O12   C4    1.298801 A    
N8    O23   1.302035 A    
O13   C5    1.296093 A    
O2    Cu2   1.959198 S    
O10   Cu1   1.947727 S    
O9    C1    1.296085 A    
N2    N14   1.384606 S    
C16   N8    1.447464 S    
N6    O19   1.301746 A    
O8    Cu3   1.960554 S    
C10   C13   1.356769 D    
O3    Cu2   1.960554 S    
Cu2   N1    2.037693 S    
O1    C1    1.291738 A    
C8    C13   1.434355 S    
C13   N5    1.443135 S    
O14   C6    1.296088 A    
C12   N12   1.447460 S    
N15   O37   1.299722 A    
C9    N9    1.443107 S    
O10   C2    1.296094 A    
O7    C7    1.293473 A    
O8    C8    1.293472 A    
N10   O28   1.300962 A    
O4    C4    1.293469 A    
O5    C5    1.291731 A    
N14   O36   1.300112 A    
N13   O33   1.299799 A    
Cu3   Cu4   2.711956 S    
C1    C12   1.427948 S    
N3    N15   1.384615 S    
C11   C16   1.352524 D    
C2    C11   1.427943 S    
C3    C10   1.434364 S    
