data_mof_unit_25979.cif
_audit_creation_date              2012-12-10T19:03:38-0500
_audit_creation_method            fapswitch 2.2
_symmetry_space_group_name_H-M    P1
_symmetry_Int_Tables_number       1
_space_group_crystal_system       triclinic
_cell_length_a                    15.878435
_cell_length_b                    10.810732
_cell_length_c                    9.588496
_cell_angle_alpha                 89.036679
_cell_angle_beta                  89.71929
_cell_angle_gamma                 91.479761
_cell_volume                      1645.13242289

loop_
_atom_site_label
_atom_site_type_symbol
_atom_type_description
_atom_site_fract_x
_atom_site_fract_y
_atom_site_fract_z
_atom_type_partial_charge
C1    C     C_R   0.499540 0.262664 0.500771 0.865169
C2    C     C_3   0.949936 0.418628 0.633787 0.276364
C3    C     C_3   0.916519 0.486999 0.499319 -0.014312
C4    C     C_3   0.952973 0.622673 0.496343 -0.452553
C5    C     C_3   0.050092 0.623997 0.483819 -0.387695
C6    C     C_1   0.824307 0.491598 0.499746 0.138023
C7    C     C_1   0.175260 0.495715 0.500577 -0.015178
C8    C     C_1   0.250776 0.498509 0.500502 -0.108760
C9    C     C_R   0.527038 0.061909 0.611345 0.232005
C10   C     C_R   0.492817 0.129588 0.502416 -0.144707
C11   C     C_R   0.447245 0.067622 0.398637 -0.254221
C12   C     C_R   0.340369 0.500397 0.500213 0.881877
C13   C     C_R   0.443928 0.937957 0.396123 0.384934
C14   C     C_R   0.489319 0.870760 0.498645 -0.228806
C15   C     C_R   0.525067 0.934925 0.609791 0.102369
C16   C     C_3   0.611478 0.927824 0.669959 -0.465126
C17   C     C_3   0.613918 0.068249 0.669948 -0.413758
C18   C     C_R   0.545460 0.587624 0.071154 0.317911
C19   C     C_R   0.449689 0.421418 0.079402 -0.086256
C20   C     C_R   0.449836 0.417253 0.931682 0.430940
C21   C     C_R   0.545191 0.588170 0.923987 0.195705
C22   C     C_3   0.638534 0.608623 0.918231 -0.460906
C23   C     C_R   0.496741 0.737385 0.498868 0.840390
C24   C     C_3   0.638397 0.609367 0.076248 -0.456291
C25   C     C_R   0.659588 0.499816 0.499719 0.784306
C26   C     C_3   0.047547 0.436975 0.642741 -0.247626
C27   C     C_3   0.049470 0.413700 0.376721 -0.429005
C28   C     C_3   0.950820 0.419724 0.364608 0.256222
C29   C     C_1   0.748958 0.496092 0.499493 -0.045043
C30   C     C_3   0.082928 0.491029 0.501226 0.111022
Cu1   Cu    Cu3+1 0.500000 0.499980 0.640670 1.033283
Cu2   Cu    Cu3+1 0.500000 0.500020 0.359330 1.026972
H1    H     H_    0.934197 0.319073 0.623960 0.188302
H2    H     H_    0.061914 0.507508 0.723243 0.175643
H3    H     H_    0.926609 0.676877 0.407883 0.190253
H4    H     H_    0.415654 0.120571 0.318560 0.195947
H5    H     H_    0.610267 0.886642 0.776796 0.217636
H6    H     H_    0.657675 0.887739 0.596976 0.200625
H7    H     H_    0.615388 0.107108 0.776492 0.242835
H8    H     H_    0.660825 0.110334 0.595508 0.211381
H9    H     H_    0.412847 0.355423 0.141595 0.193623
H10   H     H_    0.671745 0.528402 0.875344 0.264593
H11   H     H_    0.657267 0.699384 0.870410 0.197556
H12   H     H_    0.672208 0.530149 0.122960 0.255109
H13   H     H_    0.655526 0.701287 0.119623 0.209302
H14   H     H_    0.081330 0.446918 0.278896 0.160382
H15   H     H_    0.070102 0.317004 0.389604 0.270749
H16   H     H_    0.077718 0.685485 0.564596 0.220300
H17   H     H_    0.069641 0.663489 0.380300 0.209507
H18   H     H_    0.934478 0.672528 0.591032 0.269269
N1    N     N_R   0.500530 0.500930 0.147930 -0.223833
N2    N     N_R   0.500530 0.500890 0.852020 -0.250180
O1    O     O_R   0.500000 0.319640 0.618810 -0.499449
O2    O     O_R   0.500010 0.319680 0.381230 -0.603350
O3    O     O_R   0.379430 0.499990 0.618840 -0.557397
O4    O     O_R   0.379440 0.500030 0.381260 -0.550872
O5    O     O_R   0.499990 0.680320 0.618770 -0.582323
O6    O     O_R   0.500000 0.680360 0.381190 -0.526152
O7    O     O_R   0.620560 0.499970 0.618740 -0.581842
O8    O     O_R   0.620570 0.500010 0.381160 -0.579307
S1    S     S_3+6 0.900226 0.456965 0.797313 -0.016861
O9    O     O_2   0.810181 0.410633 0.797565 -0.303126
O10   O     O_2   0.945847 0.392885 0.913683 -0.278331
O11   O     O_3   0.903324 0.609956 0.825852 -0.552464
H19   H     H_    0.869424 0.620376 0.911662 0.393625
S2    S     S_3+6 0.382580 0.866440 0.264736 0.046306
O12   O     O_2   0.439640 0.817755 0.153999 -0.302096
O13   O     O_2   0.330860 0.760849 0.326822 -0.264149
O14   O     O_3   0.317037 0.968352 0.191334 -0.467419
H20   H     H_    0.349828 0.008571 0.114179 0.390312
C31   C     C_2   0.089881 0.320468 0.692981 0.408563
H21   H     H_    0.125694 0.322139 0.789068 0.106376
O15   O     O_2   0.084627 0.224542 0.627965 -0.473065
S3    S     S_3+6 0.395902 0.281134 0.870311 0.025587
O16   O     O_2   0.459613 0.181598 0.859745 -0.281244
O17   O     O_2   0.331600 0.237898 0.977459 -0.329918
O18   O     O_3   0.344913 0.291770 0.718091 -0.495568
H22   H     H_    0.287123 0.316568 0.742482 0.346640
S4    S     S_3+6 0.907587 0.263199 0.341235 0.040917
O19   O     O_2   0.943951 0.172228 0.443097 -0.225976
O20   O     O_2   0.813319 0.259475 0.357681 -0.299177
O21   O     O_3   0.932202 0.217072 0.179589 -0.454893
H23   H     H_    0.882219 0.234794 0.121908 0.403548
C32   C     C_2   0.928256 0.493111 0.233174 0.435081
H24   H     H_    0.975849 0.547444 0.176066 0.083112
O22   O     O_2   0.855533 0.496156 0.192459 -0.521336

loop_
_geom_bond_atom_site_label_1
_geom_bond_atom_site_label_2
_ccdc_geom_bond_type
C23   O6    A    
S2    O13   D    
C28   C32   S    
C18   C21   A    
C19   C20   A    
Cu2   O6    S    
Cu1   N2    S    
C3    C6    S    
C7    C8    T    
O18   H22   S    
S3    O17   D    
C18   C24   S    
C24   H13   S    
C3    C28   S    
C32   O22   D    
S2    O14   S    
C15   C16   S    
C17   H7    S    
Cu1   O7    S    
S1    O10   D    
C28   S4    S    
C1    O1    A    
C26   H2    S    
Cu1   Cu2   S    
C16   C17   S    
S3    O18   S    
C25   O8    A    
C9    C10   A    
C2    S1    S    
C16   H5    S    
S2    O12   D    
C4    H3    S    
C7    C30   S    
C13   C14   A    
C27   C30   S    
C26   C31   S    
C5    H17   S    
S1    O9    D    
Cu2   O2    S    
C18   N1    A    
C13   S2    S    
C25   C29   S    
C5    H16   S    
S3    O16   D    
C32   H24   S    
C31   O15   D    
C4    H18   S    
C17   H8    S    
C14   C23   S    
S1    O11   S    
C1    O2    A    
Cu2   N1    S    
C22   H11   S    
C8    C12   S    
C20   S3    S    
C2    C26   S    
Cu1   O1    S    
C12   O4    A    
C27   H14   S    
C9    C17   S    
C26   C30   S    
C24   H12   S    
C22   C24   S    
Cu2   O8    S    
C3    C4    S    
C2    H1    S    
S4    O20   D    
C5    C30   S    
C27   H15   S    
C23   O5    A    
C11   H4    S    
C1    C10   S    
C4    C5    S    
S4    O21   S    
O11   H19   S    
Cu1   O5    S    
C2    C3    S    
C9    C15   A    
C31   H21   S    
C20   N2    A    
C11   C13   A    
C22   H10   S    
O14   H20   S    
C12   O3    A    
C10   C11   A    
S4    O19   D    
C19   N1    A    
C6    C29   T    
O21   H23   S    
C27   C28   S    
C14   C15   A    
C25   O7    A    
Cu1   O3    S    
C21   C22   S    
Cu2   O4    S    
C21   N2    A    
C19   H9    S    
C16   H6    S    
