data_mof_unit_32140.cif
_audit_creation_date              2012-12-11T16:17:54-0500
_audit_creation_method            fapswitch 2.2
_symmetry_space_group_name_H-M    P1
_symmetry_Int_Tables_number       1
_space_group_crystal_system       triclinic
_cell_length_a                    14.034019
_cell_length_b                    14.038669
_cell_length_c                    30.089061
_cell_angle_alpha                 96.97001
_cell_angle_beta                  96.782634
_cell_angle_gamma                 61.332846
_cell_volume                      5150.79377886

loop_
_atom_site_label
_atom_site_type_symbol
_atom_type_description
_atom_site_fract_x
_atom_site_fract_y
_atom_site_fract_z
_atom_type_partial_charge
C1    C     C_R   0.386164 0.710666 0.442217 0.544910
C2    C     C_R   0.833072 0.257749 0.386347 0.028635
C3    C     C_R   0.864030 0.230170 0.341267 0.039234
C4    C     C_R   0.399179 0.381198 0.426385 0.551971
C5    C     C_R   0.831412 0.314644 0.312423 0.047038
C6    C     C_R   0.774994 0.423187 0.328444 -0.120958
C7    C     C_R   0.743618 0.450099 0.371941 -0.128274
C8    C     C_R   0.854294 0.381138 0.163049 -0.139343
C9    C     C_R   0.863010 0.386816 0.117826 0.030381
C10   C     C_R   0.868659 0.209346 0.101316 -0.009983
C11   C     C_R   0.863040 0.203152 0.147572 0.025242
C12   C     C_R   0.419930 0.306577 0.219046 -0.102372
C13   C     C_R   0.860378 0.288439 0.178303 0.016125
C14   C     C_1   0.855637 0.288364 0.225671 -0.016961
C15   C     C_1   0.848095 0.295418 0.265384 -0.024038
C16   C     C_R   0.711384 0.405069 0.442789 0.540859
C17   C     C_R   0.884391 0.294262 0.087523 0.002597
C18   C     C_R   0.365977 0.771030 0.402472 0.021509
C19   C     C_R   0.451339 0.781491 0.387190 -0.128782
C20   C     C_R   0.441840 0.815468 0.344552 -0.112635
C21   C     C_R   0.346678 0.840491 0.317171 0.040151
C22   C     C_R   0.258112 0.838872 0.333376 -0.115788
C23   C     C_R   0.436232 0.310107 0.266069 0.068461
C24   C     C_R   0.267536 0.804399 0.375961 -0.127418
C25   C     C_R   0.224763 0.899659 0.162361 -0.118779
C26   C     C_R   0.207597 0.916101 0.117047 -0.139701
C27   C     C_R   0.399429 0.864692 0.113519 0.043607
C28   C     C_R   0.389538 0.711536 0.568237 0.545092
C29   C     C_R   0.414816 0.850099 0.159753 -0.105026
C30   C     C_R   0.327026 0.870485 0.183993 0.010472
C31   C     C_1   0.339634 0.861854 0.231299 -0.016706
C32   C     C_1   0.344255 0.854374 0.270815 -0.019644
C33   C     C_R   0.292518 0.904300 0.092432 0.004149
C34   C     C_R   0.344085 0.349961 0.291823 0.009373
C35   C     C_R   0.370939 0.366125 0.594272 0.012919
C36   C     C_R   0.454942 0.320541 0.627776 -0.138338
C37   C     C_R   0.432662 0.319190 0.671445 0.054543
C38   C     C_R   0.323391 0.360071 0.681222 -0.009934
C39   C     C_R   0.239070 0.401224 0.647658 -0.122498
C40   C     C_R   0.402054 0.382956 0.552217 0.536828
C41   C     C_R   0.261545 0.406095 0.604029 -0.013907
C42   C     C_R   0.214052 0.413604 0.836215 -0.144240
C43   C     C_R   0.215883 0.403801 0.881931 0.026943
C44   C     C_R   0.392977 0.240551 0.877141 -0.007902
C45   C     C_R   0.315529 0.342506 0.198067 0.008447
C46   C     C_R   0.386577 0.247074 0.830328 0.030018
C47   C     C_R   0.295115 0.333795 0.810252 0.009279
C48   C     C_1   0.290555 0.349172 0.763857 0.006394
C49   C     C_1   0.298565 0.357134 0.725511 0.003624
C50   C     C_R   0.299874 0.309403 0.901542 -0.004027
C51   C     C_1   0.762107 0.376358 0.612420 -0.013100
C52   C     C_R   0.712989 0.407713 0.568504 0.537950
C53   C     C_R   0.925133 0.284372 0.715446 -0.083013
C54   C     C_R   0.948466 0.267824 0.761475 0.023766
C55   C     C_R   0.753913 0.352354 0.771171 -0.108688
C56   C     C_1   0.302438 0.326784 0.150261 -0.038499
C57   C     C_R   0.731867 0.368867 0.725502 -0.089696
C58   C     C_R   0.817173 0.335096 0.697604 0.025238
C59   C     C_R   0.861589 0.302380 0.789425 0.045686
C60   C     C_1   0.882422 0.291376 0.837080 -0.044544
C61   C     C_1   0.791965 0.355148 0.650845 -0.051822
C62   C     C_1   0.908010 0.281846 0.876559 -0.001187
C63   C     C_1   0.375888 0.756978 0.613690 -0.013258
C64   C     C_1   0.369371 0.365633 0.380154 0.028046
C65   C     C_R   0.367370 0.720733 0.727033 0.015077
C66   C     C_R   0.355893 0.743324 0.773463 -0.078646
C67   C     C_1   0.354211 0.356906 0.340055 -0.009677
C68   C     C_R   0.328882 0.925648 0.767963 -0.118273
C69   C     C_R   0.340029 0.904273 0.721809 -0.117796
C70   C     C_R   0.358503 0.802623 0.701092 0.054354
C71   C     C_R   0.336162 0.845561 0.793781 0.024937
C72   C     C_1   0.316664 0.871725 0.840630 -0.054855
C73   C     C_1   0.367183 0.782678 0.653246 -0.053468
C74   C     C_1   0.295018 0.901779 0.879074 -0.002902
C75   C     C_R   0.947134 0.274272 0.047443 0.550797
C76   C     C_R   0.239681 0.386583 0.270358 -0.134881
C77   C     C_R   0.275177 0.270323 0.065347 0.548907
C78   C     C_1   0.291168 0.305760 0.110733 0.009735
C79   C     C_R   0.260470 0.953876 0.048927 0.574272
C80   C     C_R   0.952500 0.269109 0.922067 0.546010
C81   C     C_R   0.278143 0.268467 0.940593 0.548311
C82   C     C_R   0.261795 0.950727 0.922931 0.560940
C83   C     C_R   0.225451 0.382622 0.223670 -0.105116
C84   C     C_3   0.861281 0.105531 0.163442 -0.374261
C85   C     C_3   0.855316 0.127062 0.067213 -0.361972
C86   C     C_3   0.929821 0.111959 0.324510 -0.408464
C87   C     C_2   0.496220 0.835663 0.088627 0.588332
C88   C     C_2   0.130795 0.495320 0.908187 0.596696
C89   C     C_R   0.767751 0.368951 0.400763 0.042206
C90   C     C_3   0.169075 0.452615 0.568718 -0.382119
C91   C     C_3   0.476568 0.160331 0.802505 -0.357882
C92   C     C_3   0.499114 0.161583 0.900475 -0.362173
C93   C     C_2   0.525654 0.277890 0.705905 0.536741
C94   C     C_3   0.065259 0.214986 0.780332 -0.396248
C95   C     C_3   0.387599 0.610332 0.705639 -0.391368
C96   C     C_2   0.550040 0.270248 0.286308 0.571306
C97   C     C_2   0.845659 0.491688 0.103288 0.604669
C98   C     C_3   0.870806 0.168935 0.418249 -0.380206
Cr1   Cr    Cr6+3 0.581000 0.584320 0.508140 1.024166
Cr2   Cr    Cr6+3 0.339110 0.576430 0.496080 1.017309
Cr3   Cr    Cr6+3 0.579910 0.339270 0.495810 1.039337
Cr4   Cr    Cr6+3 0.082090 0.079210 0.982490 1.023892
Cr5   Cr    Cr6+3 0.082460 0.324610 0.994920 1.104295
Cr6   Cr    Cr6+3 0.323630 0.087860 0.996130 1.064542
H1    H     H_    0.169088 0.417553 0.289802 0.117921
H2    H     H_    0.149185 0.484174 0.820614 0.158324
H3    H     H_    0.155710 0.431157 0.655781 0.119313
H4    H     H_    0.538619 0.292569 0.620593 0.170127
H5    H     H_    0.990679 0.258873 0.693621 0.108200
H6    H     H_    0.488662 0.274721 0.198424 0.163122
H7    H     H_    0.686882 0.379753 0.792358 0.146036
H8    H     H_    0.648066 0.408636 0.711933 0.136342
H9    H     H_    0.360744 0.682061 0.793680 0.122549
H10   H     H_    0.313007 0.005261 0.783444 0.109626
H11   H     H_    0.333158 0.967403 0.702202 0.111826
H12   H     H_    0.125257 0.945403 0.102117 0.137633
H13   H     H_    0.842588 0.449910 0.186807 0.147223
H14   H     H_    0.750773 0.487998 0.306473 0.118487
H15   H     H_    0.694272 0.535460 0.382161 0.131018
H16   H     H_    0.868180 0.104736 0.200478 0.142801
H17   H     H_    0.783886 0.104906 0.151087 0.154026
H18   H     H_    0.930867 0.029379 0.150606 0.119018
H19   H     H_    0.833140 0.156130 0.032947 0.148244
H20   H     H_    0.931286 0.048101 0.067237 0.143169
H21   H     H_    0.786912 0.114640 0.074983 0.126276
H22   H     H_    0.944708 0.101194 0.288435 0.128190
H23   H     H_    0.156920 0.913760 0.180931 0.117525
H24   H     H_    0.010587 0.075303 0.343391 0.129910
H25   H     H_    0.886065 0.066135 0.329189 0.136741
H26   H     H_    0.649290 0.814995 0.091045 0.344886
H27   H     H_    0.976611 0.617801 0.908932 0.343003
H28   H     H_    0.185389 0.394217 0.538627 0.129578
H29   H     H_    0.090715 0.468727 0.580997 0.122757
H30   H     H_    0.159492 0.530810 0.559204 0.157454
H31   H     H_    0.454012 0.161999 0.765955 0.155822
H32   H     H_    0.550712 0.170665 0.808795 0.167744
H33   H     H_    0.495864 0.078247 0.811479 0.116064
H34   H     H_    0.184048 0.858398 0.312178 0.109557
H35   H     H_    0.504668 0.187044 0.936665 0.158089
H36   H     H_    0.507590 0.078252 0.896236 0.151313
H37   H     H_    0.569458 0.160531 0.886610 0.122575
H38   H     H_    0.684642 0.174747 0.719647 0.341157
H39   H     H_    0.122865 0.192915 0.753890 0.118209
H40   H     H_    0.078544 0.271845 0.806155 0.149628
H41   H     H_    0.084191 0.139537 0.795910 0.139834
H42   H     H_    0.393165 0.555799 0.730788 0.156609
H43   H     H_    0.320041 0.619270 0.680326 0.146188
H44   H     H_    0.465240 0.570980 0.688845 0.131906
H45   H     H_    0.200340 0.797734 0.386937 0.129684
H46   H     H_    0.710647 0.184985 0.276663 0.340381
H47   H     H_    0.782930 0.599954 0.055801 0.346076
H48   H     H_    0.960007 0.115738 0.417529 0.116609
H49   H     H_    0.856409 0.201091 0.453662 0.136250
H50   H     H_    0.828550 0.119235 0.408341 0.149700
H51   H     H_    0.528086 0.756800 0.406905 0.126620
H52   H     H_    0.494878 0.822827 0.176969 0.161522
H53   H     H_    0.144470 0.408870 0.207524 0.138440
H54   H     H_    0.510668 0.816519 0.332091 0.115836
O1    O     O_R   0.688580 0.499770 0.460490 -0.525223
O2    O     O_R   0.346150 0.177650 0.050510 -0.505653
O3    O     O_R   0.314200 0.996600 0.036060 -0.461561
O4    O     O_R   0.480400 0.672610 0.462660 -0.503293
O5    O     O_R   0.168690 0.969990 0.933130 -0.499203
O6    O     O_R   0.991920 0.175870 0.937430 -0.502592
O7    O     O_R   0.974010 0.342590 0.941330 -0.483367
O8    O     O_R   0.182630 0.317940 0.955040 -0.463929
O9    O     O_R   0.347320 0.174720 0.953250 -0.526232
O10   O     O_R   0.315290 0.993890 0.945900 -0.485066
O11   O     O_3   0.162730 0.163890 0.991180 -0.269934
O12   O     O_R   0.348600 0.476260 0.536540 -0.501121
O13   O     O_R   0.315310 0.685650 0.451800 -0.514412
O14   O     O_R   0.346220 0.474990 0.446280 -0.502457
O15   O     O_R   0.492270 0.312460 0.441630 -0.484660
O16   O     O_R   0.669740 0.350480 0.455640 -0.482820
O17   O     O_R   0.691150 0.501150 0.557860 -0.505195
O18   O     O_R   0.482790 0.673890 0.552920 -0.491185
O19   O     O_R   0.317880 0.687030 0.549170 -0.508878
O20   O     O_2   0.497623 0.805945 0.048671 -0.497714
O21   O     O_R   0.587999 0.838061 0.111380 -0.694198
O22   O     O_2   0.152206 0.518891 0.947214 -0.500088
O23   O     O_R   0.494840 0.313840 0.539010 -0.515363
O24   O     O_R   0.027083 0.557220 0.887761 -0.703227
O25   O     O_2   0.514645 0.317651 0.744623 -0.557436
O26   O     O_R   0.627572 0.195553 0.693502 -0.708035
O27   O     O_2   0.568224 0.291489 0.325993 -0.512896
O28   O     O_R   0.637445 0.208554 0.259348 -0.716959
O29   O     O_2   0.875393 0.549355 0.128264 -0.523046
O30   O     O_R   0.791183 0.526670 0.061670 -0.657447
O31   O     O_R   0.672120 0.351750 0.545910 -0.499977
O32   O     O_3   0.500010 0.500010 0.500010 -0.244652
O33   O     O_R   0.167510 0.972920 0.030390 -0.521504
O34   O     O_R   0.990840 0.178580 0.027590 -0.514589
O35   O     O_R   0.972840 0.345510 0.038590 -0.466533
O36   O     O_R   0.181550 0.320660 0.045200 -0.481637

loop_
_geom_bond_atom_site_label_1
_geom_bond_atom_site_label_2
_ccdc_geom_bond_type
C97   O30   S    
H38   O26   S    
C98   H50   S    
C10   C85   S    
C8    C13   A    
C66   H9    S    
C55   C59   A    
Cr2   O14   S    
C19   H51   S    
C85   H21   S    
C35   C36   A    
C51   C61   T    
C91   H31   S    
C40   O12   A    
C39   C41   A    
C38   C49   S    
C98   H48   S    
C53   C54   A    
C27   C33   A    
C39   H3    S    
C12   C23   A    
C1    C18   S    
C29   C30   A    
C18   C24   A    
C43   C88   S    
C62   C80   S    
C36   C37   A    
Cr6   O2    S    
Cr3   O31   S    
C69   C70   A    
C5    C6    A    
C90   H30   S    
H27   O24   S    
C57   H8    S    
C27   C29   A    
C82   O5    A    
C10   C17   A    
C16   O16   A    
C65   C70   A    
C7    C89   A    
C11   C13   A    
C56   C78   T    
C23   C96   S    
C79   O33   A    
C85   H20   S    
C60   C62   T    
C18   C19   A    
H26   O21   S    
C16   O1    A    
C80   O6    A    
C91   H33   S    
Cr3   O15   S    
Cr1   O18   S    
C66   C71   A    
C45   C56   S    
C8    C9    A    
C47   C48   S    
Cr4   O34   S    
C81   O8    A    
Cr5   O36   S    
C2    C3    A    
C58   C61   S    
C28   O19   A    
C44   C92   S    
C52   O31   A    
C90   H28   S    
C94   H41   S    
C41   C90   S    
C98   H49   S    
C59   C60   S    
C20   H54   S    
C13   C14   S    
C3    C86   S    
Cr3   O16   S    
C45   C83   A    
C95   H42   S    
C79   O3    A    
Cr2   O19   S    
C76   C83   A    
C12   H6    S    
C44   C46   A    
C8    H13   S    
C88   O22   D    
C54   C59   A    
H47   O30   S    
C21   C32   S    
C54   C94   S    
C91   H32   S    
C86   H24   S    
C51   C52   S    
C64   C67   T    
C7    H15   S    
C95   H43   S    
C72   C74   T    
Cr3   O32   S    
C24   H45   S    
Cr6   O3    S    
C90   H29   S    
C28   O18   A    
C82   O10   A    
C46   C91   S    
C63   C73   T    
C84   H17   S    
C77   C78   S    
Cr2   O12   S    
C1    O13   A    
C2    C89   A    
C77   O36   A    
C37   C38   A    
C96   O28   S    
Cr6   O10   S    
Cr1   O4    S    
C26   C33   A    
C88   O24   S    
C31   C32   T    
C83   H53   S    
C65   C95   S    
C30   C31   S    
C84   H16   S    
C23   C34   A    
C70   C73   S    
Cr4   O33   S    
C81   O9    A    
C37   C93   S    
C86   H25   S    
C20   C21   A    
C27   C87   S    
C92   H37   S    
C42   H2    S    
C52   O17   A    
C29   H52   S    
C75   O35   A    
C9    C17   A    
C48   C49   T    
C1    O4    A    
Cr5   O7    S    
C4    O15   A    
C55   C57   A    
C22   C24   A    
Cr1   O1    S    
C42   C43   A    
C94   H39   S    
C92   H36   S    
C80   O7    A    
Cr3   O23   S    
Cr5   O11   S    
C40   O23   A    
C74   C82   S    
C44   C50   A    
C25   C30   A    
C97   O29   D    
C22   H34   S    
C46   C47   A    
C69   H11   S    
C9    C97   S    
C4    O14   A    
C55   H7    S    
C96   O27   D    
C68   C69   A    
Cr2   O32   S    
C95   H44   S    
C33   C79   S    
C12   C45   A    
C3    C5    A    
C34   C67   S    
H46   O28   S    
Cr1   O32   S    
C53   C58   A    
C43   C50   A    
C6    C7    A    
C11   C84   S    
C4    C64   S    
C94   H40   S    
C86   H22   S    
C19   C20   A    
C75   O34   A    
C25   C26   A    
C71   C72   S    
Cr6   O9    S    
C93   O25   D    
C57   C58   A    
C38   C39   A    
Cr4   O11   S    
C68   C71   A    
C93   O26   S    
C85   H19   S    
C42   C47   A    
C35   C40   S    
C25   H23   S    
Cr4   O5    S    
C35   C41   A    
C26   H12   S    
C5    C15   S    
C10   C11   A    
C77   O2    A    
C87   O21   S    
C28   C63   S    
C16   C89   S    
Cr1   O17   S    
C36   H4    S    
C2    C98   S    
Cr5   O8    S    
Cr4   O6    S    
C65   C66   A    
C34   C76   A    
C17   C75   S    
Cr2   O13   S    
C14   C15   T    
C53   H5    S    
Cr5   O35   S    
C21   C22   A    
C92   H35   S    
C84   H18   S    
C6    H14   S    
C76   H1    S    
C50   C81   S    
C68   H10   S    
Cr6   O11   S    
C87   O20   D    
