data_mof_unit_67802.cif
_audit_creation_date              2012-12-10T16:53:56-0500
_audit_creation_method            fapswitch 2.2
_symmetry_space_group_name_H-M    P1
_symmetry_Int_Tables_number       1
_space_group_crystal_system       triclinic
_cell_length_a                    7.812737
_cell_length_b                    8.596385
_cell_length_c                    10.652253
_cell_angle_alpha                 92.21283
_cell_angle_beta                  85.610349
_cell_angle_gamma                 93.964352
_cell_volume                      711.214327948

loop_
_atom_site_label
_atom_site_type_symbol
_atom_type_description
_atom_site_fract_x
_atom_site_fract_y
_atom_site_fract_z
_atom_type_partial_charge
C1    C     C_R   0.545213 0.794647 0.501399 1.010902
C2    C     C_3   0.313070 0.495680 0.937345 -0.435026
C3    C     C_3   0.304666 0.477585 0.080037 0.365462
C4    C     C_3   0.584024 0.350668 0.918529 -0.398490
C5    C     C_3   0.602855 0.645612 0.926776 -0.480129
C6    C     C_3   0.501343 0.497781 0.878438 0.121577
C7    C     C_3   0.227840 0.031121 0.701914 0.144641
C8    C     C_3   0.318288 0.936353 0.791669 -0.937766
C9    C     C_2   0.981786 0.298027 0.470649 1.133269
C10   C     C_3   0.049803 0.316665 0.101418 0.129958
C11   C     C_3   0.990819 0.146229 0.076392 -0.723685
C12   C     C_3   0.493025 0.495870 0.121478 0.011724
C13   C     C_2   0.519814 0.798403 0.127291 0.895220
C14   C     C_3   0.588302 0.354831 0.062482 -0.383145
C15   C     C_3   0.592237 0.649264 0.071967 -0.245017
C16   C     C_2   0.566372 0.958768 0.503683 -0.465977
C17   C     C_2   0.430371 0.045493 0.532511 0.328186
C18   C     C_R   0.501114 0.499057 0.741990 0.824818
C19   C     C_R   0.454474 0.206369 0.509213 0.835189
C20   C     C_R   0.497075 0.495635 0.258014 0.867263
H1    H     H_    0.237442 0.397249 0.892197 0.186356
H2    H     H_    0.531706 0.242533 0.100859 0.218322
H3    H     H_    0.740039 0.644950 0.889639 0.179046
H4    H     H_    0.552127 0.751365 0.890685 0.184270
H5    H     H_    0.086958 0.009530 0.722836 0.186658
H6    H     H_    0.257650 0.157907 0.721012 0.133826
H7    H     H_    0.459448 0.963240 0.779643 0.234526
H8    H     H_    0.273733 0.965720 0.890536 0.263681
H9    H     H_    0.288736 0.810232 0.772061 0.279948
H10   H     H_    0.071099 0.105819 0.381633 0.349342
H11   H     H_    0.008602 0.385531 0.024106 0.083977
H12   H     H_    0.726896 0.650817 0.100186 0.162040
H13   H     H_    0.983948 0.361706 0.189873 0.187212
H14   H     H_    0.044096 0.070135 0.143501 0.300722
H15   H     H_    0.848568 0.129869 0.086369 0.213961
H16   H     H_    0.035728 0.109818 0.979053 0.215379
H17   H     H_    0.561397 0.996570 0.231116 0.332175
H18   H     H_    0.717376 0.345032 0.874317 0.191298
H19   H     H_    0.723117 0.367447 0.086562 0.156663
H20   H     H_    0.693874 0.008530 0.473425 0.186650
H21   H     H_    0.002322 0.647864 0.561672 0.201257
H22   H     H_    0.253645 0.605251 0.917614 0.165903
H23   H     H_    0.226990 0.569983 0.127564 0.117244
H24   H     H_    0.508109 0.243736 0.887320 0.183317
N1    N     N_2   0.950330 0.457950 0.465890 -0.179732
N2    N     N_2   0.049670 0.542050 0.534110 -0.205049
O1    O     O_R   0.389250 0.738570 0.508370 -0.550780
O2    O     O_2   0.940945 0.228235 0.567477 -0.670291
O3    O     O_R   0.057795 0.219849 0.366114 -0.810931
O4    O     O_3   0.229826 0.327480 0.111496 -0.583157
O5    O     O_2   0.376000 0.832571 0.105266 -0.658466
O6    O     O_R   0.621136 0.899260 0.201550 -0.826528
O7    O     O_R   0.678390 0.711620 0.486510 -0.630121
O8    O     O_R   0.355430 0.513500 0.696140 -0.651006
O9    O     O_R   0.644580 0.486550 0.674270 -0.624261
O10   O     O_R   0.321610 0.288380 0.513490 -0.592840
O11   O     O_R   0.610750 0.261430 0.491630 -0.648451
O12   O     O_R   0.355420 0.513450 0.325730 -0.597027
O13   O     O_R   0.644570 0.486500 0.303860 -0.649018
O14   O     O_3   0.267706 0.983169 0.574827 -0.586552
Zn1   Zn    Zn3+2 0.306940 0.517990 0.514600 0.995629
Zn2   Zn    Zn3+2 0.693060 0.482010 0.485400 0.955835

loop_
_geom_bond_atom_site_label_1
_geom_bond_atom_site_label_2
_ccdc_geom_bond_type
C19   O10   A    
O1    Zn1   S    
H21   N2    S    
C9    N1    S    
O8    Zn1   S    
C13   O6    S    
O7    Zn2   S    
N1    Zn2   S    
C7    H5    S    
C12   C15   S    
C3    H23   S    
C12   C20   S    
C2    H1    S    
C11   H15   S    
C2    C3    S    
C12   C14   S    
C15   H12   S    
C1    C16   S    
N1    N2    D    
C19   O11   A    
C20   O13   A    
C7    H6    S    
C14   H2    S    
C2    C6    S    
C5    H4    S    
C18   O9    A    
C16   H20   S    
C8    H8    S    
C8    H9    S    
C11   H16   S    
C17   C19   S    
C3    O4    S    
C2    H22   S    
C17   O14   S    
C10   H13   S    
C13   C15   S    
C4    C14   S    
C5    C6    S    
C6    C18   S    
C5    C15   S    
C10   C11   S    
C18   O8    A    
N2    Zn1   S    
C20   O12   A    
C10   O4    S    
O9    Zn2   S    
O12   Zn1   S    
C7    O14   S    
C7    C8    S    
C9    O3    S    
C9    O2    D    
C4    C6    S    
H17   O6    S    
C8    H7    S    
C1    O7    A    
O10   Zn1   S    
C1    O1    A    
O13   Zn2   S    
C3    C12   S    
C4    H24   S    
O11   Zn2   S    
C14   H19   S    
C13   O5    D    
C10   H11   S    
H10   O3    S    
C11   H14   S    
C4    H18   S    
C16   C17   D    
C5    H3    S    
