data_mof_unit_48454.cif
_audit_creation_date              2012-10-26T20:03:22-0400
_audit_creation_method            fapswitch 2.2
_symmetry_space_group_name_H-M    P1
_symmetry_Int_Tables_number       1
_space_group_crystal_system       triclinic
_cell_length_a                    10.604835
_cell_length_b                    12.324902
_cell_length_c                    13.082924
_cell_angle_alpha                 116.276012
_cell_angle_beta                  77.886741
_cell_angle_gamma                 100.663885
_cell_volume                      1490.8515639

loop_
_atom_site_label
_atom_site_type_symbol
_atom_type_description
_atom_site_fract_x
_atom_site_fract_y
_atom_site_fract_z
_atom_type_partial_charge
C1    C     C_R   0.506880 0.855499 0.286642 0.583366
C2    C     C_R   0.490550 0.567898 0.008729 -0.002254
C3    C     C_R   0.452275 0.650322 0.124813 0.021919
C4    C     C_R   0.740199 0.999219 0.500277 0.551579
C5    C     C_R   0.457562 0.440870 0.978492 0.001498
C6    C     C_R   0.409316 0.399738 0.065766 -0.039242
C7    C     C_R   0.359659 0.481242 0.174661 -0.131601
C8    C     C_R   0.366910 0.604608 0.199494 0.254333
C9    C     C_R   0.468033 0.353158 0.864790 -0.157145
C10   C     C_R   0.431028 0.189710 0.926999 0.258961
C11   C     C_R   0.503526 0.774853 0.163289 -0.002012
C12   C     C_3   0.020166 0.017730 0.605611 -0.129391
C13   C     C_R   0.709159 0.347659 0.330253 -0.159530
C14   C     C_R   0.317385 0.754972 0.638066 0.045267
C15   C     C_R   0.276166 0.656607 0.666623 -0.179157
C16   C     C_R   0.480968 0.145139 0.714249 0.545035
C17   C     C_R   0.345949 0.555621 0.615818 -0.127365
C18   C     C_R   0.456900 0.550693 0.533338 -0.002999
C19   C     C_R   0.494876 0.653641 0.506269 0.185756
C20   C     C_R   0.529902 0.447035 0.475148 -0.010325
C21   C     C_R   0.636584 0.447503 0.389427 0.020056
C22   C     C_R   0.670723 0.547659 0.363228 -0.163013
C23   C     C_3   0.937355 0.910360 0.524763 0.287951
C24   C     C_R   0.602160 0.648545 0.420820 -0.054398
C25   C     C_R   0.502026 0.341898 0.497498 0.053428
C26   C     C_R   0.676465 0.247296 0.356042 0.037830
C27   C     C_R   0.259881 0.001015 0.500064 0.561860
C28   C     C_3   0.980843 0.983907 0.395804 -0.165668
C29   C     C_3   0.041482 0.893708 0.419484 -0.117898
C30   C     C_3   0.123587 0.002448 0.499817 0.007670
C31   C     C_3   0.065717 0.092467 0.475428 -0.129594
C32   C     C_3   0.959487 0.106869 0.580472 -0.152607
C33   C     C_3   0.747359 0.526817 0.817997 -0.025145
C34   C     C_3   0.876797 0.998180 0.500809 0.063640
C35   C     C_3   0.790145 0.420185 0.705983 -0.362290
C36   C     C_3   0.944361 0.764131 0.587100 -0.013729
C37   C     C_3   0.877433 0.644233 0.587507 -0.372507
C38   C     C_3   0.317582 0.012916 0.929595 -0.005871
C39   C     C_3   0.335811 0.896813 0.936421 -0.359981
C40   C     C_R   0.402950 0.276260 0.041009 -0.119800
C41   C     C_R   0.460864 0.228904 0.837505 -0.012425
C42   C     C_R   0.567906 0.819713 0.082599 -0.215331
C43   C     C_R   0.596733 0.741509 0.967798 -0.130648
C44   C     C_R   0.567657 0.616015 0.931245 0.266007
Cu1   Cu    Cu3+1 0.529830 0.098270 0.475420 0.910096
Cu2   Cu    Cu3+1 0.470170 0.901730 0.524580 0.979603
H1    H     H_    0.076738 0.806280 0.354188 0.148418
H2    H     H_    0.961730 0.970553 0.310536 0.105990
H3    H     H_    0.309565 0.482066 0.641061 0.098846
H4    H     H_    0.189695 0.658650 0.728271 0.090480
H5    H     H_    0.636239 0.720030 0.394057 0.181776
H6    H     H_    0.121887 0.167751 0.455189 0.124202
H7    H     H_    0.923033 0.193611 0.646054 0.107362
H8    H     H_    0.039831 0.032225 0.691064 0.086085
H9    H     H_    0.307325 0.447812 0.237445 0.090497
H10   H     H_    0.377533 0.247598 0.110664 0.111986
H11   H     H_    0.757798 0.506345 0.890655 0.129734
H12   H     H_    0.474284 0.379990 0.795979 0.202322
H13   H     H_    0.812305 0.610192 0.822122 0.124225
H14   H     H_    0.770221 0.430910 0.631138 0.174491
H15   H     H_    0.895681 0.415456 0.697027 0.078770
H16   H     H_    0.736773 0.333864 0.706189 0.175632
H17   H     H_    0.232773 0.632662 0.333433 0.308583
H18   H     H_    0.960605 0.827265 0.676729 0.122162
H19   H     H_    0.039830 0.745980 0.530680 0.134206
H20   H     H_    0.867831 0.576466 0.498084 0.157497
H21   H     H_    0.936556 0.609144 0.624747 0.081706
H22   H     H_    0.779717 0.657196 0.639817 0.190125
H23   H     H_    0.603347 0.915081 0.109110 0.142343
H24   H     H_    0.258958 0.989898 0.860272 0.120843
H25   H     H_    0.261817 0.069623 0.013135 0.103450
H26   H     H_    0.381756 0.920049 0.013404 0.160243
H27   H     H_    0.240334 0.843562 0.943489 0.085009
H28   H     H_    0.399211 0.840474 0.858513 0.186010
H29   H     H_    0.651183 0.777793 0.907842 0.138022
H30   H     H_    0.732106 0.169903 0.310721 0.120248
H31   H     H_    0.752289 0.548563 0.297737 0.111432
H32   H     H_    0.790847 0.347391 0.264585 0.091048
H33   H     H_    0.423484 0.334057 0.561829 0.118842
H34   H     H_    0.261571 0.832033 0.676696 0.110890
N1    N     N_R   0.575030 0.246270 0.438190 -0.234932
N2    N     N_R   0.425760 0.754330 0.561190 -0.225971
O1    O     O_R   0.537510 0.972500 0.318130 -0.515979
O2    O     O_3   0.286148 0.679561 0.291534 -0.692273
O3    O     O_3   0.864814 0.813406 0.547770 -0.542657
O4    O     O_3   0.440705 0.070435 0.904427 -0.534193
O5    O     O_R   0.487140 0.806530 0.359650 -0.477156
O6    O     O_R   0.708330 0.082950 0.479220 -0.519764
O7    O     O_R   0.657960 0.916980 0.520740 -0.482381
O8    O     O_R   0.512860 0.193470 0.640350 -0.529162
O9    O     O_R   0.462490 0.027500 0.681870 -0.455113
O10   O     O_R   0.342040 0.083020 0.479260 -0.510301
O11   O     O_R   0.291670 0.917050 0.520780 -0.505009
O12   O     O_3   0.618169 0.542677 0.820078 -0.582515

loop_
_geom_bond_atom_site_label_1
_geom_bond_atom_site_label_2
_ccdc_geom_bond_type
C1    O5    A    
C38   H24   S    
C16   O8    A    
C4    O7    A    
C1    C11   S    
C7    H9    S    
C31   H6    S    
C33   O12   S    
C7    C8    A    
Cu2   O7    S    
Cu1   Cu2   S    
C12   C23   S    
C28   C29   S    
C38   O4    S    
C23   C29   S    
C36   C37   S    
C18   C19   A    
C38   C39   S    
C39   H28   S    
C20   C25   A    
C37   H22   S    
C11   C42   A    
C10   C40   A    
C9    H12   S    
C15   H4    S    
Cu1   O10   S    
Cu2   N2    S    
C10   O4    S    
C2    C44   A    
C40   H10   S    
C26   H30   S    
C39   H26   S    
C14   H34   S    
C19   N2    A    
C18   C20   A    
C24   H5    S    
C28   C34   S    
C33   H13   S    
C25   H33   S    
C21   C22   A    
C12   C32   S    
C27   C30   S    
C25   N1    A    
Cu1   O1    S    
C43   H29   S    
C4    C34   S    
Cu1   O6    S    
C3    C11   A    
C3    C8    A    
C17   H3    S    
C36   H19   S    
Cu2   O9    S    
C42   H23   S    
C35   H14   S    
C32   C34   S    
C43   C44   A    
C5    C9    A    
C29   C30   S    
C31   C32   S    
C30   C31   S    
C23   C34   S    
C37   H20   S    
C17   C18   A    
C13   C21   A    
C27   O10   A    
C35   H15   S    
Cu1   O8    S    
C29   H1    S    
C26   N1    A    
C6    C40   A    
C13   C26   A    
C27   O11   A    
C2    C5    A    
C42   C43   A    
C14   N2    A    
C32   H7    S    
Cu2   O5    S    
C15   C17   A    
C38   H25   S    
C28   H2    S    
C33   H11   S    
C12   C30   S    
C8    O2    S    
C28   C31   S    
Cu1   N1    S    
C22   H31   S    
C6    C7    A    
C4    O6    A    
C36   O3    S    
C1    O1    A    
C9    C41   A    
H17   O2    S    
C2    C3    A    
C5    C6    A    
Cu2   O11   S    
C37   H21   S    
C33   C35   S    
C19   C24   A    
C35   H16   S    
C22   C24   A    
C39   H27   S    
C44   O12   S    
C13   H32   S    
C20   C21   A    
C16   O9    A    
C23   O3    S    
C14   C15   A    
C36   H18   S    
C16   C41   S    
C12   H8    S    
C10   C41   A    
