data_mof_unit_28261.cif
_audit_creation_date              2013-03-05T15:42:15-0500
_audit_creation_method            fapswitch 2.2
_symmetry_space_group_name_H-M    P1
_symmetry_Int_Tables_number       1
_space_group_crystal_system       triclinic
_cell_length_a                    11.555317
_cell_length_b                    11.556172
_cell_length_c                    19.45335
_cell_angle_alpha                 90.595948
_cell_angle_beta                  90.020097
_cell_angle_gamma                 60.004486
_cell_volume                      2249.6254823

loop_
_atom_site_label
_atom_site_type_symbol
_atom_site_description
_atom_site_fract_x
_atom_site_fract_y
_atom_site_fract_z
_atom_type_partial_charge
O1    O     O_R   0.267740 0.231960 0.575440 -0.478482
O2    O     O_R   0.527280 0.186640 0.570530 -0.484895
C1    C     C_R   0.640721 0.117749 0.598946 0.565149
O3    O     O_R   0.728090 0.003450 0.576380 -0.483117
O4    O     O_R   0.682970 0.789190 0.570490 -0.483027
C2    C     C_R   0.612753 0.745421 0.598338 0.567305
O5    O     O_R   0.499290 0.771880 0.575530 -0.483006
O6    O     O_R   0.285330 0.030870 0.569730 -0.487722
C3    C     C_R   0.240217 0.145691 0.597844 0.568176
O7    O     O_R   0.270980 0.227080 0.423890 -0.493372
O8    O     O_R   0.530280 0.182120 0.430050 -0.491784
C4    C     C_R   0.646339 0.114315 0.402845 0.592941
O9    O     O_R   0.731330 0.998570 0.424830 -0.476685
O10   O     O_R   0.685970 0.784660 0.430010 -0.492095
C5    C     C_R   0.620481 0.732673 0.404175 0.593156
O11   O     O_R   0.502530 0.767000 0.423990 -0.484602
O12   O     O_R   0.288330 0.026350 0.429250 -0.485619
C6    C     C_R   0.238015 0.142884 0.403064 0.584681
Cr1   Cr    Cr6+3 0.404720 0.198220 0.499960 1.127056
Cr2   Cr    Cr6+3 0.698290 0.897110 0.500380 1.131005
Cr3   Cr    Cr6+3 0.396970 0.904720 0.499610 1.131510
O13   O     O_3   0.499990 0.000020 0.499980 -0.311209
C7    C     C_1   0.670225 0.647058 0.860347 0.013889
C8    C     C_1   0.655193 0.683183 0.728301 -0.023380
C9    C     C_1   0.663552 0.666894 0.799733 -0.026115
C10   C     C_1   0.641691 0.703100 0.667700 0.022134
C11   C     C_1   0.127417 0.198173 0.859504 0.009792
C12   C     C_1   0.170740 0.170510 0.727545 -0.023248
C13   C     C_1   0.150355 0.181875 0.798945 -0.026226
C14   C     C_1   0.194141 0.161520 0.667034 0.021364
C15   C     C_1   0.678236 0.190665 0.861053 0.011928
C16   C     C_1   0.658479 0.167693 0.728949 -0.023082
C17   C     C_1   0.665335 0.180707 0.800430 -0.026102
C18   C     C_1   0.653152 0.150356 0.668360 0.020272
H1    H     H_    0.838992 0.684278 0.328727 0.160427
C19   C     C_R   0.658976 0.671921 0.194800 0.022514
C20   C     C_R   0.549264 0.683224 0.232450 -0.011591
C21   C     C_R   0.569653 0.643149 0.301028 0.016929
C22   C     C_R   0.765160 0.669728 0.301936 -0.144465
C23   C     C_R   0.767881 0.664298 0.230611 -0.135352
C24   C     C_R   0.423673 0.724568 0.202830 -0.096612
C25   C     C_R   0.330574 0.703274 0.236759 -0.193651
C26   C     C_R   0.362413 0.637957 0.299763 -0.120996
C27   C     C_R   0.483065 0.604581 0.332150 0.241448
C28   C     C_R   0.663330 0.663110 0.337896 0.055499
H2    H     H_    0.398164 0.771550 0.152967 0.144513
H3    H     H_    0.854530 0.653657 0.203631 0.170708
H4    H     H_    0.236352 0.732983 0.212115 0.110685
H5    H     H_    0.293498 0.613681 0.323963 0.145844
H6    H     H_    0.201387 0.971877 0.318930 0.173348
C29   C     C_R   0.144361 0.198060 0.194337 -0.001431
C30   C     C_R   0.150038 0.295793 0.236012 -0.006014
C31   C     C_R   0.126609 0.297006 0.306851 0.026156
C32   C     C_R   0.175103 0.067419 0.296703 -0.126469
C33   C     C_R   0.156052 0.083598 0.225859 -0.153598
C34   C     C_R   0.178991 0.391592 0.209910 -0.098628
C35   C     C_R   0.163949 0.496621 0.251358 -0.199811
C36   C     C_R   0.111373 0.513331 0.317473 -0.126793
C37   C     C_R   0.086520 0.416646 0.345143 0.239487
C38   C     C_R   0.164422 0.173062 0.337774 0.057055
H7    H     H_    0.218068 0.383313 0.158440 0.150909
H8    H     H_    0.152877 0.005951 0.195685 0.138344
H9    H     H_    0.189238 0.566927 0.230774 0.104883
H10   H     H_    0.090629 0.600711 0.347518 0.160078
H11   H     H_    0.476984 0.339300 0.331700 0.175932
C39   C     C_R   0.663141 0.178034 0.191222 0.024300
C40   C     C_R   0.753350 0.056937 0.223481 0.006616
C41   C     C_R   0.777191 0.062045 0.293949 -0.021060
C42   C     C_R   0.562338 0.265857 0.302459 -0.124142
C43   C     C_R   0.565086 0.282122 0.231605 -0.167547
C44   C     C_R   0.830011 0.935113 0.187271 0.254350
C45   C     C_R   0.947262 0.835519 0.216108 -0.160295
C46   C     C_R   0.987250 0.855197 0.280671 -0.180013
C47   C     C_R   0.904117 0.968317 0.320381 0.226945
C48   C     C_R   0.669100 0.155298 0.334840 0.055551
H12   H     H_    0.491816 0.375303 0.208688 0.141397
H13   H     H_    0.009067 0.745180 0.186956 0.139301
H14   H     H_    0.082809 0.782487 0.300241 0.134536
O14   O     O_R   0.821500 0.119340 0.952830 -0.481419
O15   O     O_R   0.037130 0.162530 0.957360 -0.497715
C49   C     C_R   0.082369 0.230757 0.928858 0.542480
O16   O     O_R   0.056440 0.344740 0.951340 -0.503667
O17   O     O_R   0.797900 0.560360 0.957470 -0.480869
C50   C     C_R   0.683658 0.604903 0.929742 0.556349
O18   O     O_R   0.596130 0.579390 0.952730 -0.508176
O19   O     O_R   0.639060 0.321160 0.958670 -0.498685
C51   C     C_R   0.708063 0.206287 0.930420 0.560895
O20   O     O_R   0.821240 0.124200 0.104370 -0.465264
O21   O     O_R   0.036890 0.167040 0.097840 -0.502448
C52   C     C_R   0.085444 0.234856 0.125186 0.541157
O22   O     O_R   0.056180 0.349610 0.102880 -0.520223
O23   O     O_R   0.797660 0.564870 0.097950 -0.474534
C53   C     C_R   0.681152 0.614928 0.125319 0.574395
O24   O     O_R   0.595880 0.584250 0.104270 -0.525196
O25   O     O_R   0.638830 0.325670 0.099150 -0.508544
C54   C     C_R   0.704624 0.208701 0.125378 0.590059
Cr4   Cr    Cr6+3 0.926180 0.151990 0.028120 1.069110
Cr5   Cr    Cr6+3 0.921330 0.451820 0.027470 1.066523
Cr6   Cr    Cr6+3 0.626260 0.446870 0.028710 1.036404
O26   O     O_3   0.824590 0.350230 0.028100 -0.268910
N1    N     N_R   0.019994 0.440588 0.410813 0.079065
O27   O     O_R   0.012210 0.533442 0.452231 -0.320599
O28   O     O_R   0.955654 0.378769 0.426657 -0.272734
Cl1   Cl    Cl    0.776876 0.900344 0.108511 -0.618808
N2    N     N_R   0.954215 0.992919 0.383462 0.087911
O29   O     O_R   0.052490 0.894900 0.415716 -0.329536
O30   O     O_R   0.911090 0.114655 0.405280 -0.279455
N3    N     N_R   0.517851 0.530423 0.395243 0.073745
O31   O     O_R   0.425785 0.529593 0.433430 -0.326014
O32   O     O_R   0.642546 0.455294 0.412237 -0.281175

loop_
_geom_bond_atom_site_label_1
_geom_bond_atom_site_label_2
_geom_bond_distance
_ccdc_geom_bond_type
C23   H3    1.081219 S    
C44   Cl1   1.766096 S    
O20   C54   1.269967 A    
C53   O24   1.268957 A    
O15   Cr4   1.927223 S    
C11   C13   1.199685 T    
C24   C25   1.386398 A    
O25   C54   1.285306 A    
O14   C51   1.268720 A    
C49   O16   1.268688 A    
C31   C37   1.421070 A    
O23   Cr5   1.930334 S    
O4    Cr2   1.924360 S    
C32   C38   1.404680 A    
C34   C35   1.386464 A    
C41   C48   1.411095 A    
N2    O30   1.301671 A    
O8    Cr1   1.927550 S    
N1    O27   1.301635 A    
C19   C20   1.412025 A    
C8    C10   1.198631 T    
C29   C52   1.475043 S    
O4    C2    1.274366 A    
O25   Cr6   1.922726 S    
C41   C47   1.418223 A    
C5    O11   1.272869 A    
C33   H8    1.083049 S    
N3    O31   1.301777 A    
C46   C47   1.397263 A    
C21   C28   1.408908 A    
C45   H13   1.078898 S    
C19   C53   1.462642 S    
O17   C50   1.274533 A    
O6    C3    1.274756 A    
O17   Cr5   1.925432 S    
C46   H14   1.071878 S    
C15   C17   1.200196 T    
C29   C33   1.407851 A    
O20   Cr4   2.043122 S    
C22   C28   1.404075 A    
C39   C40   1.413524 A    
N1    O28   1.301500 A    
Cr3   O13   1.985125 S    
O16   Cr5   2.047890 S    
C31   C38   1.412914 A    
C35   H9    1.072415 S    
C27   N3    1.442056 S    
C36   H10   1.079137 S    
O1    Cr1   2.045994 S    
C15   C51   1.424480 S    
C7    C50   1.421881 S    
C29   C30   1.411431 A    
C37   N1    1.442278 S    
O10   Cr2   1.931517 S    
C19   C23   1.402342 A    
Cr1   O13   1.984159 S    
O1    C3    1.269311 A    
C8    C9    1.401032 S    
C45   C46   1.393332 A    
C22   C23   1.387929 A    
O19   C51   1.275470 A    
C26   H5    1.077431 S    
C25   H4    1.078156 S    
C1    C18   1.424570 S    
C36   C37   1.397873 A    
O5    Cr3   2.041299 S    
O12   Cr3   1.923430 S    
C40   C41   1.404598 A    
O21   Cr4   1.929428 S    
C16   C18   1.200226 T    
H1    C22   1.081227 S    
C26   C27   1.398646 A    
C21   C27   1.420631 A    
C20   C21   1.397599 A    
O18   Cr6   2.040776 S    
Cr6   O26   1.984999 S    
C11   C49   1.423715 S    
O7    Cr1   2.045161 S    
C24   H2    1.083188 S    
O12   C6    1.281520 A    
C2    C10   1.421820 S    
H6    C32   1.082946 S    
C50   O18   1.269286 A    
O19   Cr6   1.932061 S    
C3    C14   1.423583 S    
C6    C38   1.473063 S    
Cr2   O13   1.985059 S    
Cr5   O26   1.985073 S    
C43   H12   1.083178 S    
C25   C26   1.395910 A    
C5    C28   1.461073 S    
C52   O22   1.274646 A    
C1    O3    1.269467 A    
Cr4   O26   1.984273 S    
C30   C31   1.403051 A    
C39   C54   1.475052 S    
C32   C33   1.395264 A    
C12   C13   1.402672 S    
O9    Cr2   2.040670 S    
O2    Cr1   1.929041 S    
C34   H7    1.081996 S    
O14   Cr4   2.047997 S    
O15   C49   1.274263 A    
O6    Cr3   1.931214 S    
O8    C4    1.278191 A    
O11   Cr3   2.048493 S    
C2    O5    1.269222 A    
N2    O29   1.301719 A    
C16   C17   1.403555 S    
C12   C14   1.199652 T    
O2    C1    1.273935 A    
C44   C45   1.388798 A    
C47   N2    1.441744 S    
C35   C36   1.392369 A    
C39   C43   1.402159 A    
O24   Cr6   2.049104 S    
O7    C6    1.272077 A    
H11   C42   1.081686 S    
O23   C53   1.282961 A    
N3    O32   1.301559 A    
C42   C48   1.411152 A    
C40   C44   1.412707 A    
C7    C9    1.198645 T    
O22   Cr5   2.041915 S    
C20   C24   1.406499 A    
C42   C43   1.395562 A    
O3    Cr2   2.049271 S    
C4    O9    1.278546 A    
C4    C48   1.476963 S    
O10   C5    1.278351 A    
O21   C52   1.281679 A    
C30   C34   1.406242 A    
