data_mof_unit_18801.cif
_audit_creation_date              2012-10-26T20:04:59-0400
_audit_creation_method            fapswitch 2.2
_symmetry_space_group_name_H-M    P1
_symmetry_Int_Tables_number       1
_space_group_crystal_system       triclinic
_cell_length_a                    15.847012
_cell_length_b                    14.995769
_cell_length_c                    13.875987
_cell_angle_alpha                 91.26296
_cell_angle_beta                  91.01536
_cell_angle_gamma                 88.302495
_cell_volume                      3294.73518174

loop_
_atom_site_label
_atom_site_type_symbol
_atom_type_description
_atom_site_fract_x
_atom_site_fract_y
_atom_site_fract_z
_atom_type_partial_charge
C1    C     C_R   0.499495 0.329335 0.498993 0.610921
C2    C     C_R   0.496144 0.047011 0.482316 -0.133079
C3    C     C_R   0.420347 0.908353 0.497550 -0.015845
C4    C     C_R   0.572764 0.091422 0.469322 -0.036456
C5    C     C_R   0.647841 0.948205 0.448317 0.296809
C6    C     C_R   0.343379 0.051120 0.507346 0.283357
C7    C     C_R   0.646402 0.041402 0.443700 0.293361
C8    C     C_R   0.343279 0.958039 0.499473 0.276244
C9    C     C_R   0.559697 0.450149 0.793911 0.403119
C10   C     C_R   0.456988 0.567358 0.206586 0.382392
C11   C     C_R   0.443541 0.552941 0.794059 0.363227
C12   C     C_R   0.499637 0.670823 0.500770 0.599856
C13   C     C_R   0.538313 0.431030 0.204630 0.378064
C14   C     C_R   0.451702 0.563481 0.896526 -0.082137
C15   C     C_R   0.548343 0.435372 0.102128 -0.068106
C16   C     C_R   0.340087 0.500066 0.499305 0.541090
C17   C     C_R   0.659919 0.499759 0.500753 0.567413
C18   C     C_R   0.502180 0.501383 0.948213 -0.098265
C19   C     C_R   0.501439 0.501179 0.051258 -0.095941
C20   C     C_R   0.554814 0.441108 0.896169 -0.000903
C21   C     C_R   0.453142 0.566434 0.103088 -0.003049
C22   C     C_R   0.410624 0.633452 0.948254 -0.013972
C23   C     C_R   0.499495 0.767464 0.501371 0.007593
C24   C     C_R   0.601538 0.374194 0.048950 -0.014288
C25   C     C_R   0.405309 0.631296 0.049568 0.277165
C26   C     C_R   0.604480 0.376695 0.946646 0.257108
C27   C     C_3   0.974968 0.420646 0.533527 -0.131962
C28   C     C_3   0.025051 0.579722 0.467989 -0.136417
C29   C     C_3   0.028185 0.434384 0.442726 0.000781
C30   C     C_3   0.971813 0.565975 0.558782 -0.003180
C31   C     C_1   0.250538 0.500402 0.497949 -0.032269
C32   C     C_1   0.749472 0.499659 0.502383 -0.006548
C33   C     C_3   0.030767 0.488043 0.589527 -0.000751
C34   C     C_R   0.498044 0.233007 0.495472 -0.003750
C35   C     C_3   0.969282 0.512327 0.411992 -0.000708
C36   C     C_3   0.083452 0.500567 0.499186 0.001896
C37   C     C_3   0.916578 0.499786 0.502291 0.002403
C38   C     C_1   0.175059 0.500594 0.497994 -0.055476
C39   C     C_1   0.824959 0.499644 0.502935 -0.044737
C40   C     C_R   0.422744 0.815201 0.508950 0.208857
C41   C     C_R   0.573979 0.184649 0.483692 0.204301
C42   C     C_1   0.059748 0.362224 0.378598 0.202885
C43   C     C_1   0.939888 0.638030 0.622812 0.195123
C44   C     C_1   0.379927 0.713197 0.900045 0.265074
C45   C     C_R   0.575273 0.810305 0.486716 0.222774
C46   C     C_1   0.656217 0.309915 0.097978 0.262892
C47   C     C_3   0.268403 0.672360 0.078651 -0.130145
C48   C     C_3   0.732269 0.305044 0.907335 -0.091557
C49   C     C_1   0.934598 0.525463 0.314378 0.214421
C50   C     C_1   0.065533 0.474979 0.687119 0.193448
C51   C     C_3   0.336603 0.771087 0.626329 -0.038773
C52   C     C_3   0.682631 0.230573 0.579456 -0.059000
C53   C     C_3   0.685346 0.751238 0.573499 -0.077589
C54   C     C_3   0.311323 0.263326 0.422075 -0.072775
C55   C     C_3   0.728572 0.872260 0.336954 -0.044477
C56   C     C_R   0.420621 0.190828 0.498750 0.210633
C57   C     C_3   0.248887 0.099121 0.619290 -0.049777
C58   C     C_3   0.709171 0.109519 0.319843 -0.050787
C59   C     C_3   0.239929 0.904962 0.401245 -0.061435
C60   C     C_3   0.697149 0.471105 0.762377 -0.091599
C61   C     C_3   0.346286 0.637648 0.288907 -0.015968
C62   C     C_3   0.302202 0.554177 0.763096 -0.087374
C63   C     C_3   0.503125 0.288911 0.233893 -0.090832
C64   C     C_R   0.574183 0.903452 0.473604 -0.021938
C65   C     C_R   0.419372 0.096727 0.496674 -0.017268
C66   C     C_R   0.496837 0.952886 0.484013 -0.128954
Cu1   Cu    Cu3+1 0.500010 0.499990 0.597420 1.047478
Cu2   Cu    Cu3+1 0.499990 0.500010 0.402580 1.059829
H1    H     H_    0.953930 0.355849 0.560322 0.122504
H2    H     H_    0.283349 0.727451 0.641282 0.163814
H3    H     H_    0.319057 0.839430 0.653044 0.150801
H4    H     H_    0.637702 0.261918 0.631747 0.166658
H5    H     H_    0.740340 0.270740 0.581323 0.143483
H6    H     H_    0.701050 0.161943 0.602239 0.142505
H7    H     H_    0.643534 0.715263 0.622022 0.103306
H8    H     H_    0.700452 0.817601 0.605782 0.153539
H9    H     H_    0.745351 0.711623 0.567896 0.159822
H10   H     H_    0.305475 0.203589 0.373502 0.134571
H11   H     H_    0.347725 0.314912 0.386597 0.107434
H12   H     H_    0.046065 0.644538 0.441221 0.120718
H13   H     H_    0.246792 0.291690 0.433641 0.170918
H14   H     H_    0.666782 0.851557 0.305327 0.121947
H15   H     H_    0.772072 0.812976 0.333585 0.165521
H16   H     H_    0.756017 0.924141 0.292381 0.115697
H17   H     H_    0.189895 0.139491 0.630098 0.150142
H18   H     H_    0.299805 0.131425 0.662634 0.133157
H19   H     H_    0.238194 0.031093 0.646163 0.135982
H20   H     H_    0.681873 0.057089 0.271613 0.066538
H21   H     H_    0.772150 0.124786 0.291890 0.165999
H22   H     H_    0.669008 0.171170 0.315206 0.192159
H23   H     H_    0.227438 0.719473 0.120768 0.132906
H24   H     H_    0.285758 0.862118 0.359892 0.127322
H25   H     H_    0.229696 0.970307 0.365665 0.132974
H26   H     H_    0.178788 0.870773 0.399730 0.141890
H27   H     H_    0.682240 0.540630 0.739626 0.123415
H28   H     H_    0.751795 0.445227 0.720205 0.126718
H29   H     H_    0.716925 0.473891 0.839415 0.095986
H30   H     H_    0.345799 0.646617 0.368154 0.173462
H31   H     H_    0.314190 0.575131 0.266464 0.081163
H32   H     H_    0.307884 0.695801 0.264335 0.137057
H33   H     H_    0.280759 0.569370 0.837577 0.104003
H34   H     H_    0.255944 0.603637 0.102489 0.096619
H35   H     H_    0.307063 0.480512 0.750896 0.146467
H36   H     H_    0.252582 0.580413 0.713040 0.146214
H37   H     H_    0.503432 0.264951 0.157607 0.100743
H38   H     H_    0.438232 0.313406 0.252001 0.097697
H39   H     H_    0.518610 0.230551 0.279309 0.130100
H40   H     H_    0.248860 0.679149 0.001903 0.130683
H41   H     H_    0.757779 0.363360 0.948404 0.099214
H42   H     H_    0.762124 0.302141 0.835583 0.138780
H43   H     H_    0.751937 0.242909 0.944577 0.150672
H44   H     H_    0.393082 0.746108 0.667269 0.172375
N1    N     N_R   0.499960 0.499930 0.743810 -0.232018
N2    N     N_R   0.500040 0.500070 0.256190 -0.238901
N3    N     N_1   0.084586 0.305355 0.327999 -0.303113
N4    N     N_1   0.914683 0.694802 0.673302 -0.307282
N5    N     N_1   0.355392 0.777218 0.862365 -0.325482
N6    N     N_1   0.700100 0.258704 0.137007 -0.316477
N7    N     N_1   0.907197 0.535793 0.237457 -0.284266
N8    N     N_1   0.092983 0.464700 0.764027 -0.321674
O1    O     O_R   0.500020 0.370250 0.582280 -0.472352
O2    O     O_3   0.643431 0.307319 0.894003 -0.539112
O3    O     O_3   0.350219 0.769236 0.526096 -0.568229
O4    O     O_3   0.648891 0.230063 0.484678 -0.535983
O5    O     O_3   0.649342 0.759285 0.480242 -0.543489
O6    O     O_3   0.347567 0.242234 0.512696 -0.541757
O7    O     O_3   0.723833 0.902227 0.434011 -0.507366
O8    O     O_3   0.267148 0.096830 0.520104 -0.521477
O9    O     O_3   0.719222 0.082198 0.416380 -0.510165
O10   O     O_3   0.266441 0.916563 0.498134 -0.527993
O11   O     O_3   0.628297 0.414158 0.745360 -0.515587
O12   O     O_R   0.499980 0.629750 0.417720 -0.444735
O13   O     O_3   0.429786 0.644200 0.255736 -0.498719
O14   O     O_3   0.378883 0.595938 0.743913 -0.561544
O15   O     O_3   0.563841 0.355027 0.252606 -0.507679
O16   O     O_R   0.500010 0.370270 0.417740 -0.472072
O17   O     O_R   0.499990 0.629730 0.582260 -0.505978
O18   O     O_R   0.379080 0.499980 0.582260 -0.455652
O19   O     O_R   0.620920 0.500020 0.417740 -0.450429
O20   O     O_R   0.379070 0.500000 0.417710 -0.550893
O21   O     O_R   0.620930 0.500000 0.582290 -0.497571
O22   O     O_3   0.353855 0.694477 0.095525 -0.538114

loop_
_geom_bond_atom_site_label_1
_geom_bond_atom_site_label_2
_ccdc_geom_bond_type
C48   H42   S    
C59   O10   S    
C34   C56   A    
C51   H44   S    
C23   C45   A    
C29   C42   S    
C27   C29   S    
C51   O3    S    
C14   C18   A    
C53   H9    S    
C25   O22   S    
C10   O13   S    
C2    C65   A    
C57   O8    S    
C61   O13   S    
C53   H7    S    
C27   C33   S    
C16   C31   S    
C15   C19   A    
C54   O6    S    
C29   C36   S    
C50   N8    T    
C41   O4    S    
C35   C37   S    
C24   C26   A    
C54   H11   S    
C52   H6    S    
C48   O2    S    
C11   C14   A    
C4    C41   A    
C58   O9    S    
C23   C40   A    
C33   C36   S    
C57   H18   S    
C46   N6    T    
C17   O21   A    
C18   C19   A    
C32   C39   T    
Cu2   O12   S    
Cu1   O18   S    
C6    C65   A    
C22   C44   S    
C61   H30   S    
C28   C35   S    
C45   O5    S    
C22   C25   A    
C35   C49   S    
C51   H2    S    
C56   O6    S    
C63   H37   S    
C1    O16   A    
C13   N2    A    
C27   H1    S    
C62   H33   S    
C48   H41   S    
C47   H34   S    
C13   O15   S    
C61   H31   S    
C34   C41   A    
C51   H3    S    
C4    C7    A    
C28   H12   S    
Cu1   O1    S    
C60   O11   S    
C52   H5    S    
C1    C34   S    
C62   H36   S    
C9    O11   S    
C10   C21   A    
Cu1   Cu2   S    
Cu2   O16   S    
C3    C8    A    
C11   O14   S    
C5    C7    A    
C6    C8    A    
C33   C50   S    
C57   H19   S    
C5    C64   A    
C58   H20   S    
C55   H14   S    
C63   O15   S    
C2    C4    A    
C52   H4    S    
C43   N4    T    
C9    C20   A    
C53   H8    S    
C12   C23   S    
C47   O22   S    
C5    O7    S    
C17   O19   A    
C63   H38   S    
C58   H22   S    
C53   O5    S    
C60   H28   S    
C15   C24   A    
C59   H26   S    
C55   O7    S    
C3    C40   A    
C60   H29   S    
C13   C15   A    
C8    O10   S    
C30   C43   S    
Cu2   O20   S    
C61   H32   S    
C55   H15   S    
Cu1   O21   S    
C16   O20   A    
C62   H35   S    
C40   O3    S    
C21   C25   A    
C12   O12   A    
C30   C33   S    
C19   C21   A    
C47   H23   S    
C16   O18   A    
C2    C66   A    
C10   N2    A    
C59   H25   S    
C29   C35   S    
C45   C64   A    
C31   C38   T    
C9    N1    A    
C62   O14   S    
C28   C30   S    
Cu1   N1    S    
C6    O8    S    
C37   C39   S    
C30   C37   S    
C52   O4    S    
C14   C22   A    
C49   N7    T    
C20   C26   A    
C44   N5    T    
C27   C37   S    
C36   C38   S    
C57   H17   S    
C18   C20   A    
C59   H24   S    
C11   N1    A    
C58   H21   S    
C1    O1    A    
C7    O9    S    
C3    C66   A    
C60   H27   S    
C42   N3    T    
C48   H43   S    
C28   C36   S    
C47   H40   S    
Cu2   N2    S    
C17   C32   S    
C12   O17   A    
Cu2   O19   S    
C26   O2    S    
C55   H16   S    
Cu1   O17   S    
C63   H39   S    
C54   H13   S    
C56   C65   A    
C64   C66   A    
C24   C46   S    
C54   H10   S    
