data_mof_unit_32262.cif
_audit_creation_date              2012-12-10T17:50:11-0500
_audit_creation_method            fapswitch 2.2
_symmetry_space_group_name_H-M    P1
_symmetry_Int_Tables_number       1
_space_group_crystal_system       triclinic
_cell_length_a                    10.607738
_cell_length_b                    14.847889
_cell_length_c                    14.738979
_cell_angle_alpha                 64.440495
_cell_angle_beta                  105.339898
_cell_angle_gamma                 102.211951
_cell_volume                      2006.9408737

loop_
_atom_site_label
_atom_site_type_symbol
_atom_type_description
_atom_site_fract_x
_atom_site_fract_y
_atom_site_fract_z
_atom_type_partial_charge
C1    C     C_R   0.485645 0.119324 0.311734 0.873249
C2    C     C_R   0.520919 0.880555 0.688586 0.929547
C3    C     C_R   0.535643 0.289159 0.176695 0.352668
C4    C     C_R   0.551353 0.713233 0.831306 0.336547
C5    C     C_R   0.497089 0.362148 0.076853 -0.055350
C6    C     C_R   0.532088 0.642258 0.929523 -0.156987
C7    C     C_R   0.439637 0.329104 0.995816 -0.058029
C8    C     C_R   0.540959 0.677407 0.006378 -0.019185
C9    C     C_R   0.517458 0.467338 0.054990 0.111781
C10   C     C_R   0.503394 0.537674 0.952127 0.045750
C11   C     C_R   0.446906 0.503351 0.873496 -0.300849
C12   C     C_R   0.541663 0.504444 0.132326 -0.213481
C13   C     C_R   0.413167 0.401218 0.893674 0.524436
C14   C     C_R   0.554047 0.607739 0.109480 0.490745
C15   C     C_R   0.702879 0.275163 0.681866 -0.222249
C16   C     C_R   0.284627 0.722144 0.323007 -0.213586
C17   C     C_R   0.683526 0.201787 0.643300 0.520304
C18   C     C_R   0.309860 0.796453 0.360940 0.525128
C19   C     C_R   0.513620 0.285550 0.508229 0.470950
C20   C     C_R   0.485728 0.714102 0.489309 0.473672
C21   C     C_R   0.543724 0.370002 0.536288 -0.114216
C22   C     C_R   0.447895 0.628272 0.463990 -0.127857
C23   C     C_R   0.260006 0.000250 0.500241 0.885782
C24   C     C_R   0.739984 0.999788 0.499731 0.865908
C25   C     C_R   0.629368 0.357186 0.631796 -0.047422
C26   C     C_R   0.357488 0.640010 0.371110 -0.052181
C27   C     C_R   0.486959 0.463439 0.477998 0.042597
C28   C     C_R   0.502095 0.534265 0.522670 0.042064
C29   C     C_R   0.564411 0.506649 0.626148 -0.179864
C30   C     C_R   0.420950 0.491183 0.375117 -0.192461
C31   C     C_R   0.634603 0.423720 0.677932 0.441179
C32   C     C_R   0.347533 0.572424 0.325570 0.456493
C33   C     C_3   0.017568 0.037598 0.403997 0.447154
C34   C     C_3   0.982387 0.962639 0.595877 0.452824
C35   C     C_3   0.967545 0.094915 0.450785 -0.249424
C36   C     C_3   0.032393 0.905292 0.549109 -0.236376
C37   C     C_3   0.876542 0.999482 0.499189 -0.148593
C38   C     C_3   0.123428 0.000712 0.500685 -0.148565
C39   C     C_3   0.924515 0.942618 0.451098 -0.174163
C40   C     C_3   0.075457 0.057603 0.548770 -0.167546
C41   C     C_R   0.484933 0.187183 0.201615 -0.279273
C42   C     C_R   0.530737 0.813603 0.799183 -0.192809
C43   C     C_R   0.410945 0.224733 0.018241 0.422224
C44   C     C_R   0.535115 0.780967 0.977823 0.439692
C45   C     C_R   0.434261 0.154000 0.121014 0.256545
C46   C     C_R   0.517966 0.846972 0.872682 0.198234
Cu1   Cu    Cu3+1 0.465750 0.918270 0.475680 1.103924
Cu2   Cu    Cu3+1 0.534250 0.081730 0.524320 1.099141
H1    H     H_    0.938107 0.172197 0.409734 0.197537
H2    H     H_    0.061732 0.827986 0.590150 0.198711
H3    H     H_    0.774816 0.266611 0.751735 0.240829
H4    H     H_    0.208121 0.729650 0.255722 0.241215
H5    H     H_    0.558252 0.548583 0.668822 0.203337
H6    H     H_    0.427657 0.452458 0.329916 0.197181
H7    H     H_    0.860747 0.896339 0.410459 0.221469
H8    H     H_    0.139285 0.103876 0.589398 0.224228
H9    H     H_    0.420640 0.556543 0.795217 0.176399
H10   H     H_    0.540494 0.454151 0.210977 0.197343
N1    N     N_R   0.585750 0.204560 0.560800 -0.246795
N2    N     N_R   0.414250 0.795440 0.439200 -0.255416
O1    O     O_R   0.454850 0.022100 0.338110 -0.499665
O2    O     O_R   0.545150 0.977900 0.661890 -0.512353
O3    O     O_R   0.512700 0.160150 0.379180 -0.545771
O4    O     O_R   0.487300 0.839850 0.620820 -0.534771
O5    O     O_R   0.287930 0.931000 0.479440 -0.561307
O6    O     O_R   0.712070 0.069000 0.520560 -0.564222
O7    O     O_R   0.345780 0.069050 0.520520 -0.530010
O8    O     O_R   0.654220 0.930950 0.479480 -0.533527
Cl1   Cl    Cl    0.642969 0.727557 0.563901 -0.528357
Cl2   Cl    Cl    0.365088 0.272272 0.423439 -0.560009
Cl3   Cl    Cl    0.207691 0.893261 0.299472 -0.442183
Cl4   Cl    Cl    0.781411 0.102391 0.709848 -0.453851
Cl5   Cl    Cl    0.043666 0.089762 0.275796 -0.462257
Cl6   Cl    Cl    0.955926 0.910932 0.723958 -0.447431
O9    O     O_3   0.353897 0.371338 0.813893 -0.626234
H11   H     H_    0.343234 0.430905 0.747876 0.315760
O10   O     O_3   0.580915 0.641314 0.187417 -0.629346
H12   H     H_    0.606753 0.585235 0.254070 0.315190
O11   O     O_3   0.600112 0.687994 0.768370 -0.658708
H13   H     H_    0.651039 0.629810 0.811395 0.370530
O12   O     O_3   0.635846 0.316779 0.244826 -0.706531
H14   H     H_    0.688021 0.259399 0.288373 0.333594
Cl7   Cl    Cl    0.471684 0.968067 0.834614 -0.489076
Cl8   Cl    Cl    0.419899 0.025094 0.144503 -0.466504
O13   O     O_3   0.361729 0.193558 0.938389 -0.583931
H15   H     H_    0.309956 0.126923 0.962788 0.390929
O14   O     O_3   0.535784 0.814054 0.052485 -0.581823
H16   H     H_    0.561021 0.887475 0.027385 0.390904
Cl9   Cl    Cl    0.719853 0.402471 0.804473 -0.542256
Cl10  Cl    Cl    0.254520 0.591645 0.201404 -0.510892

loop_
_geom_bond_atom_site_label_1
_geom_bond_atom_site_label_2
_ccdc_geom_bond_type
C25   C31   A    
C38   C40   S    
O14   H16   S    
C26   C32   A    
C34   C37   S    
C40   H8    S    
Cu1   O1    S    
O12   H14   S    
O13   H15   S    
C30   H6    S    
C33   C39   S    
C4    C42   A    
C34   C40   S    
C28   C29   A    
C19   C21   A    
C15   C25   A    
C42   C46   A    
C14   O10   S    
C23   O7    A    
Cu1   N2    S    
C39   H7    S    
C13   O9    S    
C44   C46   A    
C31   Cl9   S    
C35   H1    S    
C7    C43   A    
C20   N2    A    
C44   O14   S    
C9    C10   A    
C24   O6    A    
C12   H10   S    
C21   C27   A    
C22   C28   A    
C18   N2    A    
C27   C30   A    
C1    O3    A    
C2    O4    A    
C16   C26   A    
C32   Cl10  S    
C43   O13   S    
C8    C44   A    
C4    O11   S    
C4    C6    A    
Cu1   O4    S    
C5    C7    A    
Cu2   O3    S    
C6    C8    A    
C19   N1    A    
O10   H12   S    
C46   Cl7   S    
O9    H11   S    
C5    C9    A    
Cu2   O2    S    
Cu1   Cu2   S    
C24   C37   S    
C16   C18   A    
C43   C45   A    
C17   N1    A    
C1    C41   S    
C34   Cl6   S    
C15   H3    S    
C20   Cl1   S    
C45   Cl8   S    
Cu1   O8    S    
C36   H2    S    
Cu2   N1    S    
C33   Cl5   S    
C18   Cl3   S    
C15   C17   A    
C21   C25   A    
C3    C41   A    
C8    C14   A    
C35   C37   S    
C36   C39   S    
C3    O12   S    
C16   H4    S    
C20   C22   A    
C3    C5    A    
C1    O1    A    
C6    C10   A    
C23   C38   S    
C33   C38   S    
C23   O5    A    
C36   C38   S    
C35   C40   S    
C12   C14   A    
C37   C39   S    
C30   C32   A    
C11   C13   A    
C29   H5    S    
C2    C42   S    
C33   C35   S    
C34   C36   S    
Cu2   O7    S    
C9    C12   A    
C10   C11   A    
C24   O8    A    
O11   H13   S    
C7    C13   A    
C17   Cl4   S    
C29   C31   A    
C22   C26   A    
C27   C28   A    
C41   C45   A    
C19   Cl2   S    
Cu2   O6    S    
C11   H9    S    
Cu1   O5    S    
C2    O2    A    
