data_mof_unit_24772.cif
_audit_creation_date              2013-03-05T16:25:17-0500
_audit_creation_method            fapswitch 2.2
_symmetry_space_group_name_H-M    P1
_symmetry_Int_Tables_number       1
_space_group_crystal_system       triclinic
_cell_length_a                    15.248174
_cell_length_b                    13.977333
_cell_length_c                    17.799397
_cell_angle_alpha                 89.71541
_cell_angle_beta                  95.590165
_cell_angle_gamma                 89.862878
_cell_volume                      3775.46019755

loop_
_atom_site_label
_atom_site_type_symbol
_atom_site_description
_atom_site_fract_x
_atom_site_fract_y
_atom_site_fract_z
_atom_type_partial_charge
O1    O     O_R   0.371460 0.581430 0.500010 -0.539162
O2    O     O_R   0.628540 0.418570 0.499990 -0.573390
O3    O     O_R   0.628540 0.581430 0.499990 -0.539596
O4    O     O_R   0.371460 0.418570 0.500010 -0.593214
C1    C     C_R   0.329859 0.500083 0.502227 0.906178
C2    C     C_R   0.670111 0.500006 0.497408 0.885861
O5    O     O_R   0.500000 0.581470 0.391250 -0.555559
O6    O     O_R   0.500000 0.418530 0.608750 -0.522488
O7    O     O_R   0.500000 0.581470 0.608750 -0.576372
O8    O     O_R   0.500000 0.418530 0.391250 -0.505358
C3    C     C_R   0.501305 0.500165 0.355378 0.918026
C4    C     C_R   0.495850 0.499683 0.643980 0.969220
Cu1   Cu    Cu3+1 0.500000 0.596430 0.500000 1.046979
Cu2   Cu    Cu3+1 0.500000 0.403570 0.500000 1.052369
C5    C     C_R   0.417539 0.563703 0.834306 -0.113595
C6    C     C_R   0.462942 0.426507 0.148776 -0.125632
C7    C     C_R   0.517738 0.591324 0.154918 -0.104521
C8    C     C_R   0.537753 0.446684 0.853111 -0.135389
C9    C     C_R   0.426902 0.564613 0.755842 0.345090
C10   C     C_R   0.478017 0.419330 0.228149 0.371011
C11   C     C_R   0.525671 0.585876 0.234368 0.314575
C12   C     C_R   0.530953 0.432207 0.774464 0.351677
C13   C     C_R   0.485375 0.499451 0.725986 -0.222662
C14   C     C_R   0.502072 0.501385 0.271620 -0.241732
C15   C     C_R   0.478188 0.510366 0.883136 -0.161300
C16   C     C_R   0.486014 0.511599 0.112377 -0.158515
C17   C     C_1   0.476521 0.515955 0.963647 0.194380
C18   C     C_1   0.478551 0.516273 0.031240 0.185881
C19   C     C_R   0.085526 0.556362 0.461716 0.370213
C20   C     C_R   0.898887 0.408257 0.464768 0.381318
C21   C     C_R   0.914133 0.558068 0.534756 0.366053
C22   C     C_R   0.101541 0.409006 0.536051 0.374736
C23   C     C_R   0.176749 0.569886 0.470849 -0.151476
C24   C     C_R   0.806477 0.417930 0.459113 -0.135556
C25   C     C_R   0.822728 0.571424 0.525367 -0.153302
C26   C     C_R   0.193934 0.418548 0.541339 -0.135287
C27   C     C_R   0.232725 0.498197 0.506741 -0.279296
C28   C     C_R   0.767220 0.498227 0.492212 -0.309392
C29   C     C_R   0.047942 0.478542 0.497235 -0.091781
C30   C     C_R   0.952101 0.478767 0.501771 -0.092207
C31   C     C_R   0.572700 0.105770 0.530238 -0.301740
C32   C     C_R   0.458645 0.894656 0.439470 -0.287707
C33   C     C_R   0.427205 0.106901 0.468151 -0.285486
C34   C     C_R   0.541231 0.894342 0.559452 -0.305702
H1    H     H_    0.630559 0.067234 0.554305 0.178284
H2    H     H_    0.426835 0.933370 0.391375 0.170719
H3    H     H_    0.369460 0.069277 0.443451 0.175396
H4    H     H_    0.573382 0.933276 0.606803 0.188531
C35   C     C_R   0.571868 0.206635 0.532394 0.118490
C36   C     C_R   0.458124 0.793599 0.439859 0.159940
C37   C     C_R   0.428502 0.207795 0.466413 0.144263
C38   C     C_R   0.543518 0.793237 0.559311 0.119952
N1    N     N_R   0.500000 0.258690 0.500000 -0.254785
N2    N     N_R   0.500000 0.741310 0.500000 -0.239772
C39   C     C_R   0.499748 0.054309 0.499299 0.099920
C40   C     C_R   0.499494 0.946447 0.499496 0.102276
C41   C     C_2   0.342033 0.614751 0.863542 0.860411
O9    O     O_2   0.351627 0.657479 0.923561 -0.602256
O10   O     O_R   0.259651 0.614593 0.821404 -0.725055
H5    H     H_    0.213658 0.652171 0.846442 0.326731
C42   C     C_2   0.418601 0.345684 0.105822 0.866796
O11   O     O_2   0.439903 0.323286 0.043819 -0.579672
O12   O     O_R   0.352724 0.294060 0.137477 -0.708664
H6    H     H_    0.327955 0.240450 0.103666 0.335401
C43   C     C_2   0.541613 0.681871 0.117231 0.900541
O13   O     O_2   0.522241 0.759155 0.143105 -0.530168
O14   O     O_R   0.587106 0.678904 0.052748 -0.774113
H7    H     H_    0.599401 0.744990 0.032585 0.339309
C44   C     C_2   0.607954 0.394017 0.901255 0.875011
O15   O     O_2   0.596894 0.369000 0.965531 -0.577272
O16   O     O_R   0.687216 0.371776 0.871723 -0.717349
H8    H     H_    0.729667 0.335375 0.908926 0.332796
O17   O     O_3   0.371441 0.619754 0.706453 -0.532688
C45   C     C_3   0.392840 0.717611 0.716135 0.063570
H9    H     H_    0.464948 0.729248 0.719193 0.161687
H10   H     H_    0.368401 0.746645 0.768099 0.160787
C46   C     C_3   0.349206 0.774590 0.649862 -0.650639
H11   H     H_    0.276463 0.767373 0.647447 0.261237
H12   H     H_    0.367011 0.851337 0.656057 0.192901
H13   H     H_    0.371957 0.747617 0.596698 0.279338
O18   O     O_3   0.467263 0.332340 0.263800 -0.495707
C47   C     C_3   0.537035 0.269795 0.249653 0.123953
H14   H     H_    0.601721 0.307096 0.251239 0.155495
H15   H     H_    0.523339 0.235403 0.193682 0.153238
C48   C     C_3   0.545107 0.190840 0.308910 -0.708601
H16   H     H_    0.481210 0.153147 0.309999 0.250541
H17   H     H_    0.596105 0.138402 0.295613 0.189073
H18   H     H_    0.564870 0.221911 0.365151 0.257051
O19   O     O_3   0.555282 0.665090 0.275472 -0.526737
C49   C     C_3   0.647734 0.659734 0.290749 0.088684
H19   H     H_    0.680976 0.640960 0.239612 0.119738
H20   H     H_    0.665788 0.605776 0.335865 0.155690
C50   C     C_3   0.681346 0.757145 0.317890 -0.642279
H21   H     H_    0.646503 0.780447 0.366683 0.267713
H22   H     H_    0.753139 0.753247 0.335197 0.199692
H23   H     H_    0.669182 0.810763 0.271734 0.245941
O20   O     O_3   0.564480 0.349765 0.744685 -0.499297
C51   C     C_3   0.519490 0.268656 0.770474 0.124985
H24   H     H_    0.450595 0.284843 0.782950 0.112623
H25   H     H_    0.556249 0.239260 0.822445 0.168916
C52   C     C_3   0.513931 0.190455 0.711284 -0.733191
H26   H     H_    0.581066 0.166787 0.700560 0.248520
H27   H     H_    0.478030 0.127951 0.731717 0.200894
H28   H     H_    0.477503 0.217219 0.658328 0.250886
O21   O     O_3   0.032421 0.628448 0.427775 -0.520211
C53   C     C_3   0.998717 0.600016 0.354616 0.092690
H29   H     H_    0.943331 0.549362 0.357870 0.105609
H30   H     H_    0.050324 0.566632 0.322819 0.150821
C54   C     C_3   0.962733 0.687518 0.310718 -0.703900
H31   H     H_    0.016679 0.739053 0.303748 0.269097
H32   H     H_    0.932645 0.665758 0.254071 0.186673
H33   H     H_    0.911803 0.722999 0.341456 0.245471
O22   O     O_3   0.937187 0.327565 0.436609 -0.489281
C55   C     C_3   0.956110 0.344686 0.361610 0.077515
H34   H     H_    0.014152 0.392365 0.360826 0.115667
H35   H     H_    0.898945 0.376838 0.326418 0.111799
C56   C     C_3   0.978831 0.250236 0.326103 -0.675367
H36   H     H_    0.921935 0.200641 0.325102 0.258810
H37   H     H_    0.994911 0.262741 0.267336 0.186928
H38   H     H_    0.036718 0.216996 0.359095 0.259433
O23   O     O_3   0.967018 0.631379 0.565915 -0.524349
C57   C     C_3   0.999896 0.606575 0.640361 0.083706
H39   H     H_    0.052392 0.551607 0.639908 0.121615
H40   H     H_    0.946742 0.579980 0.673869 0.149839
C58   C     C_3   0.040934 0.694566 0.679279 -0.655010
H41   H     H_    0.990492 0.751688 0.681384 0.262239
H42   H     H_    0.067703 0.675917 0.737792 0.196130
H43   H     H_    0.095485 0.721528 0.647954 0.252193
O24   O     O_3   0.063754 0.329112 0.566170 -0.497495
C59   C     C_3   0.045085 0.348124 0.640830 0.072688
H44   H     H_    0.986639 0.395728 0.640657 0.120209
H45   H     H_    0.102136 0.381257 0.675032 0.129931
C60   C     C_3   0.023416 0.254565 0.678718 -0.668829
H46   H     H_    0.080713 0.205102 0.680563 0.263429
H47   H     H_    0.007679 0.268501 0.737295 0.189454
H48   H     H_    0.965602 0.220440 0.646821 0.257114
C61   C     C_2   0.208540 0.663520 0.445924 1.028842
O25   O     O_2   0.248365 0.716655 0.491517 -0.605680
O26   O     O_R   0.185302 0.694958 0.371916 -0.739232
H49   H     H_    0.205141 0.762900 0.362953 0.333319
C62   C     C_2   0.753075 0.349024 0.410597 0.895517
O27   O     O_2   0.692765 0.378293 0.366115 -0.672512
O28   O     O_R   0.774164 0.251587 0.413104 -0.678571
H50   H     H_    0.734418 0.212650 0.376016 0.317376
C63   C     C_2   0.789903 0.666701 0.545524 1.030097
O29   O     O_2   0.810166 0.699184 0.608517 -0.567037
O30   O     O_R   0.742282 0.722783 0.490570 -0.771254
H51   H     H_    0.727175 0.788278 0.509955 0.321074
C64   C     C_2   0.248086 0.350038 0.590499 0.914065
O31   O     O_2   0.232717 0.264252 0.587167 -0.526685
O32   O     O_R   0.314478 0.384469 0.642946 -0.770699
H52   H     H_    0.345604 0.331402 0.674102 0.319909
C65   C     C_2   0.650821 0.250564 0.573123 0.861542
O33   O     O_2   0.643581 0.313966 0.618860 -0.516233
O34   O     O_R   0.734359 0.213983 0.563310 -0.742076
H53   H     H_    0.783292 0.248836 0.594643 0.339343
C66   C     C_2   0.411799 0.750466 0.371306 0.905027
O35   O     O_2   0.364962 0.680762 0.375462 -0.575968
O36   O     O_R   0.417383 0.794266 0.301053 -0.727395
H54   H     H_    0.381700 0.759779 0.258431 0.357769
C67   C     C_2   0.350631 0.253052 0.424451 0.877589
O37   O     O_2   0.359285 0.314511 0.376960 -0.521631
O38   O     O_R   0.266341 0.219829 0.435344 -0.742049
H55   H     H_    0.218150 0.255307 0.403104 0.333191
C68   C     C_2   0.596598 0.750390 0.625889 0.840963
O39   O     O_2   0.635937 0.675325 0.621351 -0.550628
O40   O     O_R   0.607189 0.800763 0.693989 -0.804021
H56   H     H_    0.645921 0.765702 0.734814 0.345605

loop_
_geom_bond_atom_site_label_1
_geom_bond_atom_site_label_2
_geom_bond_distance
_ccdc_geom_bond_type
C39   C40   1.507619 S    
C24   C62   1.487086 S    
C50   H21   1.111079 S    
C1    C27   1.491373 S    
C56   H36   1.110630 S    
O17   C45   1.414394 S    
C9    C13   1.414259 A    
O30   H51   1.013795 S    
O3    C2    1.304569 A    
O20   C51   1.423537 S    
C49   H19   1.116196 S    
C68   O39   1.214276 D    
C11   O19   1.382427 S    
C46   H11   1.110696 S    
O5    C3    1.307331 A    
C61   O26   1.398749 S    
C4    C13   1.483755 S    
C36   N2    1.394493 A    
C45   H10   1.108692 S    
O1    C1    1.305614 A    
C7    C16   1.410219 A    
C22   C26   1.409489 A    
C35   C65   1.479808 S    
C26   C27   1.426819 A    
O22   C55   1.412374 S    
C44   O15   1.222095 D    
C62   O28   1.398109 S    
C63   O29   1.223512 D    
C26   C64   1.487129 S    
C41   O10   1.398934 S    
C53   H29   1.108999 S    
O28   H50   1.013159 S    
C19   C23   1.398029 A    
C3    C14   1.492036 S    
C21   C30   1.406444 A    
C42   O12   1.398867 S    
C32   H2    1.083586 S    
C22   C29   1.403371 A    
C44   O16   1.399021 S    
O7    Cu1   1.945913 S    
C31   C39   1.395155 A    
C54   H32   1.110500 S    
C63   O30   1.396363 S    
C5    C9    1.417652 A    
C62   O27   1.221909 D    
C66   O35   1.215594 D    
C65   O33   1.218385 D    
C10   C14   1.415696 A    
C23   C61   1.477778 S    
C43   O14   1.398471 S    
C45   C46   1.517790 S    
C60   H48   1.110931 S    
O32   H52   1.012870 S    
C2    C28   1.492744 S    
C16   C18   1.438706 S    
C65   O34   1.398442 S    
O3    Cu1   1.970699 S    
C6    C10   1.412113 A    
C32   C40   1.390581 A    
C34   C38   1.413537 A    
C8    C44   1.494442 S    
C48   H17   1.110311 S    
O10   H5    1.013807 S    
C50   H22   1.109098 S    
C12   O20   1.387873 S    
C8    C12   1.409240 A    
Cu1   Cu2   2.695670 S    
C5    C41   1.490624 S    
C64   O32   1.396652 S    
C19   O21   1.389461 S    
O2    C2    1.306971 A    
C8    C15   1.413599 A    
C31   C35   1.410607 A    
C22   O24   1.386991 S    
C67   O38   1.398441 S    
C38   N2    1.398228 A    
C67   O37   1.218589 D    
C46   H12   1.110560 S    
C36   C66   1.480787 S    
C6    C16   1.413103 A    
C45   H9    1.107992 S    
C20   C24   1.408986 A    
O14   H7    1.013822 S    
C55   C56   1.520218 S    
C52   H26   1.109456 S    
C9    O17   1.388275 S    
C25   C28   1.422758 A    
C21   O23   1.389369 S    
O8    Cu2   1.945913 S    
C54   H33   1.109960 S    
O40   H56   1.014129 S    
C48   H16   1.110517 S    
O18   C47   1.417550 S    
C37   N1    1.390316 A    
C66   O36   1.399676 S    
C59   H45   1.115091 S    
C38   C68   1.490591 S    
C58   H43   1.111104 S    
C34   C40   1.389985 A    
C49   H20   1.113261 S    
O36   H54   1.014112 S    
O6    C4    1.303197 A    
C19   C29   1.406415 A    
C20   C30   1.403437 A    
O23   C57   1.411589 S    
C32   C36   1.412529 A    
C33   C39   1.394232 A    
C51   H24   1.117544 S    
C50   H23   1.111094 S    
C47   H15   1.109917 S    
C58   H41   1.110594 S    
C21   C25   1.399418 A    
C56   H38   1.110917 S    
C59   C60   1.520123 S    
O1    Cu1   1.971699 S    
C6    C42   1.493127 S    
C57   H40   1.115457 S    
C51   C52   1.518678 S    
C29   C30   1.471450 S    
C49   C50   1.520361 S    
C58   H42   1.110514 S    
O24   C59   1.412252 S    
O21   C53   1.411906 S    
C48   H18   1.108010 S    
C25   C63   1.479621 S    
O6    Cu2   1.947978 S    
C24   C28   1.427270 A    
C7    C43   1.491850 S    
O4    C1    1.305331 A    
C55   H35   1.114941 S    
O26   H49   1.013940 S    
C55   H34   1.110286 S    
C52   H28   1.109244 S    
C47   C48   1.519215 S    
C61   O25   1.221084 D    
Cu1   N2    2.025035 S    
C51   H25   1.110312 S    
C52   H27   1.110461 S    
C53   C54   1.520260 S    
C57   C58   1.520441 S    
C56   H37   1.110468 S    
C59   H44   1.110659 S    
O19   C49   1.411206 S    
O16   H8    1.013875 S    
C64   O31   1.222905 D    
C46   H13   1.106708 S    
C33   C37   1.410647 A    
C41   O9    1.222967 D    
C60   H46   1.110690 S    
C53   H30   1.115756 S    
C35   N1    1.389841 A    
C37   C67   1.478792 S    
C43   O13   1.223174 D    
O4    Cu2   1.970702 S    
C42   O11   1.222402 D    
O2    Cu2   1.971696 S    
O7    C4    1.305755 A    
C23   C27   1.422687 A    
O38   H55   1.014123 S    
C5    C15   1.414244 A    
O8    C3    1.305912 A    
O12   H6    1.013845 S    
O5    Cu1   1.947978 S    
Cu2   N1    2.025035 S    
C68   O40   1.400705 S    
C47   H14   1.114757 S    
C11   C14   1.415822 A    
C54   H31   1.110272 S    
O34   H53   1.014119 S    
C60   H47   1.110481 S    
C31   H1    1.083410 S    
C12   C13   1.408167 A    
C57   H39   1.108811 S    
C10   O18   1.386190 S    
C33   H3    1.083615 S    
C20   O22   1.387023 S    
C34   H4    1.082666 S    
C17   C18   1.200522 T    
C15   C17   1.438265 S    
C7    C11   1.409194 A    
