data_mof_unit_43776.cif
_audit_creation_date              2012-12-10T18:05:59-0500
_audit_creation_method            fapswitch 2.2
_symmetry_space_group_name_H-M    P1
_symmetry_Int_Tables_number       1
_space_group_crystal_system       triclinic
_cell_length_a                    12.689488
_cell_length_b                    13.347611
_cell_length_c                    15.087119
_cell_angle_alpha                 92.78739
_cell_angle_beta                  102.663165
_cell_angle_gamma                 83.234835
_cell_volume                      2475.16786756

loop_
_atom_site_label
_atom_site_type_symbol
_atom_type_description
_atom_site_fract_x
_atom_site_fract_y
_atom_site_fract_z
_atom_type_partial_charge
C1    C     C_R   0.440063 0.691578 0.490248 0.837388
C2    C     C_R   0.525705 0.593855 0.822826 0.363335
C3    C     C_R   0.361138 0.285524 0.734143 -0.167993
C4    C     C_R   0.795162 0.235182 0.586726 0.207702
C5    C     C_R   0.873433 0.226578 0.532924 -0.073076
C6    C     C_R   0.971209 0.268621 0.563330 -0.118251
C7    C     C_R   0.990528 0.320977 0.646761 -0.122837
C8    C     C_R   0.910825 0.334443 0.698251 -0.174877
C9    C     C_R   0.813585 0.291690 0.668441 -0.105286
C10   C     C_R   0.501510 0.504590 0.770387 -0.206942
C11   C     C_R   0.501156 0.500087 0.673322 0.874775
C12   C     C_R   0.473882 0.420490 0.810040 -0.110494
C13   C     C_R   0.729041 0.067572 0.591763 -0.073286
C14   C     C_R   0.600229 0.202569 0.516963 -0.146997
C15   C     C_R   0.303377 0.838565 0.425188 -0.110958
C16   C     C_R   0.273314 0.942823 0.422679 -0.213423
C17   C     C_R   0.344926 0.010620 0.464310 0.432521
C18   C     C_R   0.455056 0.975067 0.501311 -0.050923
C19   C     C_R   0.462865 0.430535 0.085984 0.149447
C20   C     C_R   0.478243 0.872567 0.524185 -0.002937
C21   C     C_R   0.541333 0.037900 0.519289 0.006880
C22   C     C_R   0.643627 0.003584 0.576658 0.012193
C23   C     C_R   0.560632 0.309551 0.507920 0.892849
C24   C     C_R   0.654796 0.908163 0.617204 -0.033863
C25   C     C_R   0.572681 0.845057 0.590857 -0.180308
C26   C     C_R   0.530359 0.132022 0.477322 -0.052871
C27   C     C_R   0.705336 0.169019 0.566128 -0.094474
C28   C     C_R   0.405072 0.801655 0.481691 -0.150415
C29   C     C_R   0.075139 0.428422 0.325170 0.385431
C30   C     C_R   0.554131 0.680733 0.065621 -0.311778
C31   C     C_R   0.809825 0.593253 0.632426 0.535263
C32   C     C_R   0.920624 0.589604 0.671737 0.177805
C33   C     C_R   0.996238 0.571998 0.615755 -0.082034
C34   C     C_R   0.964390 0.525158 0.528654 -0.117585
C35   C     C_R   0.498014 0.504107 0.327692 0.885043
C36   C     C_R   0.852389 0.513118 0.497314 0.045869
C37   C     C_R   0.039873 0.484240 0.474341 -0.080461
C38   C     C_R   0.000592 0.452718 0.382644 -0.045365
C39   C     C_R   0.890766 0.434606 0.355048 -0.174084
C40   C     C_R   0.823116 0.451542 0.418533 0.415817
C41   C     C_R   0.544371 0.686147 0.972155 0.016531
C42   C     C_R   0.152951 0.463629 0.509649 0.535520
C43   C     C_R   0.185611 0.427712 0.362480 -0.204293
C44   C     C_R   0.460153 0.431485 0.176887 -0.297916
C45   C     C_R   0.495701 0.511474 0.232713 -0.122325
C46   C     C_R   0.532865 0.594228 0.198430 -0.070562
C47   C     C_R   0.528689 0.596470 0.104564 0.058989
C48   C     C_R   0.495272 0.513656 0.048386 0.072691
C49   C     C_R   0.745334 0.876060 0.693736 0.120592
C50   C     C_R   0.736041 0.902167 0.782980 -0.143659
C51   C     C_R   0.826086 0.885208 0.855077 -0.153385
C52   C     C_R   0.522433 0.598519 0.915899 0.001730
C53   C     C_R   0.925958 0.843287 0.838246 -0.090375
C54   C     C_R   0.935214 0.816116 0.749627 -0.013948
C55   C     C_R   0.844002 0.827605 0.677964 -0.117868
C56   C     C_R   0.845418 0.032418 0.627287 0.143083
C57   C     C_R   0.896796 0.059029 0.716344 -0.109313
C58   C     C_R   0.010017 0.043625 0.743944 -0.137273
C59   C     C_R   0.072706 0.003219 0.682621 -0.111345
C60   C     C_R   0.022197 0.978013 0.593739 -0.128435
C61   C     C_R   0.909075 0.991650 0.566166 -0.198753
C62   C     C_R   0.487757 0.138788 0.377156 0.120386
C63   C     C_R   0.495712 0.512686 0.955091 -0.064658
C64   C     C_R   0.386240 0.190616 0.338178 -0.063054
C65   C     C_R   0.347146 0.187435 0.244049 -0.194016
C66   C     C_R   0.410640 0.136109 0.187839 -0.128769
C67   C     C_R   0.515438 0.092439 0.225163 -0.132333
C68   C     C_R   0.554319 0.094900 0.319257 -0.197598
C69   C     C_R   0.224643 0.773268 0.368744 0.172290
C70   C     C_R   0.113252 0.790012 0.370256 -0.181251
C71   C     C_R   0.038138 0.733858 0.313389 -0.162376
C72   C     C_R   0.072631 0.661643 0.252851 -0.106882
C73   C     C_R   0.182500 0.644527 0.249962 -0.138747
C74   C     C_R   0.469465 0.425041 0.902058 0.079144
C75   C     C_R   0.257843 0.700104 0.307238 -0.074089
C76   C     C_R   0.851281 0.379392 0.268117 0.210074
C77   C     C_R   0.867186 0.273367 0.264213 -0.126913
C78   C     C_R   0.826273 0.220878 0.183906 -0.151502
C79   C     C_R   0.770728 0.273743 0.106714 -0.112441
C80   C     C_R   0.756644 0.379174 0.109564 -0.112498
C81   C     C_R   0.796271 0.432018 0.189988 -0.083539
C82   C     C_R   0.572386 0.679012 0.259551 0.111077
C83   C     C_R   0.679666 0.671889 0.310523 -0.076113
C84   C     C_R   0.716552 0.751397 0.368041 -0.150878
C85   C     C_R   0.441012 0.342046 0.942966 -0.215509
C86   C     C_R   0.647152 0.839522 0.373339 -0.097734
C87   C     C_R   0.541190 0.848296 0.320689 -0.113535
C88   C     C_R   0.504373 0.769045 0.263136 -0.221195
C89   C     C_R   0.094583 0.626259 0.640409 0.231355
C90   C     C_R   0.172451 0.606671 0.721337 -0.018057
C91   C     C_R   0.259972 0.663318 0.745713 -0.165148
C92   C     C_R   0.273117 0.738189 0.688852 -0.153823
C93   C     C_R   0.197141 0.757425 0.608092 -0.111853
C94   C     C_R   0.107659 0.702375 0.583963 -0.191771
C95   C     C_R   0.541467 0.789925 0.939248 0.251777
C96   C     C_R   0.435260 0.346128 0.032942 -0.231785
C97   C     C_R   0.627247 0.848086 0.975250 -0.154232
C98   C     C_R   0.613703 0.952651 0.964130 -0.195665
C99   C     C_R   0.516069 0.999711 0.914362 -0.126975
C100  C     C_R   0.431043 0.942615 0.876991 -0.165076
C101  C     C_R   0.442814 0.838804 0.891221 -0.127756
C102  C     C_R   0.463082 0.322252 0.760162 0.161400
C103  C     C_R   0.557111 0.255496 0.761702 -0.190263
C104  C     C_R   0.549701 0.154794 0.734546 -0.138545
C105  C     C_R   0.448110 0.119360 0.706306 -0.128276
C106  C     C_R   0.353672 0.184809 0.706026 -0.183698
H1    H     H_    0.434502 0.367751 0.205461 0.164982
H2    H     H_    0.996435 0.832972 0.893611 0.124665
H3    H     H_    0.013418 0.786524 0.736625 0.155051
H4    H     H_    0.852279 0.806005 0.609470 0.109921
H5    H     H_    0.849175 0.093786 0.763338 0.112106
H6    H     H_    0.049179 0.064326 0.812447 0.122329
H7    H     H_    0.160420 0.992587 0.703587 0.115421
H8    H     H_    0.070711 0.950508 0.545396 0.121952
H9    H     H_    0.871233 0.974781 0.496276 0.112735
H10   H     H_    0.336141 0.232493 0.379580 0.192551
H11   H     H_    0.267469 0.224651 0.214705 0.134072
H12   H     H_    0.192562 0.972817 0.387840 0.167090
H13   H     H_    0.379226 0.131228 0.115269 0.125199
H14   H     H_    0.565990 0.055366 0.181380 0.139053
H15   H     H_    0.635639 0.060400 0.347274 0.127796
H16   H     H_    0.084007 0.846791 0.415272 0.105267
H17   H     H_    0.952963 0.747060 0.315684 0.126870
H18   H     H_    0.014206 0.618868 0.208317 0.163551
H19   H     H_    0.209457 0.588030 0.203406 0.136164
H20   H     H_    0.342139 0.685032 0.304165 0.110415
H21   H     H_    0.349579 0.142090 0.524769 0.346777
H22   H     H_    0.909915 0.231712 0.323692 0.118287
H23   H     H_    0.582013 0.775442 0.626205 0.213015
H24   H     H_    0.837588 0.139217 0.181522 0.123455
H25   H     H_    0.739212 0.233062 0.044530 0.122349
H26   H     H_    0.715285 0.419966 0.049299 0.139414
H27   H     H_    0.785707 0.513541 0.190496 0.112164
H28   H     H_    0.103178 0.394515 0.204187 0.318116
H29   H     H_    0.734147 0.604557 0.306625 0.109903
H30   H     H_    0.798727 0.744622 0.408518 0.103870
H31   H     H_    0.675921 0.900766 0.418020 0.124422
H32   H     H_    0.486551 0.915842 0.324653 0.161491
H33   H     H_    0.423298 0.778166 0.220764 0.137156
H34   H     H_    0.242956 0.413295 0.319035 0.160437
H35   H     H_    0.257315 0.397437 0.603804 0.357579
H36   H     H_    0.766760 0.656690 0.740863 0.387965
H37   H     H_    0.168246 0.545650 0.764445 0.115210
H38   H     H_    0.316942 0.648342 0.809036 0.128272
H39   H     H_    0.341624 0.781766 0.707048 0.138337
H40   H     H_    0.207141 0.816272 0.565274 0.135412
H41   H     H_    0.047487 0.719930 0.522305 0.122509
H42   H     H_    0.006550 0.550161 0.787759 0.327731
H43   H     H_    0.721144 0.356676 0.355725 0.316597
H44   H     H_    0.702541 0.813127 0.015951 0.124837
H45   H     H_    0.574689 0.746926 0.107204 0.169720
H46   H     H_    0.678757 0.997389 0.994458 0.124619
H47   H     H_    0.505864 0.080557 0.905925 0.143168
H48   H     H_    0.354471 0.979407 0.840112 0.125193
H49   H     H_    0.372866 0.797990 0.869880 0.113580
H50   H     H_    0.518562 0.678344 0.719768 0.327447
H51   H     H_    0.635711 0.279713 0.791210 0.116694
H52   H     H_    0.623041 0.103739 0.738991 0.134520
H53   H     H_    0.442627 0.040646 0.687212 0.143640
H54   H     H_    0.274988 0.156720 0.687041 0.149883
H55   H     H_    0.288432 0.332836 0.742464 0.148707
H56   H     H_    0.422222 0.272494 0.906692 0.159430
H57   H     H_    0.860944 0.182773 0.469919 0.105837
H58   H     H_    0.032641 0.259178 0.522983 0.145260
H59   H     H_    0.066901 0.351651 0.671551 0.173439
H60   H     H_    0.925472 0.375876 0.762414 0.141847
H61   H     H_    0.754937 0.299078 0.710702 0.109129
H62   H     H_    0.411018 0.282074 0.061396 0.144264
H63   H     H_    0.659886 0.938020 0.795840 0.155628
H64   H     H_    0.819911 0.907221 0.923728 0.130447
N1    N     N_R   0.222190 0.444670 0.452360 -0.171720
N2    N     N_R   0.776970 0.554790 0.547140 -0.147560
O1    O     O_R   0.366740 0.627160 0.477250 -0.595589
O2    O     O_3   0.039841 0.410207 0.233017 -0.778359
O3    O     O_3   0.190504 0.444325 0.599795 -0.817666
O4    O     O_3   0.732304 0.632244 0.679584 -0.727177
O5    O     O_3   0.952431 0.607235 0.763796 -0.800584
O6    O     O_3   0.741456 0.391971 0.414952 -0.721519
O7    O     O_3   0.553222 0.676691 0.785093 -0.765050
O8    O     O_R   0.544830 0.662520 0.507680 -0.589210
O9    O     O_R   0.410940 0.482340 0.616930 -0.604582
O10   O     O_R   0.589030 0.517700 0.647360 -0.551432
O11   O     O_R   0.455170 0.337480 0.492320 -0.635281
O12   O     O_R   0.633260 0.372840 0.522750 -0.548810
O13   O     O_R   0.410970 0.482300 0.352640 -0.648802
O14   O     O_R   0.589060 0.517660 0.383070 -0.571585
O15   O     O_3   0.300590 0.108493 0.475225 -0.810073
Zn1   Zn    Zn3+2 0.381090 0.476390 0.479680 0.960108
Zn2   Zn    Zn3+2 0.618910 0.523610 0.520320 1.030509

loop_
_geom_bond_atom_site_label_1
_geom_bond_atom_site_label_2
_ccdc_geom_bond_type
C21   C26   A    
O1    Zn1   S    
H42   O5    S    
C64   H10   S    
C12   C74   A    
C18   C21   A    
C54   C55   A    
C60   H8    S    
C11   O9    A    
C29   O2    S    
C87   C88   A    
C25   H23   S    
C97   C98   A    
C30   H45   S    
C7    C8    A    
C98   H46   S    
C77   C78   A    
C44   C45   A    
C12   C102  S    
C1    O1    A    
C105  H53   S    
N1    Zn1   S    
C58   H6    S    
C5    H57   S    
C71   H17   S    
C84   C86   A    
C16   H12   S    
O8    Zn2   S    
C5    C6    A    
C1    O8    A    
C82   C88   A    
C20   C25   A    
C101  H49   S    
C15   C16   A    
C34   C37   A    
C37   C42   A    
C56   C57   A    
C18   C20   A    
C17   C18   A    
C89   C94   A    
C49   C50   A    
C92   C93   A    
C62   C64   A    
C86   H31   S    
C102  C103  A    
C46   C82   S    
C47   C48   A    
C16   C17   A    
C29   C38   A    
C61   H9    S    
C1    C28   S    
H21   O15   S    
C97   H44   S    
C96   H62   S    
C30   C41   A    
C70   C71   A    
O10   Zn2   S    
C14   C27   A    
C67   H14   S    
C41   C52   A    
C83   H29   S    
C90   H37   S    
C59   H7    S    
C72   C73   A    
C13   C56   S    
C66   C67   A    
C7    H59   S    
C59   C60   A    
C21   C22   A    
C72   H18   S    
C85   H56   S    
C73   C75   A    
C41   C95   S    
C11   O10   A    
C10   C12   A    
C104  C105  A    
O9    Zn1   S    
C50   C51   A    
C31   O4    S    
C51   H64   S    
C3    C106  A    
C38   C39   A    
C15   C69   S    
C36   N2    A    
C67   C68   A    
C30   C47   A    
C9    H61   S    
C24   C25   A    
C10   C11   S    
C89   C90   A    
C39   C40   A    
C43   N1    A    
C19   C48   A    
C8    C9    A    
C48   C63   A    
H36   O4    S    
C20   C28   A    
C58   C59   A    
C53   C54   A    
C54   H3    S    
C60   C61   A    
C51   C53   A    
C14   C23   S    
C76   C81   A    
C88   H33   S    
C23   O11   A    
C37   C38   A    
C2    C52   A    
C33   C89   S    
C70   H16   S    
C83   C84   A    
C73   H19   S    
C36   C40   A    
C35   O13   A    
C79   H25   S    
C33   C34   A    
C43   H34   S    
C56   C61   A    
C93   C94   A    
C39   C76   S    
C14   C26   A    
C80   H26   S    
C77   H22   S    
C8    H60   S    
C40   O6    S    
C3    C102  A    
C6    H58   S    
C82   C83   A    
C66   H13   S    
C55   H4    S    
C22   C24   A    
C32   O5    S    
C45   C46   A    
C2    O7    S    
C87   H32   S    
C90   C91   A    
C2    C10   A    
C91   C92   A    
C4    C27   S    
C19   C44   A    
C86   C87   A    
C91   H38   S    
C44   H1    S    
C100  H48   S    
C24   C49   S    
C46   C47   A    
C84   H30   S    
H28   O2    S    
C92   H39   S    
C78   C79   A    
C31   C32   A    
C103  H51   S    
C94   H41   S    
C104  H52   S    
C80   C81   A    
O13   Zn1   S    
C52   C63   A    
C68   H15   S    
C95   C97   A    
C81   H27   S    
C6    C7    A    
C63   C74   A    
N2    Zn2   S    
C105  C106  A    
C99   C100  A    
C62   C68   A    
C42   O3    S    
C75   H20   S    
C32   C33   A    
O14   Zn2   S    
C78   H24   S    
C71   C72   A    
C49   C55   A    
O11   Zn1   S    
C64   C65   A    
H43   O6    S    
C76   C77   A    
C53   H2    S    
C57   C58   A    
C57   H5    S    
C17   O15   S    
C35   O14   A    
C106  H54   S    
C4    C5    A    
C99   H47   S    
C100  C101  A    
C85   C96   A    
C13   C22   A    
C69   C75   A    
C50   H63   S    
C34   C36   A    
C65   C66   A    
C74   C85   A    
C26   C62   S    
C69   C70   A    
C42   N1    A    
C3    H55   S    
C79   C80   A    
C15   C28   A    
C93   H40   S    
C23   O12   A    
C98   C99   A    
C31   N2    A    
C103  C104  A    
H35   O3    S    
C65   H11   S    
O12   Zn2   S    
C13   C27   A    
C4    C9    A    
H50   O7    S    
C29   C43   A    
C19   C96   A    
C95   C101  A    
C35   C45   S    
