data_mof_unit_63093.cif
_audit_creation_date              2012-12-10T18:06:07-0500
_audit_creation_method            fapswitch 2.2
_symmetry_space_group_name_H-M    P1
_symmetry_Int_Tables_number       1
_space_group_crystal_system       triclinic
_cell_length_a                    25.997411
_cell_length_b                    25.978771
_cell_length_c                    22.163872
_cell_angle_alpha                 90.000555
_cell_angle_beta                  54.292549
_cell_angle_gamma                 90.000217
_cell_volume                      12154.9855594

loop_
_atom_site_label
_atom_site_type_symbol
_atom_type_description
_atom_site_fract_x
_atom_site_fract_y
_atom_site_fract_z
_atom_type_partial_charge
C1    C     C_R   0.400335 0.249974 0.699428 0.819718
C2    C     C_3   0.230748 0.712809 0.974815 -0.208391
C3    C     C_3   0.244200 0.204492 0.975107 -0.211346
C4    C     C_3   0.747187 0.296602 0.975132 -0.211218
C5    C     C_3   0.253753 0.703718 0.024876 -0.211255
C6    C     C_3   0.255800 0.295508 0.024893 -0.211346
C7    C     C_3   0.741725 0.705573 0.975087 -0.211448
C8    C     C_3   0.690810 0.259810 0.024182 0.252453
C9    C     C_3   0.309377 0.741150 0.975822 0.252378
C10   C     C_3   0.309724 0.256721 0.975830 0.252294
C11   C     C_3   0.689980 0.745925 0.024161 0.252177
C12   C     C_3   0.190623 0.758850 0.024178 0.252378
C13   C     C_3   0.232443 0.288583 0.974824 -0.208453
C14   C     C_3   0.809190 0.240190 0.975818 0.252453
C15   C     C_3   0.810020 0.754075 0.975839 0.252177
C16   C     C_3   0.190276 0.243279 0.024170 0.252294
C17   C     C_1   0.639352 0.249850 0.221188 -0.139064
C18   C     C_1   0.360648 0.750149 0.778811 -0.139065
C19   C     C_1   0.360649 0.249854 0.778811 -0.139078
C20   C     C_1   0.639350 0.750142 0.221188 -0.139088
C21   C     C_1   0.139352 0.749851 0.221188 -0.139065
C22   C     C_1   0.860648 0.250150 0.778811 -0.139064
C23   C     C_1   0.860650 0.749858 0.778811 -0.139088
C24   C     C_3   0.765382 0.709806 0.025165 -0.208523
C25   C     C_1   0.139351 0.250146 0.221188 -0.139078
C26   C     C_3   0.622847 0.271028 0.052307 -0.918925
C27   C     C_3   0.377555 0.731030 0.947700 -0.918726
C28   C     C_3   0.378299 0.264404 0.947717 -0.918236
C29   C     C_3   0.621067 0.741269 0.052262 -0.917633
C30   C     C_3   0.122445 0.768970 0.052300 -0.918726
C31   C     C_3   0.877153 0.228972 0.947693 -0.918925
C32   C     C_3   0.878933 0.758731 0.947738 -0.917633
C33   C     C_3   0.121701 0.235596 0.052283 -0.918236
C34   C     C_1   0.316342 0.155032 0.467638 0.188062
C35   C     C_3   0.269252 0.787191 0.025185 -0.208391
C36   C     C_1   0.683695 0.844980 0.532284 0.188031
C37   C     C_1   0.683733 0.155009 0.532200 0.187995
C38   C     C_1   0.316269 0.844990 0.467795 0.188001
C39   C     C_1   0.816305 0.655020 0.467716 0.188031
C40   C     C_1   0.183658 0.344968 0.532362 0.188062
C41   C     C_1   0.183730 0.655009 0.532205 0.188001
C42   C     C_1   0.816267 0.344991 0.467800 0.187995
C43   C     C_3   0.730000 0.213465 0.974812 -0.208397
C44   C     C_3   0.734618 0.790194 0.974835 -0.208523
C45   C     C_3   0.267557 0.211417 0.025176 -0.208453
C46   C     C_3   0.713449 0.249877 0.073302 0.142993
C47   C     C_3   0.286549 0.750120 0.926698 0.143028
C48   C     C_3   0.286549 0.249888 0.926698 0.143106
C49   C     C_R   0.599665 0.750026 0.300572 0.819697
C50   C     C_3   0.713451 0.750102 0.073302 0.143201
C51   C     C_3   0.213450 0.749880 0.073302 0.143028
C52   C     C_3   0.786551 0.250123 0.926698 0.142993
C53   C     C_3   0.786549 0.749897 0.926698 0.143201
C54   C     C_3   0.213451 0.250112 0.073302 0.143106
C55   C     C_1   0.672812 0.249821 0.154421 -0.053971
C56   C     C_1   0.327188 0.750176 0.845579 -0.054007
C57   C     C_1   0.327187 0.249831 0.845579 -0.054081
C58   C     C_1   0.672812 0.750161 0.154421 -0.054167
C59   C     C_1   0.172812 0.749824 0.154421 -0.054007
C60   C     C_R   0.599665 0.249973 0.300572 0.819746
C61   C     C_1   0.827188 0.250179 0.845579 -0.053971
C62   C     C_1   0.827188 0.749839 0.845579 -0.054167
C63   C     C_1   0.172813 0.250169 0.154421 -0.054081
C64   C     C_R   0.284278 0.203856 0.482680 -0.002453
C65   C     C_R   0.715740 0.796150 0.517284 -0.002441
C66   C     C_R   0.715758 0.203844 0.517244 -0.002420
C67   C     C_R   0.284243 0.796156 0.482753 -0.002417
C68   C     C_R   0.784260 0.703850 0.482716 -0.002441
C69   C     C_R   0.215722 0.296144 0.517320 -0.002453
C70   C     C_R   0.215757 0.703844 0.517247 -0.002417
C71   C     C_R   0.400335 0.750027 0.699428 0.819739
C72   C     C_R   0.784242 0.296156 0.482755 -0.002420
C73   C     C_R   0.231281 0.205679 0.481834 -0.239788
C74   C     C_R   0.768736 0.794328 0.518132 -0.239772
C75   C     C_R   0.768754 0.205664 0.518094 -0.239780
C76   C     C_R   0.231247 0.794335 0.481904 -0.239785
C77   C     C_R   0.731264 0.705672 0.481868 -0.239772
C78   C     C_R   0.268719 0.294321 0.518166 -0.239788
C79   C     C_R   0.268753 0.705665 0.518096 -0.239785
C80   C     C_R   0.731246 0.294336 0.481906 -0.239780
C81   C     C_R   0.196607 0.251298 0.499319 -0.055714
C82   C     C_R   0.900335 0.749974 0.699428 0.819697
C83   C     C_R   0.803393 0.748703 0.500682 -0.055707
C84   C     C_R   0.803392 0.251296 0.500683 -0.055691
C85   C     C_R   0.196608 0.748704 0.499317 -0.055693
C86   C     C_R   0.696607 0.751297 0.499318 -0.055707
C87   C     C_R   0.303393 0.248702 0.500681 -0.055714
C88   C     C_R   0.303392 0.751296 0.500683 -0.055693
C89   C     C_R   0.696608 0.248704 0.499317 -0.055691
C90   C     C_R   0.487406 0.026699 0.455170 -0.179743
C91   C     C_R   0.512595 0.973301 0.544830 -0.179737
C92   C     C_R   0.512594 0.026700 0.544830 -0.179715
C93   C     C_R   0.099665 0.250026 0.300572 0.819718
C94   C     C_R   0.487406 0.973300 0.455170 -0.179710
C95   C     C_R   0.987405 0.526699 0.455170 -0.179737
C96   C     C_R   0.012594 0.473301 0.544830 -0.179743
C97   C     C_R   0.012594 0.526700 0.544830 -0.179710
C98   C     C_R   0.987405 0.473300 0.455170 -0.179714
C99   C     C_R   0.500000 0.946321 0.500000 -0.001902
C100  C     C_R   0.500000 0.053679 0.500000 -0.001901
C101  C     C_R   1.000000 0.446321 0.500000 -0.001902
C102  C     C_R   1.000000 0.553679 0.500000 -0.001902
C103  C     C_R   0.640462 0.249383 0.499390 0.796977
C104  C     C_R   0.099665 0.749973 0.300572 0.819739
C105  C     C_R   0.359538 0.750617 0.500610 0.796966
C106  C     C_R   0.359538 0.249382 0.500610 0.796994
C107  C     C_R   0.640462 0.750617 0.499390 0.796992
C108  C     C_R   0.140462 0.749383 0.499390 0.796966
C109  C     C_R   0.859538 0.250617 0.500610 0.796977
C110  C     C_R   0.859538 0.749383 0.500610 0.796992
C111  C     C_R   0.140462 0.250618 0.499390 0.796994
C112  C     C_R   0.500000 0.109765 0.500000 0.793595
C113  C     C_R   0.500000 0.890235 0.500000 0.793598
C114  C     C_R   1.000000 0.609765 0.500000 0.793598
C115  C     C_R   0.900335 0.250027 0.699428 0.819746
C116  C     C_R   0.000000 0.390235 0.500000 0.793595
C117  C     C_R   0.500000 0.390227 0.500000 0.786548
C118  C     C_R   0.500000 0.609773 0.500000 0.786538
C119  C     C_R   1.000000 0.890227 0.500000 0.786538
C120  C     C_R   0.000000 0.109773 0.500000 0.786548
C121  C     C_R   0.556911 0.473303 0.453146 -0.188849
C122  C     C_R   0.443089 0.526697 0.546854 -0.188849
C123  C     C_R   0.443089 0.473303 0.546854 -0.188855
C124  C     C_R   0.556911 0.526697 0.453146 -0.188865
C125  C     C_R   0.056911 0.973303 0.453146 -0.188849
C126  C     C_3   0.770000 0.286535 0.025188 -0.208397
C127  C     C_R   0.943089 0.026697 0.546854 -0.188849
C128  C     C_R   0.943089 0.973303 0.546854 -0.188865
C129  C     C_R   0.056911 0.026697 0.453146 -0.188855
C130  C     C_R   0.500000 0.553682 0.500000 0.006059
C131  C     C_R   0.500000 0.446318 0.500000 0.006058
C132  C     C_R   0.000000 0.053682 0.500000 0.006058
C133  C     C_R   1.000000 0.946318 0.500000 0.006059
C134  C     C_3   0.246247 0.796282 0.975124 -0.211255
C135  C     C_3   0.752813 0.203398 0.024868 -0.211218
C136  C     C_3   0.758275 0.794427 0.024913 -0.211448
H1    H     H_    0.601420 0.453237 0.416518 0.163726
H2    H     H_    0.755267 0.165345 0.045858 0.147895
H3    H     H_    0.765185 0.830644 0.045941 0.147691
H4    H     H_    0.239308 0.167365 0.954096 0.147778
H5    H     H_    0.744733 0.334655 0.954142 0.147895
H6    H     H_    0.256974 0.665938 0.045874 0.147852
H7    H     H_    0.260692 0.332635 0.045904 0.147778
H8    H     H_    0.734815 0.669356 0.954059 0.147691
H9    H     H_    0.214904 0.682638 0.953559 0.149644
H10   H     H_    0.786450 0.316162 0.046444 0.149670
H11   H     H_    0.778081 0.677133 0.046402 0.149453
H12   H     H_    0.398580 0.546763 0.583482 0.163727
H13   H     H_    0.217976 0.319913 0.953577 0.149556
H14   H     H_    0.713550 0.183838 0.953556 0.149670
H15   H     H_    0.285096 0.817362 0.046441 0.149644
H16   H     H_    0.282024 0.180087 0.046423 0.149556
H17   H     H_    0.721919 0.822867 0.953598 0.149453
H18   H     H_    0.216223 0.171018 0.468881 0.163768
H19   H     H_    0.783808 0.828994 0.531057 0.163752
H20   H     H_    0.783841 0.170994 0.530989 0.163728
H21   H     H_    0.216161 0.829006 0.469007 0.163730
H22   H     H_    0.716192 0.671006 0.468943 0.163752
H23   H     H_    0.398580 0.453238 0.583482 0.163722
H24   H     H_    0.283777 0.328982 0.531119 0.163768
H25   H     H_    0.283839 0.670994 0.530993 0.163730
H26   H     H_    0.716159 0.329006 0.469011 0.163728
H27   H     H_    0.477444 0.046779 0.420221 0.172653
H28   H     H_    0.522556 0.953221 0.579778 0.172651
H29   H     H_    0.522556 0.046781 0.579778 0.172650
H30   H     H_    0.477444 0.953219 0.420222 0.172652
H31   H     H_    0.977444 0.546779 0.420222 0.172651
H32   H     H_    0.022556 0.453221 0.579779 0.172653
H33   H     H_    0.022556 0.546781 0.579778 0.172652
H34   H     H_    0.601420 0.546762 0.416518 0.163720
H35   H     H_    0.977444 0.453219 0.420222 0.172650
H36   H     H_    0.620354 0.276608 0.004433 0.243678
H37   H     H_    0.592037 0.238257 0.086458 0.247956
H38   H     H_    0.606132 0.306475 0.086714 0.244064
H39   H     H_    0.380152 0.725989 0.995578 0.243682
H40   H     H_    0.394984 0.695580 0.913297 0.244068
H41   H     H_    0.407696 0.764074 0.913546 0.248003
H42   H     H_    0.381091 0.268247 0.995599 0.243676
H43   H     H_    0.406955 0.230809 0.913552 0.248056
H44   H     H_    0.397313 0.299810 0.913327 0.244073
H45   H     H_    0.101420 0.953237 0.416518 0.163727
H46   H     H_    0.618108 0.738914 0.004377 0.243672
H47   H     H_    0.600102 0.706016 0.086637 0.244089
H48   H     H_    0.594275 0.775450 0.086440 0.248117
H49   H     H_    0.119848 0.774011 0.004422 0.243682
H50   H     H_    0.092304 0.735926 0.086454 0.248003
H51   H     H_    0.105016 0.804420 0.086703 0.244068
H52   H     H_    0.879646 0.223392 0.995567 0.243678
H53   H     H_    0.893868 0.193525 0.913286 0.244064
H54   H     H_    0.907963 0.261743 0.913542 0.247956
H55   H     H_    0.881892 0.761086 0.995623 0.243672
H56   H     H_    0.898580 0.046763 0.583482 0.163726
H57   H     H_    0.905725 0.724550 0.913560 0.248117
H58   H     H_    0.899898 0.793984 0.913363 0.244089
H59   H     H_    0.118909 0.231753 0.004401 0.243676
H60   H     H_    0.102686 0.200190 0.086672 0.244073
H61   H     H_    0.093045 0.269191 0.086448 0.248056
H62   H     H_    0.898580 0.953238 0.583482 0.163721
H63   H     H_    0.101420 0.046762 0.416518 0.163722
H64   H     H_    0.243026 0.834062 0.954125 0.147852
N1    N     N_1   0.341949 0.115916 0.455630 -0.197550
N2    N     N_1   0.658104 0.884099 0.544259 -0.197556
N3    N     N_1   0.658157 0.115885 0.544137 -0.197569
N4    N     N_1   0.341846 0.884114 0.455855 -0.197573
N5    N     N_1   0.841896 0.615901 0.455741 -0.197556
N6    N     N_1   0.158051 0.384084 0.544370 -0.197550
N7    N     N_1   0.158154 0.615886 0.544145 -0.197573
N8    N     N_1   0.841843 0.384115 0.455863 -0.197569
O1    O     O_3   0.500000 0.250030 0.500000 -0.483296
O2    O     O_R   0.112550 0.219620 0.335580 -0.636797
O3    O     O_R   0.112550 0.780380 0.335580 -0.636779
O4    O     O_R   0.887450 0.219620 0.664420 -0.636779
O5    O     O_R   0.594260 0.219670 0.543090 -0.634550
O6    O     O_R   0.405740 0.780330 0.456910 -0.634551
O7    O     O_R   0.405740 0.219670 0.456910 -0.634560
O8    O     O_R   0.594260 0.780330 0.543090 -0.634556
O9    O     O_R   0.094260 0.719670 0.543090 -0.634551
O10   O     O_R   0.905740 0.280330 0.456910 -0.634550
O11   O     O_R   0.905740 0.719670 0.456910 -0.634556
O12   O     O_3   0.500000 0.749970 0.500000 -0.483299
O13   O     O_R   0.094260 0.280330 0.543090 -0.634560
O14   O     O_R   0.508800 0.134220 0.543090 -0.643235
O15   O     O_R   0.491200 0.865780 0.456910 -0.643231
O16   O     O_R   0.491200 0.134220 0.456910 -0.643240
O17   O     O_R   0.508800 0.865780 0.543090 -0.643240
O18   O     O_R   0.008800 0.634220 0.543090 -0.643231
O19   O     O_R   0.991200 0.365780 0.456910 -0.643234
O20   O     O_R   0.991200 0.634220 0.456910 -0.643240
O21   O     O_R   0.008800 0.365780 0.543090 -0.643240
O22   O     O_R   0.448100 0.365830 0.543110 -0.648623
O23   O     O_3   0.000000 0.750030 0.500000 -0.483299
O24   O     O_R   0.551900 0.634170 0.456890 -0.648628
O25   O     O_R   0.551900 0.365830 0.456890 -0.648618
O26   O     O_R   0.448100 0.634170 0.543110 -0.648618
O27   O     O_R   0.948100 0.865830 0.543110 -0.648627
O28   O     O_R   0.051900 0.134170 0.456890 -0.648624
O29   O     O_R   0.051900 0.865830 0.456890 -0.648618
O30   O     O_R   0.948100 0.134170 0.543110 -0.648618
O31   O     O_R   0.637370 0.280400 0.456880 -0.644427
O32   O     O_R   0.362630 0.719600 0.543120 -0.644424
O33   O     O_R   0.362630 0.280400 0.543120 -0.644433
O34   O     O_3   0.000000 0.249970 0.500000 -0.483296
O35   O     O_R   0.637370 0.719600 0.456880 -0.644420
O36   O     O_R   0.137370 0.780400 0.456880 -0.644424
O37   O     O_R   0.862630 0.219600 0.543120 -0.644427
O38   O     O_R   0.862630 0.780400 0.543120 -0.644420
O39   O     O_R   0.137370 0.219600 0.456880 -0.644433
O40   O     O_R   0.448170 0.219660 0.664410 -0.635142
O41   O     O_R   0.551830 0.780340 0.335590 -0.635115
O42   O     O_R   0.551830 0.219660 0.335590 -0.635170
O43   O     O_R   0.448170 0.780340 0.664410 -0.635163
O44   O     O_R   0.948170 0.719660 0.664410 -0.635115
O45   O     O_R   0.387450 0.280380 0.664420 -0.636797
O46   O     O_R   0.051830 0.280340 0.335590 -0.635142
O47   O     O_R   0.051830 0.719660 0.335590 -0.635163
O48   O     O_R   0.948170 0.280340 0.664410 -0.635170
O49   O     O_R   0.612550 0.719620 0.335580 -0.636803
O50   O     O_R   0.612550 0.280380 0.335580 -0.636779
O51   O     O_R   0.387450 0.719620 0.664420 -0.636779
O52   O     O_R   0.887450 0.780380 0.664420 -0.636803
Zn1   Zn    Zn3+2 0.574170 0.293410 0.438410 0.969968
Zn2   Zn    Zn3+2 0.487410 0.793350 0.438420 0.984217
Zn3   Zn    Zn3+2 0.487410 0.206650 0.438420 0.984221
Zn4   Zn    Zn3+2 0.512590 0.793350 0.561580 0.984220
Zn5   Zn    Zn3+2 0.012590 0.706650 0.561580 0.984217
Zn6   Zn    Zn3+2 0.987410 0.293350 0.438420 0.984217
Zn7   Zn    Zn3+2 0.987410 0.706650 0.438420 0.984220
Zn8   Zn    Zn3+2 0.012590 0.293350 0.561580 0.984221
Zn9   Zn    Zn3+2 0.425830 0.706590 0.561590 0.969961
Zn10  Zn    Zn3+2 0.425830 0.293410 0.561590 0.969952
Zn11  Zn    Zn3+2 0.574170 0.706590 0.438410 0.969948
Zn12  Zn    Zn3+2 0.074170 0.793410 0.438410 0.969961
Zn13  Zn    Zn3+2 0.925830 0.206590 0.561590 0.969968
Zn14  Zn    Zn3+2 0.925830 0.793410 0.561590 0.969948
Zn15  Zn    Zn3+2 0.074170 0.206590 0.438410 0.969952
Zn16  Zn    Zn3+2 0.512590 0.206650 0.561580 0.984217

loop_
_geom_bond_atom_site_label_1
_geom_bond_atom_site_label_2
_ccdc_geom_bond_type
C78   C87   A    
C44   C136  S    
C135  H2    S    
C5    H6    S    
C12   C134  S    
C25   C93   S    
C23   C82   S    
O23   Zn7   S    
C116  O21   A    
C8    C26   S    
C39   C68   S    
C117  O22   A    
C86   C107  S    
C8    C43   S    
C74   C83   A    
C4    C8    S    
C2    C12   S    
C94   H30   S    
C126  H10   S    
C95   C98   A    
C48   C57   S    
O4    Zn13  S    
C19   C57   T    
C2    H9    S    
C7    C11   S    
C106  O7    A    
C31   H54   S    
C9    C27   S    
C67   C88   A    
C119  C133  S    
C104  O47   A    
C36   N2    T    
C115  O4    A    
C4    C52   S    
C102  C114  S    
C44   H17   S    
C30   H50   S    
C82   O44   A    
C29   H48   S    
C6    C54   S    
O34   Zn15  S    
O40   Zn16  S    
C52   C61   S    
C36   C65   S    
C25   C63   T    
C9    C35   S    
C43   C52   S    
O35   Zn11  S    
C14   C135  S    
C26   H38   S    
C34   N1    T    
C121  H1    S    
C7    C24   S    
C3    C48   S    
C68   C77   A    
C97   H33   S    
O33   Zn10  S    
O37   Zn13  S    
C111  O13   A    
C60   O50   A    
C80   C89   A    
C90   C100  A    
O12   Zn11  S    
C127  C132  A    
C113  O15   A    
C121  C124  A    
C109  O10   A    
C46   C135  S    
C6    H7    S    
C21   C104  S    
C49   O49   A    
C44   C53   S    
C23   C62   T    
C14   C52   S    
C107  O8    A    
C81   C111  S    
C33   H60   S    
C118  O24   A    
C33   H59   S    
C41   C70   S    
C46   C55   S    
C13   H13   S    
C64   C73   A    
C96   H32   S    
C42   N8    T    
O49   Zn11  S    
O34   Zn8   S    
O41   Zn2   S    
O16   Zn3   S    
O30   Zn13  S    
C103  O5    A    
C64   C87   A    
C97   C102  A    
O51   Zn9   S    
C95   C102  A    
C18   C56   T    
O43   Zn4   S    
C129  C132  A    
O52   Zn14  S    
C110  O38   A    
O48   Zn8   S    
C109  O37   A    
C21   C59   T    
C120  C132  S    
C96   C101  A    
C96   C97   A    
C60   O42   A    
C112  O16   A    
C107  O35   A    
C69   C78   A    
O12   Zn4   S    
C35   H15   S    
C121  C131  A    
C136  H3    S    
C75   H20   S    
C35   C134  S    
C71   O43   A    
C7    H8    S    
O31   Zn1   S    
O21   Zn8   S    
C1    O45   A    
C104  O3    A    
O1    Zn3   S    
C66   C89   A    
C128  H62   S    
C24   C50   S    
C40   N6    T    
C76   H21   S    
C1    C19   S    
C90   C94   A    
C40   C69   S    
C115  O48   A    
C116  O19   A    
C125  H45   S    
C50   C58   S    
C30   H49   S    
O7    Zn3   S    
C65   C86   A    
O8    Zn4   S    
C32   H58   S    
C29   H46   S    
C27   H39   S    
C4    H5    S    
C24   H11   S    
C93   O46   A    
C119  O29   A    
C15   C136  S    
O22   Zn10  S    
C26   H37   S    
C8    C46   S    
C9    C47   S    
C12   C30   S    
C3    C45   S    
C46   C126  S    
C65   C74   A    
C32   H55   S    
C95   H31   S    
C84   C109  S    
C79   H25   S    
C28   H42   S    
O32   Zn9   S    
C31   H52   S    
C134  H64   S    
C5    C9    S    
C20   C49   S    
C118  C130  S    
O20   Zn7   S    
C16   C33   S    
C114  O18   A    
C75   C84   A    
C53   C62   S    
C118  O26   A    
C113  O17   A    
O5    Zn16  S    
C33   H61   S    
O45   Zn10  S    
O1    Zn16  S    
C125  C133  A    
C37   C66   S    
C108  O36   A    
C10   C45   S    
C34   C64   S    
O2    Zn15  S    
C37   N3    T    
C83   C110  S    
C92   H29   S    
C11   C44   S    
C129  H63   S    
C43   C135  S    
O12   Zn9   S    
C28   H44   S    
C80   H26   S    
C72   C84   A    
C43   H14   S    
C79   C88   A    
C73   C81   A    
C108  O9    A    
C119  O27   A    
O1    Zn10  S    
C45   C54   S    
C100  C112  S    
C122  H12   S    
O23   Zn5   S    
C47   C134  S    
C10   C48   S    
O3    Zn12  S    
O11   Zn7   S    
C91   H28   S    
C13   C16   S    
O50   Zn1   S    
C51   C59   S    
C98   H35   S    
C106  O33   A    
C20   C58   T    
C127  C128  A    
C85   C108  S    
C15   C53   S    
C91   C92   A    
C12   C51   S    
O24   Zn11  S    
C92   C100  A    
O26   Zn9   S    
O25   Zn1   S    
C10   C28   S    
C18   C71   S    
C101  C116  S    
C17   C55   T    
C22   C115  S    
C105  O6    A    
C29   H47   S    
C123  C131  A    
C70   C79   A    
O36   Zn12  S    
C68   C83   A    
C112  O14   A    
O6    Zn2   S    
O12   Zn2   S    
C27   H41   S    
O34   Zn13  S    
C32   H57   S    
C1    O40   A    
C15   C32   S    
O46   Zn6   S    
C6    C10   S    
C13   C48   S    
O19   Zn6   S    
O1    Zn1   S    
C3    H4    S    
C2    C47   S    
C98   C101  A    
C22   C61   T    
C31   H53   S    
O9    Zn5   S    
C127  H56   S    
C14   C126  S    
C4    C126  S    
C90   H27   S    
C45   H16   S    
O23   Zn14  S    
C30   H51   S    
O28   Zn15  S    
C14   C31   S    
C82   O52   A    
C122  C123  A    
C49   O41   A    
C72   C80   A    
O13   Zn8   S    
C50   C136  S    
C128  C133  A    
C124  C130  A    
C15   C24   S    
C35   C51   S    
C88   C105  S    
C117  O25   A    
C110  O11   A    
C77   H22   S    
C87   C106  S    
C123  H23   S    
C94   C99   A    
C66   C75   A    
C39   N5    T    
O38   Zn14  S    
O10   Zn6   S    
C105  O32   A    
C27   H40   S    
C74   H19   S    
O29   Zn12  S    
O23   Zn12  S    
C78   H24   S    
O34   Zn6   S    
C111  O39   A    
O14   Zn16  S    
C71   O51   A    
C117  C131  S    
C28   H43   S    
C16   C54   S    
O42   Zn3   S    
C69   C81   A    
O18   Zn5   S    
C26   H36   S    
C2    C5    S    
C120  O28   A    
C125  C129  A    
O44   Zn5   S    
C124  H34   S    
C38   C67   S    
C11   C29   S    
C103  O31   A    
C54   C63   S    
C17   C60   S    
C120  O30   A    
C93   O2    A    
C11   C50   S    
O27   Zn14  S    
C7    C53   S    
O47   Zn7   S    
C5    C51   S    
C73   H18   S    
C38   N4    T    
C41   N7    T    
O17   Zn4   S    
C91   C99   A    
C42   C72   S    
C70   C85   A    
O39   Zn15  S    
C76   C85   A    
C122  C130  A    
O15   Zn2   S    
C89   C103  S    
C3    C16   S    
C67   C76   A    
C114  O20   A    
C47   C56   S    
C6    C13   S    
C99   C113  S    
C77   C86   A    
