data_mof_unit_13363.cif
_audit_creation_date              2012-12-10T17:23:43-0500
_audit_creation_method            fapswitch 2.2
_symmetry_space_group_name_H-M    P1
_symmetry_Int_Tables_number       1
_space_group_crystal_system       triclinic
_cell_length_a                    9.612881
_cell_length_b                    10.79257
_cell_length_c                    17.280192
_cell_angle_alpha                 92.032923
_cell_angle_beta                  86.059249
_cell_angle_gamma                 90.055445
_cell_volume                      1787.41362813

loop_
_atom_site_label
_atom_site_type_symbol
_atom_type_description
_atom_site_fract_x
_atom_site_fract_y
_atom_site_fract_z
_atom_type_partial_charge
C1    C     C_R   0.499959 0.737113 0.500893 0.811458
C2    C     C_R   0.348781 0.472804 0.775159 -0.133762
C3    C     C_R   0.420963 0.418313 0.147586 0.432783
C4    C     C_R   0.415770 0.432111 0.227981 -0.240795
C5    C     C_R   0.647504 0.522248 0.220982 0.645325
C6    C     C_R   0.652097 0.510722 0.140346 -0.197721
C7    C     C_R   0.537988 0.462236 0.103211 -0.067693
C8    C     C_2   0.437396 0.510639 0.981934 -0.059566
C9    C     C_2   0.543000 0.464045 0.018417 -0.033569
C10   C     C_R   0.527546 0.485325 0.265253 -0.220738
C11   C     C_R   0.372914 0.872957 0.634969 -0.213528
C12   C     C_R   0.481784 0.506792 0.649995 0.932968
C13   C     C_R   0.310954 0.938036 0.699098 -0.238994
C14   C     C_R   0.310076 0.066826 0.701359 0.389057
C15   C     C_R   0.371289 0.131597 0.639133 0.556003
C16   C     C_R   0.433476 0.067428 0.572368 -0.143989
C17   C     C_R   0.434046 0.936052 0.570857 0.032321
C18   C     C_R   0.499329 0.870807 0.506057 -0.132438
C19   C     C_R   0.565353 0.933095 0.444688 -0.202363
C20   C     C_R   0.564078 0.060984 0.445121 0.601985
C21   C     C_R   0.498356 0.128816 0.507771 -0.203246
C22   C     C_R   0.868913 0.335502 0.397501 -0.283512
C23   C     C_R   0.499443 0.262800 0.503000 0.952707
C24   C     C_R   0.947110 0.255117 0.347321 0.610519
C25   C     C_R   0.090390 0.254231 0.347926 0.528167
C26   C     C_R   0.156143 0.334326 0.398294 -0.368424
C27   C     C_R   0.080814 0.418359 0.450153 0.156567
C28   C     C_R   0.931419 0.418590 0.450023 0.124326
C29   C     C_R   0.920645 0.578963 0.546462 0.025871
C30   C     C_R   0.068334 0.578523 0.546780 -0.003629
C31   C     C_R   0.518263 0.497364 0.350067 0.863428
C32   C     C_R   0.470315 0.516513 0.735196 -0.226971
C33   C     C_R   0.577026 0.570039 0.777764 0.278109
C34   C     C_R   0.565020 0.570316 0.858617 0.629413
C35   C     C_R   0.446924 0.519153 0.897544 -0.076222
C36   C     C_R   0.337102 0.474472 0.855802 -0.156257
Cu1   Cu    Cu3+1 0.359340 0.500010 0.500010 0.999714
Cu2   Cu    Cu3+1 0.640660 0.499990 0.499990 1.033438
H1    H     H_    0.743269 0.543260 0.106625 0.211522
H2    H     H_    0.615392 0.882012 0.395249 0.200232
H3    H     H_    0.373821 0.772937 0.636811 0.157973
H4    H     H_    0.264779 0.887892 0.747591 0.210377
H5    H     H_    0.861303 0.644836 0.583810 0.183267
H6    H     H_    0.760094 0.328951 0.392159 0.263423
H7    H     H_    0.324715 0.399138 0.261303 0.219438
H8    H     H_    0.266271 0.327025 0.393319 0.239736
H9    H     H_    0.118760 0.643073 0.585146 0.137514
H10   H     H_    0.639607 0.436800 0.985897 0.198630
H11   H     H_    0.244339 0.437051 0.885596 0.223687
H12   H     H_    0.263637 0.434572 0.744071 0.246179
H13   H     H_    0.341225 0.539957 0.014010 0.191197
N1    N     N_R   0.852190 0.498790 0.499250 -0.182313
N2    N     N_R   0.148060 0.498710 0.499220 -0.173487
O1    O     O_R   0.381190 0.680360 0.500010 -0.587295
O2    O     O_R   0.618760 0.680340 0.500000 -0.572541
O3    O     O_R   0.367440 0.500030 0.613600 -0.565755
O4    O     O_R   0.605010 0.500010 0.613590 -0.542680
O5    O     O_R   0.381240 0.319660 0.500000 -0.566002
O6    O     O_R   0.618810 0.319640 0.499990 -0.594491
O7    O     O_R   0.394990 0.499990 0.386410 -0.610648
O8    O     O_R   0.632560 0.499970 0.386400 -0.546696
Cl1   Cl    Cl    0.723511 0.644315 0.733384 -0.546064
Cl2   Cl    Cl    0.233605 0.147229 0.783673 -0.505621
F1    F     F_    0.371883 0.256499 0.646117 -0.669587
F2    F     F_    0.623472 0.119003 0.382743 -0.623929
F3    F     F_    0.882844 0.177948 0.297405 -0.529700
F4    F     F_    0.167069 0.175827 0.298907 -0.565226
F5    F     F_    0.758118 0.573080 0.255191 -0.618616
Cl3   Cl    Cl    0.282438 0.339353 0.105683 -0.477804
F6    F     F_    0.667111 0.623019 0.899358 -0.605460

loop_
_geom_bond_atom_site_label_1
_geom_bond_atom_site_label_2
_ccdc_geom_bond_type
C31   O7    A    
C23   O5    A    
Cu1   O1    S    
C15   F1    S    
C27   N2    A    
C24   C25   A    
C16   C21   A    
C6    H1    S    
Cu2   O4    S    
C11   C13   A    
C31   O8    A    
Cu1   O5    S    
C25   F4    S    
C24   F3    S    
C1    O1    A    
Cu2   O8    S    
Cu1   N2    S    
C32   C33   A    
C33   C34   A    
C1    C18   S    
C5    C10   A    
C22   C28   A    
C13   C14   A    
C29   H5    S    
C23   O6    A    
C28   N1    A    
C8    H13   S    
C26   C27   A    
C29   C30   A    
C5    F5    S    
C14   Cl2   S    
C2    C32   A    
C13   H4    S    
C12   O3    A    
Cu1   Cu2   S    
C11   H3    S    
C6    C7    A    
C3    C7    A    
C4    H7    S    
C21   C23   S    
C12   C32   S    
C1    O2    A    
C5    C6    A    
C30   N2    A    
C22   C24   A    
Cu1   O7    S    
Cu2   N1    S    
C19   H2    S    
C12   O4    A    
C4    C10   A    
C3    C4    A    
C16   C17   A    
C30   H9    S    
C20   C21   A    
C9    H10   S    
C17   C18   A    
C34   C35   A    
C36   H11   S    
C2    C36   A    
C27   C28   A    
C7    C9    S    
C26   H8    S    
C34   F6    S    
C18   C19   A    
C22   H6    S    
C35   C36   A    
C2    H12   S    
C3    Cl3   S    
C25   C26   A    
C14   C15   A    
Cu1   O3    S    
C33   Cl1   S    
C10   C31   S    
C8    C35   S    
C15   C16   A    
C11   C17   A    
Cu2   O2    S    
C19   C20   A    
Cu2   O6    S    
C8    C9    D    
C20   F2    S    
C29   N1    A    
