data_mof_unit_60323.cif
_audit_creation_date              2012-12-10T17:59:53-0500
_audit_creation_method            fapswitch 2.2
_symmetry_space_group_name_H-M    P1
_symmetry_Int_Tables_number       1
_space_group_crystal_system       triclinic
_cell_length_a                    31.024309
_cell_length_b                    31.958051
_cell_length_c                    21.757419
_cell_angle_alpha                 90.37203
_cell_angle_beta                  135.456866
_cell_angle_gamma                 89.498002
_cell_volume                      15130.9897914

loop_
_atom_site_label
_atom_site_type_symbol
_atom_type_description
_atom_site_fract_x
_atom_site_fract_y
_atom_site_fract_z
_atom_type_partial_charge
C1    C     C_R   0.499750 0.000218 0.380907 0.799811
C2    C     C_R   0.999769 0.500198 0.380925 0.799665
C3    C     C_3   0.471889 0.736468 0.522629 -0.156328
C4    C     C_3   0.471679 0.264367 0.521739 -0.156740
C5    C     C_3   0.972013 0.236466 0.522844 -0.157256
C6    C     C_3   0.970628 0.764368 0.520084 -0.156160
C7    C     C_3   0.500403 0.708814 0.500953 0.187946
C8    C     C_3   0.499702 0.291185 0.499091 0.187821
C9    C     C_3   0.000407 0.208814 0.500976 0.187434
C10   C     C_3   0.999695 0.791184 0.499089 0.187554
C11   C     C_3   0.530148 0.764111 0.581145 -0.155801
C12   C     C_3   0.529825 0.236152 0.579593 -0.156954
C13   C     C_3   0.030271 0.264109 0.581225 -0.156336
C14   C     C_3   0.028785 0.736161 0.579152 -0.156902
C15   C     C_3   0.558662 0.735757 0.559466 -0.156114
C16   C     C_3   0.557849 0.263664 0.556948 -0.156911
C17   C     C_3   0.058665 0.235756 0.559355 -0.154652
C18   C     C_3   0.057853 0.763670 0.558160 -0.157180
C19   C     C_1   0.500589 0.837139 0.500772 -0.072288
C20   C     C_1   0.499507 0.162860 0.499238 -0.072294
C21   C     C_1   0.000593 0.337140 0.500803 -0.072114
C22   C     C_1   0.999505 0.662860 0.499241 -0.071804
C23   C     C_1   0.500266 0.662882 0.500861 -0.072225
C24   C     C_1   0.499818 0.337116 0.499186 -0.072302
C25   C     C_1   0.000267 0.162882 0.500874 -0.070561
C26   C     C_1   0.999812 0.837116 0.499184 -0.072551
C27   C     C_R   0.446953 0.994134 0.226374 0.137437
C28   C     C_R   0.946514 0.495966 0.226000 0.137938
C29   C     C_R   0.500063 0.000839 0.314554 -0.109087
C30   C     C_R   0.000154 0.500727 0.314643 -0.109955
C31   C     C_R   0.555265 0.007924 0.337571 -0.199152
C32   C     C_R   0.055888 0.505796 0.338118 -0.198450
C33   C     C_R   0.555162 0.007976 0.272734 -0.218912
C34   C     C_R   0.055740 0.505826 0.273237 -0.218776
C35   C     C_R   0.500174 0.919862 0.500137 0.825959
C36   C     C_R   0.499868 0.080138 0.499843 0.825248
C37   C     C_R   0.000174 0.419862 0.500147 0.826130
C38   C     C_R   0.999868 0.580138 0.499842 0.824216
C39   C     C_R   0.500119 0.000472 0.184533 -0.067018
C40   C     C_R   0.000061 0.500450 0.184470 -0.066831
C41   C     C_R   0.447134 0.993604 0.164517 0.113076
C42   C     C_R   0.946560 0.495567 0.164014 0.112904
C43   C     C_3   0.380025 0.984951 0.091470 -0.519875
C44   C     C_3   0.878818 0.489238 0.090545 -0.523699
C45   C     C_3   0.379703 0.985371 0.162030 -0.435326
C46   C     C_3   0.878638 0.489590 0.161230 -0.432601
C47   C     C_R   0.453910 0.980055 0.671424 0.124159
C48   C     C_R   0.958781 0.476985 0.676708 0.114821
C49   C     C_R   0.503220 0.996519 0.688327 -0.098953
C50   C     C_R   0.003889 0.497513 0.689042 -0.093156
C51   C     C_R   0.556474 0.007797 0.775897 -0.202107
C52   C     C_R   0.054552 0.513266 0.773491 -0.201331
C53   C     C_R   0.555185 0.008984 0.839383 -0.219898
C54   C     C_R   0.053686 0.514186 0.837410 -0.221684
C55   C     C_R   0.500929 0.998677 0.815809 -0.069234
C56   C     C_R   0.002816 0.498446 0.817664 -0.070540
C57   C     C_R   0.452724 0.981256 0.732334 0.115844
C58   C     C_R   0.958658 0.476824 0.738902 0.119245
C59   C     C_R   0.500678 0.999783 0.619414 0.798589
C60   C     C_R   0.000728 0.500146 0.619477 0.796443
C61   C     C_3   0.383847 0.984240 0.664831 -0.522069
C62   C     C_3   0.890275 0.475906 0.673026 -0.512322
C63   C     C_3   0.385231 0.981323 0.595866 -0.426127
C64   C     C_3   0.890463 0.475028 0.602738 -0.424970
C65   C     C_R   0.381143 0.499855 0.380907 0.802082
C66   C     C_R   0.881154 0.999832 0.380932 0.799219
C67   C     C_R   0.499995 0.580163 0.500160 0.829068
C68   C     C_R   0.499981 0.419836 0.499811 0.825504
C69   C     C_R   0.999990 0.080163 0.500156 0.831177
C70   C     C_R   0.999981 0.919836 0.499812 0.822696
C71   C     C_R   0.618802 0.499477 0.619255 0.794275
C72   C     C_R   0.118852 0.999922 0.619245 0.802450
C73   C     C_R   0.618645 0.999879 0.117687 0.804335
C74   C     C_R   0.118637 0.499884 0.117754 0.803160
C75   C     C_R   0.499163 0.000128 0.117776 0.802507
C76   C     C_R   0.999047 0.500125 0.117656 0.803619
C77   C     C_R   0.381067 0.000156 0.881680 0.801727
C78   C     C_R   0.881150 0.500192 0.880678 0.799347
C79   C     C_R   0.498541 0.999833 0.879592 0.800708
C80   C     C_R   0.999825 0.499791 0.880864 0.797953
C81   C     C_R   0.279473 0.503653 0.226219 0.139387
C82   C     C_R   0.779564 0.002792 0.226241 0.139842
C83   C     C_3   0.470821 0.735911 0.420709 -0.157466
C84   C     C_3   0.469422 0.263828 0.418620 -0.156202
C85   C     C_3   0.970708 0.235915 0.420687 -0.156887
C86   C     C_3   0.970452 0.763819 0.419063 -0.156554
C87   C     C_R   0.314496 0.499386 0.314639 -0.109884
C88   C     C_R   0.814526 0.999366 0.314720 -0.109261
C89   C     C_R   0.282274 0.494832 0.337907 -0.200556
C90   C     C_R   0.782262 0.995637 0.338036 -0.200454
C91   C     C_R   0.717537 0.995603 0.273136 -0.220250
C92   C     C_R   0.217557 0.494769 0.273055 -0.219863
C93   C     C_R   0.684466 0.999570 0.184527 -0.066724
C94   C     C_R   0.184442 0.499591 0.184543 -0.066306
C95   C     C_R   0.717549 0.003114 0.164226 0.115392
C96   C     C_R   0.217450 0.504033 0.164284 0.114328
C97   C     C_3   0.712051 0.007725 0.091091 -0.528673
C98   C     C_3   0.211723 0.509837 0.091078 -0.524934
C99   C     C_3   0.282554 0.509470 0.161715 -0.437249
C100  C     C_3   0.782870 0.007431 0.161872 -0.437444
C101  C     C_R   0.717984 0.518744 0.671965 0.019508
C102  C     C_R   0.217966 0.025176 0.676833 0.085284
C103  C     C_R   0.685468 0.501151 0.687904 -0.112386
C104  C     C_R   0.185647 0.001561 0.688056 -0.123546
C105  C     C_R   0.719311 0.488784 0.774659 -0.185339
C106  C     C_R   0.218867 0.982822 0.770957 -0.192513
C107  C     C_3   0.529077 0.763550 0.479220 -0.156111
C108  C     C_3   0.527571 0.235609 0.476480 -0.155768
C109  C     C_3   0.028963 0.263553 0.479062 -0.155973
C110  C     C_3   0.028611 0.735607 0.478135 -0.155968
C111  C     C_R   0.283259 0.981926 0.835024 -0.216191
C112  C     C_R   0.783887 0.488135 0.838479 -0.213825
C113  C     C_R   0.314610 0.001154 0.817518 -0.055691
C114  C     C_R   0.814877 0.501384 0.816661 -0.047684
C115  C     C_R   0.281737 0.025400 0.742000 0.031511
C116  C     C_R   0.780877 0.520509 0.735511 0.021100
C117  C     C_3   0.286615 0.023519 0.678528 -0.521788
C118  C     C_3   0.784186 0.515482 0.670384 -0.463409
C119  C     C_3   0.713862 0.515016 0.598417 0.337991
C120  C     C_3   0.216452 0.024105 0.605533 0.324517
C121  C     C_1   0.500495 0.874893 0.500560 -0.173080
C122  C     C_1   0.499581 0.125107 0.499437 -0.172576
C123  C     C_1   0.000496 0.374894 0.500581 -0.173127
C124  C     C_1   0.999580 0.625106 0.499440 -0.171800
C125  C     C_1   0.500135 0.625129 0.500638 -0.174849
C126  C     C_1   0.499908 0.374869 0.499393 -0.173474
C127  C     C_1   0.000133 0.125130 0.500641 -0.169086
C128  C     C_1   0.999905 0.874869 0.499391 -0.172746
C129  C     C_3   0.442308 0.764259 0.442385 -0.157998
C130  C     C_3   0.441398 0.236313 0.441269 -0.157082
C131  C     C_3   0.942315 0.264261 0.442554 -0.157952
C132  C     C_3   0.941383 0.736305 0.440058 -0.156417
C133  C     C_3   0.500565 0.791206 0.500899 0.187581
C134  C     C_3   0.499545 0.208793 0.499126 0.187678
C135  C     C_3   0.000570 0.291206 0.500932 0.187373
C136  C     C_3   0.999541 0.708792 0.499129 0.187519
Cu1   Cu    Cu3+1 0.438230 0.000000 0.438170 0.941083
Cu2   Cu    Cu3+1 0.938230 0.500000 0.438170 0.944323
Cu3   Cu    Cu3+1 0.561800 0.000000 0.561830 0.946539
Cu4   Cu    Cu3+1 0.061800 0.500000 0.561830 0.947018
Cu5   Cu    Cu3+1 0.499880 0.500000 0.438060 0.925753
Cu6   Cu    Cu3+1 0.999880 0.000000 0.438060 0.944716
Cu7   Cu    Cu3+1 0.500000 0.500000 0.561790 0.946933
Cu8   Cu    Cu3+1 0.000000 0.000000 0.561790 0.947808
Cu9   Cu    Cu3+1 0.500030 0.958570 0.000020 0.950788
Cu10  Cu    Cu3+1 0.500030 0.041430 0.000020 0.951632
Cu11  Cu    Cu3+1 0.000030 0.458570 0.000020 0.950608
Cu12  Cu    Cu3+1 0.000030 0.541430 0.000020 0.952534
H1    H     H_    0.552606 0.775159 0.461362 0.132227
H2    H     H_    0.550571 0.223326 0.457861 0.132186
H3    H     H_    0.052393 0.275164 0.461051 0.132106
H4    H     H_    0.052472 0.723323 0.460879 0.132179
H5    H     H_    0.370159 0.954202 0.172836 0.196302
H6    H     H_    0.353421 0.012133 0.155527 0.201144
H7    H     H_    0.866770 0.458759 0.169628 0.196802
H8    H     H_    0.854452 0.517240 0.156998 0.200439
H9    H     H_    0.597863 0.017545 0.794484 0.165373
H10   H     H_    0.093001 0.526861 0.788593 0.162673
H11   H     H_    0.595531 0.018923 0.905462 0.138537
H12   H     H_    0.091518 0.528041 0.900605 0.141325
H13   H     H_    0.367643 0.015692 0.663580 0.202603
H14   H     H_    0.363267 0.956506 0.666527 0.204505
H15   H     H_    0.871739 0.505710 0.672867 0.199855
H16   H     H_    0.873884 0.446246 0.676832 0.205226
H17   H     H_    0.367237 0.010122 0.554897 0.206339
H18   H     H_    0.367124 0.951032 0.559794 0.197691
H19   H     H_    0.869772 0.503581 0.561279 0.211612
H20   H     H_    0.874778 0.444704 0.567153 0.196989
H21   H     H_    0.306698 0.491286 0.405645 0.169268
H22   H     H_    0.806654 0.992730 0.405845 0.169541
H23   H     H_    0.693556 0.992744 0.292036 0.135654
H24   H     H_    0.193613 0.491256 0.291922 0.135420
H25   H     H_    0.691588 0.038244 0.057384 0.199615
H26   H     H_    0.691189 0.979842 0.047774 0.202690
H27   H     H_    0.191278 0.540632 0.058569 0.198822
H28   H     H_    0.190653 0.482368 0.046547 0.203336
H29   H     H_    0.302850 0.540031 0.169723 0.197994
H30   H     H_    0.302431 0.481807 0.157964 0.201714
H31   H     H_    0.803111 0.037756 0.168773 0.198489
H32   H     H_    0.802924 0.979426 0.159433 0.201440
H33   H     H_    0.696178 0.477699 0.792010 0.160798
H34   H     H_    0.195219 0.966993 0.784492 0.158589
H35   H     H_    0.446411 0.723851 0.354700 0.131785
H36   H     H_    0.444579 0.275676 0.352397 0.132614
H37   H     H_    0.946201 0.223858 0.354635 0.132096
H38   H     H_    0.946460 0.775659 0.353203 0.132592
H39   H     H_    0.308322 0.965689 0.896921 0.138929
H40   H     H_    0.809315 0.476566 0.903529 0.134748
H41   H     H_    0.307653 0.993324 0.684761 0.190222
H42   H     H_    0.309008 0.052037 0.683352 0.176177
H43   H     H_    0.804929 0.484783 0.679061 0.182204
H44   H     H_    0.803991 0.543440 0.668231 0.186751
H45   H     H_    0.606534 0.723573 0.607632 0.131537
H46   H     H_    0.605756 0.275386 0.604529 0.130973
H47   H     H_    0.106536 0.223571 0.607405 0.132302
H48   H     H_    0.105769 0.775399 0.606737 0.130852
H49   H     H_    0.554554 0.776174 0.647150 0.132273
H50   H     H_    0.554670 0.224308 0.645821 0.131311
H51   H     H_    0.054773 0.276169 0.647273 0.132339
H52   H     H_    0.052778 0.724324 0.645016 0.131320
H53   H     H_    0.448358 0.724859 0.540481 0.132588
H54   H     H_    0.448679 0.276648 0.540360 0.132267
H55   H     H_    0.948579 0.224855 0.540850 0.132623
H56   H     H_    0.946768 0.776651 0.537343 0.132729
H57   H     H_    0.394433 0.776437 0.394213 0.132158
H58   H     H_    0.393491 0.224591 0.393690 0.132609
H59   H     H_    0.894440 0.276439 0.394497 0.132426
H60   H     H_    0.893468 0.724578 0.391483 0.133284
H61   H     H_    0.598314 0.013526 0.405093 0.167830
H62   H     H_    0.099422 0.509782 0.406046 0.168182
H63   H     H_    0.597744 0.013490 0.291392 0.135730
H64   H     H_    0.098740 0.509738 0.292261 0.134840
H65   H     H_    0.370665 0.953584 0.061560 0.198678
H66   H     H_    0.354154 0.011536 0.044453 0.201791
H67   H     H_    0.867118 0.458230 0.058271 0.198545
H68   H     H_    0.854895 0.516712 0.045678 0.201392
O1    O     O_R   0.447840 0.000000 0.357610 -0.586796
O2    O     O_R   0.947840 0.500000 0.357610 -0.586918
O3    O     O_R   0.500000 0.560470 0.552180 -0.577138
O4    O     O_R   0.500000 0.439530 0.552180 -0.580985
O5    O     O_R   0.000000 0.060470 0.552180 -0.580226
O6    O     O_R   0.000000 0.939530 0.552180 -0.581850
O7    O     O_R   0.590030 0.500000 0.537810 -0.612523
O8    O     O_R   0.090030 0.000000 0.537810 -0.594058
O9    O     O_R   0.590140 0.500000 0.642300 -0.584634
O10   O     O_R   0.090140 0.000000 0.642300 -0.586002
O11   O     O_R   0.590180 0.965000 0.090240 -0.583454
O12   O     O_R   0.590180 0.035000 0.090240 -0.585768
O13   O     O_R   0.090180 0.465000 0.090240 -0.584067
O14   O     O_R   0.090180 0.535000 0.090240 -0.586280
O15   O     O_R   0.500040 0.965010 0.090190 -0.586815
O16   O     O_R   0.500040 0.034990 0.090190 -0.584839
O17   O     O_R   0.000040 0.465010 0.090190 -0.586168
O18   O     O_R   0.000040 0.534990 0.090190 -0.584331
O19   O     O_R   0.409890 0.965030 0.909800 -0.590235
O20   O     O_R   0.409890 0.034970 0.909800 -0.583326
O21   O     O_R   0.909890 0.465030 0.909800 -0.589294
O22   O     O_R   0.909890 0.534970 0.909800 -0.583066
O23   O     O_R   0.500040 0.965020 0.909850 -0.584232
O24   O     O_R   0.500040 0.034980 0.909850 -0.586630
O25   O     O_R   0.000040 0.465020 0.909850 -0.585095
O26   O     O_R   0.000040 0.534980 0.909850 -0.586673
O27   O     O_R   0.552190 0.000000 0.462050 -0.591253
O28   O     O_R   0.052190 0.500000 0.462050 -0.591589
O29   O     O_R   0.447840 0.939540 0.447780 -0.582620
O30   O     O_R   0.447840 0.060460 0.447780 -0.581396
O31   O     O_R   0.947840 0.439540 0.447780 -0.582201
O32   O     O_R   0.947840 0.560460 0.447780 -0.580508
O33   O     O_R   0.552190 0.939560 0.552210 -0.578456
O34   O     O_R   0.552190 0.060440 0.552210 -0.581322
O35   O     O_R   0.052190 0.439560 0.552210 -0.578377
O36   O     O_R   0.052190 0.560440 0.552210 -0.581937
O37   O     O_R   0.447840 0.000000 0.537950 -0.588620
O38   O     O_R   0.947840 0.500000 0.537950 -0.587410
O39   O     O_R   0.552190 0.000000 0.642390 -0.591085
O40   O     O_R   0.052190 0.500000 0.642390 -0.590223
O41   O     O_R   0.409740 0.500000 0.357550 -0.585796
O42   O     O_R   0.909740 0.000000 0.357550 -0.587642
O43   O     O_R   0.409840 0.500000 0.462040 -0.591422
O44   O     O_R   0.909840 0.000000 0.462040 -0.592194
O45   O     O_R   0.499890 0.560480 0.447700 -0.584968
O46   O     O_R   0.499890 0.439520 0.447700 -0.582680
O47   O     O_R   0.999890 0.060480 0.447700 -0.575081
O48   O     O_R   0.999890 0.939520 0.447700 -0.583606
N1    N     N_3   0.690013 0.475209 0.549415 -0.552006
H69   H     H_    0.699065 0.451514 0.590337 0.206317
H70   H     H_    0.641206 0.477610 0.497482 0.235135
N2    N     N_3   0.687218 0.552470 0.541704 -0.557599
H71   H     H_    0.638173 0.548772 0.492220 0.223897
H72   H     H_    0.698189 0.578680 0.579825 0.206811
N3    N     N_3   0.191707 0.985987 0.551654 -0.575676
H73   H     H_    0.200453 0.960809 0.589295 0.214352
H74   H     H_    0.143792 0.990152 0.499267 0.256377
N4    N     N_3   0.189528 0.062546 0.552057 -0.576066
H75   H     H_    0.190585 0.059565 0.504594 0.231148
H76   H     H_    0.216342 0.087746 0.593302 0.210739

loop_
_geom_bond_atom_site_label_1
_geom_bond_atom_site_label_2
_ccdc_geom_bond_type
C24   C126  T    
C73   C93   S    
Cu9   Cu10  S    
C39   C41   A    
C46   H7    S    
Cu12  O22   S    
C68   O4    A    
C110  H4    S    
C67   C125  S    
N3    H73   S    
C119  N1    S    
C77   O19   A    
N4    H75   S    
Cu6   O42   S    
Cu6   O8    S    
C61   C63   S    
C62   C64   S    
C1    O27   A    
Cu7   O4    S    
C11   C15   S    
C63   H18   S    
C12   C16   S    
C49   C51   A    
C50   C52   A    
C4    C12   S    
C5    C13   S    
C48   C50   A    
C78   O22   A    
C3    C129  S    
C41   C43   S    
C130  C134  S    
Cu4   O35   S    
C42   C44   S    
C77   C113  S    
C44   C46   S    
C65   C87   S    
C54   C56   A    
C52   H10   S    
C53   H11   S    
C97   H25   S    
C18   H48   S    
C6    C132  S    
C73   O11   A    
C4    C130  S    
C81   C99   S    
C37   O35   A    
C51   H9    S    
C40   C76   S    
Cu4   O28   S    
C32   C34   A    
C21   C123  T    
C65   O41   A    
C118  H43   S    
C62   H15   S    
C31   H61   S    
C92   C94   A    
C83   H35   S    
C111  C113  A    
C94   C96   A    
C34   H64   S    
C129  C133  S    
C105  C112  A    
N2    H72   S    
C87   C89   A    
Cu6   Cu8   S    
Cu6   O47   S    
C101  C103  A    
C86   C110  S    
C44   H68   S    
Cu5   O45   S    
C17   C109  S    
C95   C97   S    
C57   C61   S    
C3    C7    S    
C37   O31   A    
C91   H23   S    
C89   H21   S    
C85   C131  S    
C98   H27   S    
Cu11  O13   S    
C86   C132  S    
C10   C18   S    
C84   C130  S    
C116  C118  S    
C69   O5    A    
C3    C11   S    
C64   H20   S    
C98   C99   S    
Cu1   O1    S    
C2    O2    A    
C12   H50   S    
C76   O18   A    
C45   H6    S    
C20   C134  S    
C2    O28   A    
C21   C135  S    
C113  C115  A    
C72   O8    A    
C7    C83   S    
C109  C135  S    
C110  C136  S    
Cu11  Cu12  S    
C131  H59   S    
C68   O46   A    
C90   C91   A    
C69   O47   A    
C70   O48   A    
Cu9   O11   S    
C28   C46   S    
C129  H57   S    
C14   C136  S    
C65   O43   A    
C92   H24   S    
C83   C129  S    
C64   H19   S    
C66   O44   A    
C66   C88   S    
C6    C14   S    
Cu11  O25   S    
C60   O40   A    
C80   O25   A    
C9    C85   S    
C37   C123  S    
C38   O36   A    
C96   C98   S    
C102  C115  A    
C39   C75   S    
Cu3   O27   S    
C20   C122  T    
C40   C42   A    
C93   C95   A    
C12   C134  S    
Cu12  O26   S    
C13   C135  S    
C79   O24   A    
Cu7   O9    S    
C74   O13   A    
C67   O45   A    
C106  C111  A    
C85   H37   S    
C62   H16   S    
C61   H14   S    
C84   H36   S    
Cu7   O43   S    
C99   H30   S    
C51   C53   A    
C75   O15   A    
C5    C9    S    
C130  H58   S    
C47   C57   A    
Cu1   O29   S    
C36   O34   A    
C132  C136  S    
C38   O32   A    
C103  C105  A    
C43   C45   S    
Cu8   O5    S    
C117  H41   S    
Cu5   O7    S    
C108  H2    S    
Cu12  O14   S    
C100  H32   S    
C97   C100  S    
C71   C103  S    
C19   C121  T    
C82   C95   A    
C13   H51   S    
C66   O42   A    
C5    H55   S    
C114  C116  A    
C46   H8    S    
C49   C59   S    
C13   C17   S    
C2    C30   S    
C50   C60   S    
C67   O3    A    
Cu10  O12   S    
C82   C88   A    
C119  N2    S    
C7    C15   S    
C8    C24   S    
C56   C58   A    
N4    H76   S    
C75   O16   A    
C16   H46   S    
Cu7   O3    S    
C107  H1    S    
C63   H17   S    
C8    C16   S    
Cu5   O41   S    
C105  H33   S    
C43   H66   S    
C38   C124  S    
C58   C62   S    
C71   O9    A    
C74   C94   S    
Cu4   O36   S    
C104  C106  A    
C9    C25   S    
Cu3   O33   S    
Cu1   Cu3   S    
C85   C109  S    
Cu5   Cu7   S    
C47   C63   S    
C48   C64   S    
C59   O37   A    
C15   C107  S    
Cu2   O31   S    
C118  H44   S    
C10   C86   S    
C115  C117  S    
C4    C8    S    
C27   C45   S    
Cu9   O15   S    
C72   O10   A    
C78   C114  S    
Cu6   O48   S    
C112  C114  A    
Cu11  O21   S    
C35   O29   A    
C35   C121  S    
C117  C120  S    
N1    H70   S    
C81   C96   A    
C72   C104  S    
C59   O39   A    
C77   O20   A    
C22   C136  S    
Cu3   O39   S    
C6    H56   S    
C91   C93   A    
C55   C79   S    
C4    H54   S    
C81   C87   A    
C88   C90   A    
C86   H38   S    
C78   O21   A    
Cu9   O19   S    
C3    H53   S    
C34   C40   A    
Cu3   O34   S    
C45   H5    S    
C102  C120  S    
C97   H26   S    
C8    C84   S    
C18   C110  S    
C56   C80   S    
C6    C10   S    
C73   O12   A    
C48   C58   A    
C19   C133  S    
C111  H39   S    
C70   O6    A    
C25   C127  T    
C107  C133  S    
C1    C29   S    
C14   H52   S    
C28   C30   A    
C84   C108  S    
C80   O26   A    
Cu12  O18   S    
C54   H12   S    
C15   H45   S    
C5    C131  S    
N2    H71   S    
C69   C127  S    
C101  C116  A    
C1    O1    A    
Cu2   O38   S    
C44   H67   S    
C36   O30   A    
Cu5   O46   S    
C14   C18   S    
C79   O23   A    
C74   O14   A    
C47   C49   A    
Cu10  O16   S    
C108  C134  S    
C109  H3    S    
C33   C39   A    
C120  N3    S    
C61   H13   S    
C99   H29   S    
C131  C135  S    
C11   C133  S    
C7    C23   S    
C35   O33   A    
C98   H28   S    
C118  C119  S    
C106  H34   S    
C31   C33   A    
C76   O17   A    
Cu4   O40   S    
N1    H69   S    
Cu8   O6    S    
C23   C125  T    
C10   C26   S    
Cu8   O10   S    
C60   O38   A    
C52   C54   A    
C53   C55   A    
Cu10  O20   S    
C71   O7    A    
C101  C119  S    
C120  N4    S    
C32   H62   S    
C36   C122  S    
C11   H49   S    
C27   C41   A    
C90   H22   S    
C26   C128  T    
C89   C92   A    
C102  C104  A    
Cu2   Cu4   S    
Cu11  O17   S    
C9    C17   S    
C132  H60   S    
C17   H47   S    
C43   H65   S    
C68   C126  S    
C70   C128  S    
N3    H74   S    
C82   C100  S    
Cu10  O24   S    
C112  H40   S    
C22   C124  T    
C27   C29   A    
C55   C57   A    
C29   C31   A    
C30   C32   A    
Cu1   O30   S    
C33   H63   S    
Cu9   O23   S    
C28   C42   A    
C83   C107  S    
Cu8   O44   S    
Cu2   O32   S    
C117  H42   S    
C16   C108  S    
Cu2   O2    S    
C100  H31   S    
Cu1   O37   S    
