data_mof_unit_58130.cif
_audit_creation_date              2012-10-26T20:22:07-0400
_audit_creation_method            fapswitch 2.2
_symmetry_space_group_name_H-M    P1
_symmetry_Int_Tables_number       1
_space_group_crystal_system       triclinic
_cell_length_a                    10.825788
_cell_length_b                    9.539616
_cell_length_c                    10.67048
_cell_angle_alpha                 90.293876
_cell_angle_beta                  90.086966
_cell_angle_gamma                 90.020565
_cell_volume                      1101.96582335

loop_
_atom_site_label
_atom_site_type_symbol
_atom_type_description
_atom_site_fract_x
_atom_site_fract_y
_atom_site_fract_z
_atom_type_partial_charge
C1    C     C_R   0.871739 0.500023 0.500364 0.043810
C2    C     C_3   0.464034 0.373422 0.037639 0.183551
C3    C     C_3   0.386408 0.471088 0.953430 -0.221713
C4    C     C_3   0.613158 0.528782 0.046557 -0.151143
C5    C     C_3   0.504132 0.501765 0.876633 -0.072038
C6    C     C_3   0.495573 0.498179 0.123321 -0.052335
C7    C     C_R   0.405360 0.073892 0.446325 0.068979
C8    C     C_R   0.594622 0.926096 0.553718 0.073629
C9    C     C_R   0.594683 0.074623 0.553605 0.070736
C10   C     C_R   0.405414 0.925364 0.446209 0.066559
C11   C     C_R   0.063841 0.372637 0.502674 -0.107833
C12   C     C_R   0.128262 0.499978 0.499903 0.040219
C13   C     C_R   0.936161 0.627366 0.497659 -0.102030
C14   C     C_R   0.936076 0.372661 0.502983 -0.090377
C15   C     C_R   0.063925 0.627343 0.497354 -0.091933
C16   C     C_R   0.262136 0.499984 0.499892 0.560024
C17   C     C_R   0.737865 0.500016 0.500209 0.568651
C18   C     C_R   0.496767 0.499481 0.259602 0.597166
C19   C     C_R   0.503156 0.500507 0.740387 0.589156
C20   C     C_3   0.419638 0.596217 0.039911 0.172395
C21   C     C_3   0.580016 0.403870 0.960071 0.235675
C22   C     C_3   0.535711 0.626481 0.962275 0.203245
Cu1   Cu    Cu3+1 0.500000 0.640660 0.500000 1.060334
Cu2   Cu    Cu3+1 0.500000 0.359340 0.500000 1.062189
H1    H     H_    0.329367 0.129047 0.403171 0.160610
H2    H     H_    0.112012 0.726898 0.495034 0.141548
H3    H     H_    0.272916 0.774762 0.899067 0.356005
H4    H     H_    0.840974 0.166095 0.995878 0.369782
H5    H     H_    0.700548 0.945228 0.020844 0.392250
H6    H     H_    0.311465 0.164292 0.912191 0.331009
H7    H     H_    0.670514 0.870931 0.597089 0.159047
H8    H     H_    0.670762 0.130391 0.596652 0.158519
H9    H     H_    0.329492 0.869586 0.402863 0.160169
H10   H     H_    0.293651 0.447817 0.913932 0.153712
H11   H     H_    0.705903 0.552218 0.086031 0.179038
H12   H     H_    0.111861 0.273067 0.504732 0.135903
H13   H     H_    0.888143 0.726938 0.495604 0.139076
H14   H     H_    0.887990 0.273106 0.505310 0.143092
N1    N     N_R   0.500000 0.852070 0.500000 -0.240943
N2    N     N_R   0.500000 0.147930 0.500000 -0.241223
O1    O     O_R   0.319640 0.618740 0.499990 -0.519156
O2    O     O_2   0.372180 0.846839 0.147075 -0.159831
O3    O     O_3   0.217517 0.770635 0.972706 -0.454852
O4    O     O_2   0.627810 0.157143 0.847338 -0.219652
O5    O     O_2   0.776440 0.348013 0.815112 -0.295622
O6    O     O_3   0.774070 0.224335 0.032045 -0.495302
O7    O     O_2   0.706506 0.772459 0.837077 -0.301344
O8    O     O_2   0.496927 0.870437 0.841954 -0.213228
O9    O     O_3   0.629709 0.885888 0.045438 -0.416884
O10   O     O_2   0.509516 0.132179 0.157965 -0.162478
O11   O     O_2   0.297315 0.221671 0.165172 -0.285755
O12   O     O_R   0.680360 0.381260 0.500010 -0.512089
O13   O     O_3   0.374412 0.108729 0.957483 -0.384788
O14   O     O_R   0.680360 0.618740 0.500010 -0.522028
O15   O     O_R   0.319640 0.381260 0.499990 -0.527744
O16   O     O_R   0.499970 0.618770 0.316850 -0.464317
O17   O     O_R   0.500030 0.381230 0.683150 -0.471309
O18   O     O_R   0.500030 0.618770 0.683150 -0.463876
O19   O     O_R   0.499970 0.381230 0.316850 -0.454030
O20   O     O_2   0.228970 0.654564 0.191700 -0.265340
S1    S     S_3+6 0.308026 0.720879 0.092721 0.103327
S2    S     S_3+6 0.691790 0.279560 0.908066 0.061137
S3    S     S_3+6 0.593106 0.793409 0.916117 0.095599
S4    S     S_3+6 0.410177 0.205097 0.084684 0.125053

loop_
_geom_bond_atom_site_label_1
_geom_bond_atom_site_label_2
_ccdc_geom_bond_type
Cu2   O12   S    
C7    C10   A    
C7    N2    A    
O13   S4    S    
C5    C19   S    
C8    N1    A    
C14   H14   S    
O10   S4    D    
O5    S2    D    
C13   H13   S    
C7    H1    S    
C12   C15   A    
C18   O16   A    
C11   C12   A    
C3    C5    S    
C2    C21   S    
C2    C3    S    
C8    C9    A    
C4    H11   S    
C5    C21   S    
Cu1   O16   S    
H5    O9    S    
C19   O17   A    
Cu2   O15   S    
C4    C21   S    
O2    S1    D    
H4    O6    S    
C21   S2    S    
C2    C6    S    
O6    S2    S    
Cu2   O19   S    
Cu1   N1    S    
C17   O14   A    
C17   O12   A    
C11   H12   S    
Cu2   N2    S    
C2    S4    S    
C10   H9    S    
O9    S3    S    
C13   C15   A    
C19   O18   A    
O7    S3    D    
C6    C18   S    
H6    O13   S    
C16   O15   A    
C1    C13   A    
C5    C22   S    
Cu1   Cu2   S    
C20   S1    S    
H3    O3    S    
C18   O19   A    
C3    C20   S    
C6    C20   S    
C3    H10   S    
O3    S1    S    
Cu1   O14   S    
C4    C6    S    
C11   C14   A    
C4    C22   S    
O20   S1    D    
C15   H2    S    
C1    C14   A    
C9    H8    S    
O4    S2    D    
C22   S3    S    
C8    H7    S    
C1    C17   S    
C16   O1    A    
C10   N1    A    
C9    N2    A    
Cu1   O18   S    
O11   S4    D    
C12   C16   S    
C20   C22   S    
Cu2   O17   S    
O8    S3    D    
Cu1   O1    S    
