data_mof_unit_48867.cif
_audit_creation_date              2012-12-10T18:13:12-0500
_audit_creation_method            fapswitch 2.2
_symmetry_space_group_name_H-M    P1
_symmetry_Int_Tables_number       1
_space_group_crystal_system       triclinic
_cell_length_a                    10.75315
_cell_length_b                    9.506282
_cell_length_c                    19.38765
_cell_angle_alpha                 90.836623
_cell_angle_beta                  92.8999
_cell_angle_gamma                 90.607777
_cell_volume                      1978.97696665

loop_
_atom_site_label
_atom_site_type_symbol
_atom_type_description
_atom_site_fract_x
_atom_site_fract_y
_atom_site_fract_z
_atom_type_partial_charge
C1    C     C_R   0.259764 0.499608 0.498991 0.764820
C2    C     C_R   0.530171 0.511135 0.069716 0.437194
C3    C     C_R   0.545946 0.631212 0.817144 -0.140574
C4    C     C_R   0.499313 0.381238 0.816791 -0.140122
C5    C     C_R   0.536717 0.629611 0.745079 -0.143655
C6    C     C_R   0.491015 0.379452 0.744888 -0.184750
C7    C     C_R   0.509070 0.503645 0.708371 -0.025306
C8    C     C_R   0.526670 0.507095 0.853678 0.054754
C9    C     C_3   0.078277 0.467773 0.571757 -0.390560
C10   C     C_3   0.065654 0.386918 0.447024 -0.407727
C11   C     C_3   0.934180 0.466986 0.571970 0.062532
C12   C     C_3   0.922257 0.385030 0.447609 0.073658
C13   C     C_3   0.070248 0.645271 0.476311 -0.370242
C14   C     C_3   0.121444 0.499618 0.498532 0.070005
C15   C     C_3   0.877487 0.500902 0.498455 0.031395
C16   C     C_R   0.502884 0.499895 0.367467 0.812792
C17   C     C_3   0.927847 0.646244 0.476175 -0.349440
C18   C     C_3   0.628359 0.084968 0.509082 -0.269547
C19   C     C_3   0.627938 0.918442 0.512106 -0.267549
C20   C     C_3   0.432479 0.083921 0.559928 -0.184981
C21   C     C_3   0.425917 0.917723 0.557258 -0.188721
C22   C     C_3   0.442882 0.081019 0.435284 0.166668
C23   C     C_3   0.448486 0.913211 0.433781 0.188401
C24   C     C_R   0.739561 0.500485 0.499038 0.862976
C25   C     C_R   0.501975 0.501042 0.632401 0.823295
C26   C     C_R   0.594925 0.598444 0.259952 0.173849
C27   C     C_R   0.432780 0.416265 0.247176 0.125021
C28   C     C_R   0.598311 0.602897 0.187662 -0.151221
C29   C     C_R   0.441194 0.420573 0.175679 -0.133588
C30   C     C_R   0.523725 0.512314 0.145468 -0.035464
C31   C     C_R   0.511898 0.502716 0.291006 -0.022082
C32   C     C_R   0.531135 0.508424 0.929806 0.412342
Cu1   Cu    Cu3+1 0.499860 0.642410 0.500030 0.912334
Cu2   Cu    Cu3+1 0.499860 0.357590 0.500030 0.916560
H1    H     H_    0.898541 0.731343 0.511630 0.199711
H2    H     H_    0.889433 0.672423 0.423722 0.186530
H3    H     H_    0.677367 0.128933 0.556661 0.167409
H4    H     H_    0.670348 0.884781 0.562678 0.184009
H5    H     H_    0.683772 0.118640 0.465151 0.161141
H6    H     H_    0.688848 0.877233 0.471948 0.148645
H7    H     H_    0.480276 0.116915 0.609857 0.140970
H8    H     H_    0.460516 0.877822 0.608185 0.145970
H9    H     H_    0.499318 0.116939 0.392173 0.125252
H10   H     H_    0.514448 0.884881 0.393468 0.114691
H11   H     H_    0.337718 0.128153 0.561742 0.147579
H12   H     H_    0.327301 0.882303 0.550823 0.148552
H13   H     H_    0.661973 0.675163 0.164350 0.166332
H14   H     H_    0.381083 0.352451 0.143060 0.165037
H15   H     H_    0.566734 0.729834 0.844153 0.153988
H16   H     H_    0.484286 0.283653 0.843424 0.154743
H17   H     H_    0.552091 0.726820 0.718171 0.147484
H18   H     H_    0.469733 0.280823 0.717987 0.137319
H19   H     H_    0.118892 0.547752 0.609089 0.203681
H20   H     H_    0.097484 0.407660 0.394392 0.198912
H21   H     H_    0.113760 0.363567 0.588688 0.145060
H22   H     H_    0.099079 0.281336 0.462051 0.157112
H23   H     H_    0.902292 0.360124 0.586509 0.121534
H24   H     H_    0.892276 0.279990 0.465793 0.123782
H25   H     H_    0.107863 0.729478 0.512305 0.180452
H26   H     H_    0.099622 0.669731 0.423572 0.172398
N1    N     N_R   0.486913 0.397574 0.032312 -0.231904
N2    N     N_R   0.575385 0.623233 0.035881 -0.228919
N3    N     N_R   0.487554 0.396120 0.963855 -0.235806
N4    N     N_R   0.575531 0.621998 0.967129 -0.230540
N5    N     N_3   0.500250 0.143650 0.501520 -0.125848
N6    N     N_3   0.500250 0.856350 0.501520 -0.130142
O1    O     O_R   0.317570 0.620260 0.500040 -0.594607
O2    O     O_R   0.317570 0.379740 0.500040 -0.595727
O3    O     O_R   0.499870 0.620300 0.400170 -0.603702
O4    O     O_R   0.499870 0.379700 0.400170 -0.570752
O5    O     O_R   0.682190 0.620260 0.500020 -0.581840
O6    O     O_R   0.682190 0.379740 0.500020 -0.592296
O7    O     O_R   0.499890 0.620220 0.599880 -0.580111
O8    O     O_R   0.499890 0.379780 0.599880 -0.589141
C33   C     C_3   0.683144 0.696765 0.300671 -0.817357
H27   H     H_    0.647364 0.805706 0.297847 0.212864
H28   H     H_    0.697823 0.667456 0.355355 0.250581
H29   H     H_    0.776390 0.694771 0.278499 0.248986
C34   C     C_3   0.336557 0.320044 0.274361 -0.877858
H30   H     H_    0.280692 0.377858 0.311845 0.216770
H31   H     H_    0.270444 0.278275 0.232957 0.242643
H32   H     H_    0.385569 0.229216 0.297337 0.245465
C35   C     C_3   0.310152 0.136733 0.417701 -0.817785
H33   H     H_    0.245043 0.113147 0.458437 0.216927
H34   H     H_    0.311328 0.248156 0.406401 0.271423
H35   H     H_    0.269083 0.094019 0.368357 0.202238
C36   C     C_3   0.322622 0.844787 0.406284 -0.773054
H36   H     H_    0.245153 0.871661 0.439413 0.210157
H37   H     H_    0.300501 0.879261 0.352751 0.186014
H38   H     H_    0.320652 0.731376 0.397957 0.261820
Br1   Br    Br    0.877701 0.594777 0.643720 -0.573969
Br2   Br    Br    0.849172 0.398895 0.353755 -0.595891

loop_
_geom_bond_atom_site_label_1
_geom_bond_atom_site_label_2
_ccdc_geom_bond_type
C36   H36   S    
C28   H13   S    
C21   N6    S    
C27   C29   A    
C4    C8    A    
C20   H7    S    
C3    H15   S    
C13   H26   S    
C16   C31   S    
Cu1   O1    S    
C23   N6    S    
C18   H3    S    
C25   O8    A    
C27   C34   S    
C1    O2    A    
C19   N6    S    
C18   C19   S    
N1    N3    A    
C33   H27   S    
C11   C15   S    
C22   H9    S    
N2    N4    A    
C9    H21   S    
C17   H2    S    
C10   H22   S    
Cu2   O4    S    
C20   H11   S    
C2    N1    A    
Cu1   O3    S    
C12   H24   S    
C26   C31   A    
C23   C36   S    
C13   C14   S    
Cu2   N5    S    
Cu1   N6    S    
Cu1   Cu2   S    
C29   H14   S    
C27   C31   A    
C8    C32   S    
C20   N5    S    
C16   O4    A    
C32   N4    A    
C4    C6    A    
C3    C8    A    
C10   C14   S    
Cu2   O2    S    
C5    C7    A    
C9    C14   S    
C23   H10   S    
C34   H30   S    
C4    H16   S    
C18   N5    S    
C18   H5    S    
C22   N5    S    
C29   C30   A    
C19   H4    S    
C9    C11   S    
C35   H33   S    
C12   C15   S    
C26   C33   S    
C33   H28   S    
C10   C12   S    
Cu2   O8    S    
Cu1   O7    S    
C15   C24   S    
C35   H34   S    
C36   H37   S    
C9    H19   S    
Cu2   O6    S    
C24   O6    A    
C34   H31   S    
C21   H12   S    
C15   C17   S    
C12   Br2   S    
C16   O3    A    
C32   N3    A    
C3    C5    A    
C34   H32   S    
C6    C7    A    
C13   H25   S    
C26   C28   A    
C7    C25   S    
C13   C17   S    
C2    C30   S    
C22   C35   S    
C28   C30   A    
C1    O1    A    
C25   O7    A    
C10   H20   S    
C33   H29   S    
C19   H6    S    
Cu1   O5    S    
C21   H8    S    
C11   Br1   S    
C35   H35   S    
C20   C21   S    
C36   H38   S    
C22   C23   S    
C5    H17   S    
C1    C14   S    
C17   H1    S    
C6    H18   S    
C11   H23   S    
C2    N2    A    
C24   O5    A    
