data_mof_unit_65210.cif
_audit_creation_date              2012-12-10T18:05:54-0500
_audit_creation_method            fapswitch 2.2
_symmetry_space_group_name_H-M    P1
_symmetry_Int_Tables_number       1
_space_group_crystal_system       triclinic
_cell_length_a                    18.892703
_cell_length_b                    18.794825
_cell_length_c                    18.762147
_cell_angle_alpha                 109.309957
_cell_angle_beta                  109.526657
_cell_angle_gamma                 109.561088
_cell_volume                      5129.51968957

loop_
_atom_site_label
_atom_site_type_symbol
_atom_type_description
_atom_site_fract_x
_atom_site_fract_y
_atom_site_fract_z
_atom_type_partial_charge
C1    C     C_R   0.118323 0.999861 0.618921 0.793409
C2    C     C_R   0.966341 0.971770 0.165769 -0.117273
C3    C     C_R   0.245429 0.243562 0.421812 -0.236505
C4    C     C_R   0.314680 0.315641 0.501744 -0.069269
C5    C     C_R   0.318290 0.323780 0.580439 -0.011272
C6    C     C_R   0.252479 0.258701 0.577642 -0.209150
C7    C     C_R   0.183433 0.186050 0.497685 -0.080317
C8    C     C_R   0.179275 0.178399 0.418697 0.006745
C9    C     C_R   0.456401 0.395209 0.718065 -0.145941
C10   C     C_R   0.524046 0.466925 0.798905 -0.139856
C11   C     C_R   0.523641 0.545235 0.828957 -0.198196
C12   C     C_R   0.117728 0.118881 0.498859 0.783316
C13   C     C_R   0.455441 0.552012 0.778417 -0.107106
C14   C     C_R   0.387121 0.480993 0.696870 0.417266
C15   C     C_R   0.387876 0.401344 0.666065 0.003505
C16   C     C_R   0.268737 0.033836 0.699420 0.077052
C17   C     C_R   0.185066 0.001788 0.686923 -0.120073
C18   C     C_R   0.169410 0.982034 0.747967 -0.197575
C19   C     C_R   0.233992 0.982404 0.812732 -0.206061
C20   C     C_R   0.315282 0.004900 0.818073 -0.094629
C21   C     C_R   0.333012 0.035763 0.764217 0.076373
C22   C     C_3   0.370507 0.010218 0.708065 -0.416415
C23   C     C_R   0.881292 0.999988 0.381244 0.798511
C24   C     C_3   0.299435 0.007813 0.636650 0.191428
C25   C     C_R   0.817213 0.743028 0.498660 0.051043
C26   C     C_R   0.813581 0.815459 0.498794 -0.076646
C27   C     C_R   0.741823 0.822977 0.499218 -0.204205
C28   C     C_R   0.676454 0.757618 0.498296 -0.212977
C29   C     C_R   0.683959 0.685878 0.499990 -0.108846
C30   C     C_R   0.756297 0.682139 0.501028 0.156340
C31   C     C_3   0.800215 0.629537 0.501585 0.190965
C32   C     C_3   0.870310 0.699630 0.499679 -0.514303
C33   C     C_R   0.752528 0.926721 0.235568 0.122134
C34   C     C_R   0.881148 0.881371 0.499780 0.802731
C35   C     C_R   0.815448 0.001170 0.315369 -0.105818
C36   C     C_R   0.812324 0.078572 0.330248 -0.218260
C37   C     C_R   0.747823 0.078663 0.265081 -0.213661
C38   C     C_R   0.684481 0.000857 0.185666 -0.078269
C39   C     C_R   0.689149 0.926266 0.174360 0.114544
C40   C     C_3   0.649642 0.832597 0.110844 -0.496915
C41   C     C_3   0.721625 0.832857 0.181042 -0.454648
C42   C     C_R   0.500693 0.619421 0.619142 0.810359
C43   C     C_R   0.381361 0.381991 0.501004 0.804508
C44   C     C_R   0.499955 0.381408 0.381351 0.819722
C45   C     C_R   0.049788 0.983832 0.190659 -0.136414
C46   C     C_R   0.618430 0.618697 0.499867 0.824469
C47   C     C_R   0.500119 0.118813 0.118674 0.800240
C48   C     C_R   0.381268 0.000518 0.881368 0.798050
C49   C     C_R   0.499749 0.881133 0.881260 0.796254
C50   C     C_R   0.618406 0.999622 0.118296 0.795814
C51   C     C_R   0.423226 0.681983 0.678016 0.197910
C52   C     C_R   0.500731 0.684889 0.687294 -0.102554
C53   C     C_R   0.577893 0.747604 0.767227 -0.225692
C54   C     C_R   0.578058 0.812658 0.831294 -0.230704
C55   C     C_R   0.500563 0.813500 0.816775 -0.085503
C56   C     C_R   0.119217 0.050949 0.273322 -0.140915
C57   C     C_R   0.422912 0.744325 0.742414 0.127926
C58   C     C_3   0.352454 0.746041 0.677421 -0.513510
C59   C     C_3   0.352994 0.677516 0.606606 -0.432325
C60   C     C_R   0.425456 0.244088 0.243101 0.119514
C61   C     C_R   0.501440 0.316406 0.315330 -0.088711
C62   C     C_R   0.580620 0.323344 0.322786 -0.175217
C63   C     C_R   0.580689 0.258977 0.257439 -0.212437
C64   C     C_R   0.501570 0.185620 0.185895 -0.087783
C65   C     C_R   0.425533 0.180785 0.182362 0.130056
C66   C     C_3   0.329148 0.127091 0.130266 -0.473947
C67   C     C_R   0.105289 0.105833 0.332114 0.122699
C68   C     C_3   0.329099 0.198994 0.200241 -0.476207
C69   C     C_R   0.021273 0.093500 0.306554 -0.121428
C70   C     C_R   0.952212 0.026853 0.223462 -0.118957
Cu1   Cu    Cu3+1 0.000020 0.938200 0.438220 0.951165
Cu2   Cu    Cu3+1 0.999980 0.061800 0.561780 0.953425
Cu3   Cu    Cu3+1 0.438190 0.500040 0.438260 0.955866
Cu4   Cu    Cu3+1 0.561780 0.500000 0.561820 0.957328
Cu5   Cu    Cu3+1 0.561810 0.061820 0.000020 0.953744
Cu6   Cu    Cu3+1 0.438190 0.938280 0.000080 0.946970
H1    H     H_    0.912722 0.920088 0.101604 0.120077
H2    H     H_    0.576086 0.600737 0.891704 0.146222
H3    H     H_    0.455579 0.612950 0.802925 0.152877
H4    H     H_    0.106337 0.962532 0.743013 0.142879
H5    H     H_    0.219721 0.963142 0.856906 0.156926
H6    H     H_    0.436972 0.062922 0.733804 0.226664
H7    H     H_    0.363905 0.945057 0.692215 0.134215
H8    H     H_    0.252516 0.942108 0.577784 0.115887
H9    H     H_    0.735761 0.878237 0.499055 0.156148
H10   H     H_    0.060759 0.941442 0.145736 0.127081
H11   H     H_    0.621313 0.763812 0.497711 0.156490
H12   H     H_    0.822235 0.624857 0.561961 0.101727
H13   H     H_    0.934096 0.738910 0.560942 0.157812
H14   H     H_    0.872967 0.676303 0.438406 0.229617
H15   H     H_    0.860173 0.138829 0.391120 0.162508
H16   H     H_    0.746891 0.138716 0.276936 0.147112
H17   H     H_    0.583486 0.792512 0.097961 0.212550
H18   H     H_    0.655867 0.823085 0.051969 0.188298
H19   H     H_    0.697145 0.793248 0.209070 0.202286
H20   H     H_    0.183694 0.060010 0.291657 0.123801
H21   H     H_    0.769020 0.823056 0.162372 0.202417
H22   H     H_    0.638468 0.748815 0.778399 0.161885
H23   H     H_    0.638454 0.862852 0.891067 0.149438
H24   H     H_    0.291640 0.721232 0.680106 0.211417
H25   H     H_    0.374556 0.809530 0.678870 0.189252
H26   H     H_    0.292504 0.613203 0.568516 0.216070
H27   H     H_    0.375544 0.701334 0.567033 0.198032
H28   H     H_    0.641825 0.378465 0.378112 0.178296
H29   H     H_    0.641976 0.265698 0.263555 0.152706
H30   H     H_    0.302749 0.122608 0.065383 0.196029
H31   H     H_    0.009541 0.136048 0.350505 0.105252
H32   H     H_    0.304617 0.064072 0.129541 0.203809
H33   H     H_    0.302108 0.235626 0.175629 0.210380
H34   H     H_    0.305121 0.177585 0.240270 0.187810
H35   H     H_    0.887808 0.018185 0.203486 0.138226
H36   H     H_    0.242681 0.238414 0.361498 0.143551
H37   H     H_    0.255294 0.264604 0.638163 0.160732
H38   H     H_    0.457671 0.334854 0.695538 0.160496
H39   H     H_    0.576855 0.461749 0.838339 0.142734
O1    O     O_R   0.090190 0.947810 0.538000 -0.600317
O2    O     O_R   0.552160 0.590170 0.642390 -0.587555
O3    O     O_R   0.357620 0.409850 0.447860 -0.588315
O4    O     O_R   0.461990 0.409820 0.552210 -0.577981
O5    O     O_R   0.447810 0.409860 0.357690 -0.583516
O6    O     O_R   0.552180 0.409830 0.462050 -0.586445
O7    O     O_R   0.537970 0.590210 0.447870 -0.582991
O8    O     O_R   0.642350 0.590180 0.552220 -0.596748
O9    O     O_R   0.552210 0.142430 0.090170 -0.583887
O10   O     O_R   0.447820 0.038100 0.090220 -0.586931
O11   O     O_R   0.462030 0.052220 0.909860 -0.579131
O12   O     O_R   0.090150 0.052180 0.642350 -0.575215
O13   O     O_R   0.357640 0.947890 0.909900 -0.592331
O14   O     O_R   0.552180 0.962000 0.909880 -0.584731
O15   O     O_R   0.447790 0.857670 0.909930 -0.582729
O16   O     O_R   0.642360 0.052210 0.090200 -0.590246
O17   O     O_R   0.537970 0.947880 0.090240 -0.581423
O18   O     O_R   0.090200 0.037990 0.447830 -0.578727
O19   O     O_R   0.090160 0.142360 0.552180 -0.586451
O20   O     O_R   0.909850 0.947820 0.357650 -0.578495
O21   O     O_R   0.909810 0.052190 0.462000 -0.589983
O22   O     O_R   0.909840 0.857640 0.447820 -0.581098
O23   O     O_R   0.909800 0.962010 0.552170 -0.589993
O24   O     O_R   0.447790 0.590200 0.538040 -0.590390
O25   O     O_3   0.321680 0.492454 0.650811 -0.762403
H40   H     H_    0.276436 0.437613 0.595671 0.325766
O26   O     O_3   0.332809 0.073930 0.618316 -0.704038
H41   H     H_    0.281747 0.069011 0.573928 0.326363
O27   O     O_3   0.751174 0.549461 0.423928 -0.714982
H42   H     H_    0.786608 0.520644 0.428402 0.320322

loop_
_geom_bond_atom_site_label_1
_geom_bond_atom_site_label_2
_ccdc_geom_bond_type
C66   C68   S    
C13   H3    S    
C16   C21   A    
C11   C13   A    
Cu3   Cu4   S    
C47   O9    A    
C35   C36   A    
C40   H17   S    
C69   H31   S    
C7    C8    A    
Cu1   O22   S    
C53   C54   A    
Cu4   O4    S    
C26   C27   A    
C33   C39   A    
C23   O21   A    
C9    H38   S    
C22   H6    S    
C36   C37   A    
C37   C38   A    
Cu1   O20   S    
C5    C6    A    
C53   H22   S    
Cu2   O21   S    
C44   O5    A    
C70   H35   S    
C44   O6    A    
C18   C19   A    
C31   O27   S    
C27   H9    S    
Cu6   O15   S    
C26   C34   S    
C32   H14   S    
C62   C63   A    
C32   H13   S    
C45   C56   A    
C24   O26   S    
C16   C17   A    
C51   C57   A    
C1    O1    A    
C63   H29   S    
C9    C10   A    
C25   C32   S    
Cu2   O23   S    
Cu4   O8    S    
C16   C24   S    
Cu3   O5    S    
C12   O19   A    
C21   C22   S    
Cu6   O10   S    
C69   C70   A    
C66   H30   S    
Cu5   O16   S    
C47   O10   A    
C62   H28   S    
C2    C45   A    
C7    C12   S    
Cu2   O12   S    
C51   C52   A    
C58   H24   S    
O25   H40   S    
C3    C8    A    
C50   O16   A    
C66   H32   S    
C39   C40   S    
O27   H42   S    
Cu3   O24   S    
C25   C26   A    
C49   C55   S    
C49   O14   A    
C34   O23   A    
Cu5   O9    S    
C60   C61   A    
C67   C69   A    
C38   C39   A    
Cu5   Cu6   S    
C6    H37   S    
C29   C30   A    
C11   H2    S    
C48   O13   A    
Cu2   O19   S    
C31   C32   S    
C3    H36   S    
C28   H11   S    
C17   C18   A    
C58   H25   S    
C68   H34   S    
C20   C48   S    
C50   O17   A    
C36   H15   S    
C40   C41   S    
C14   O25   S    
C60   C65   A    
C65   C66   S    
C23   C35   S    
C12   O18   A    
C55   C57   A    
Cu6   O13   S    
C22   C24   S    
C46   O8    A    
C51   C59   S    
C3    C4    A    
C47   C64   S    
C52   C53   A    
C25   C30   A    
C56   H20   S    
Cu4   O2    S    
C54   C55   A    
C28   C29   A    
Cu3   O3    S    
C37   H16   S    
C42   O24   A    
C9    C15   A    
C59   H26   S    
C1    O12   A    
C40   H18   S    
C4    C5    A    
Cu1   O18   S    
C42   O2    A    
C6    C7    A    
C38   C50   S    
C4    C43   S    
C44   C61   S    
C56   C67   A    
C49   O15   A    
C34   O22   A    
C1    C17   S    
C23   O20   A    
C29   C46   S    
Cu5   O11   S    
C59   H27   S    
C64   C65   A    
C19   C20   A    
C45   H10   S    
C58   C59   S    
C33   C41   S    
Cu1   Cu2   S    
C2    H1    S    
C19   H5    S    
C22   H7    S    
Cu6   O17   S    
C30   C31   S    
C57   C58   S    
C41   H19   S    
C2    C70   A    
C33   C35   A    
Cu1   O1    S    
C41   H21   S    
C68   H33   S    
C24   H8    S    
C61   C62   A    
C54   H23   S    
C5    C15   S    
C10   C11   A    
C43   O3    A    
C48   O11   A    
C63   C64   A    
C31   H12   S    
Cu4   O6    S    
C20   C21   A    
C60   C68   S    
C8    C67   S    
C18   H4    S    
Cu3   O7    S    
C43   O4    A    
C27   C28   A    
O26   H41   S    
C14   C15   A    
C46   O7    A    
C13   C14   A    
C10   H39   S    
Cu5   O14   S    
C42   C52   S    
