data_mof_unit_60895.cif
_audit_creation_date              2012-12-10T18:57:54-0500
_audit_creation_method            fapswitch 2.2
_symmetry_space_group_name_H-M    P1
_symmetry_Int_Tables_number       1
_space_group_crystal_system       triclinic
_cell_length_a                    37.240614
_cell_length_b                    30.246022
_cell_length_c                    21.58502
_cell_angle_alpha                 90.002141
_cell_angle_beta                  54.402778
_cell_angle_gamma                 89.982382
_cell_volume                      19769.5579244

loop_
_atom_site_label
_atom_site_type_symbol
_atom_type_description
_atom_site_fract_x
_atom_site_fract_y
_atom_site_fract_z
_atom_type_partial_charge
C1    C     C_R   0.913725 0.499884 0.584557 1.020666
C2    C     C_R   0.203094 0.465457 0.264285 0.408492
C3    C     C_R   0.037817 0.843381 0.939307 0.363974
C4    C     C_R   0.499990 0.366216 0.000006 -0.269497
C5    C     C_R   0.000291 0.866177 0.999620 -0.272398
C6    C     C_R   0.499972 0.274064 0.000029 -0.202071
C7    C     C_R   0.000661 0.774046 0.998838 -0.200072
C8    C     C_R   0.034650 0.295859 0.995181 0.400735
C9    C     C_R   0.965453 0.295859 0.004730 0.400877
C10   C     C_R   0.534636 0.795858 0.995207 0.400902
C11   C     C_R   0.465459 0.795863 0.004691 0.400965
C12   C     C_R   0.033750 0.341931 0.998070 -0.100354
C13   C     C_R   0.296916 0.965555 0.735737 0.408378
C14   C     C_R   0.966319 0.341931 0.001871 -0.100081
C15   C     C_R   0.533740 0.841931 0.998092 -0.100093
C16   C     C_R   0.466329 0.841935 0.001827 -0.100261
C17   C     C_R   0.000027 0.365235 0.999976 -0.369012
C18   C     C_R   0.500027 0.865236 0.999968 -0.370732
C19   C     C_3   0.965527 0.535435 0.249065 -0.424554
C20   C     C_3   0.034523 0.535358 0.750875 -0.415541
C21   C     C_3   0.465543 0.035453 0.249046 -0.422507
C22   C     C_3   0.534462 0.035427 0.750951 -0.422456
C23   C     C_R   0.000061 0.273047 0.999946 -0.176189
C24   C     C_R   0.703098 0.965463 0.264301 0.408291
C25   C     C_R   0.500054 0.773048 0.999944 -0.176085
C26   C     C_R   0.490091 0.702671 0.064555 -0.134834
C27   C     C_R   0.510020 0.702654 0.935348 -0.134817
C28   C     C_R   0.990111 0.202670 0.064545 -0.134693
C29   C     C_R   0.010017 0.202654 0.935352 -0.134584
C30   C     C_R   0.490227 0.656939 0.064526 -0.175936
C31   C     C_R   0.509845 0.656922 0.935412 -0.175863
C32   C     C_R   0.990243 0.156938 0.064517 -0.175643
C33   C     C_R   0.009840 0.156922 0.935417 -0.175679
C34   C     C_R   0.500023 0.633930 0.999980 -0.041653
C35   C     C_R   0.843304 0.466501 0.689021 0.422489
C36   C     C_R   0.000027 0.133930 0.999978 -0.041733
C37   C     C_R   0.500062 0.725270 0.999944 0.069533
C38   C     C_R   0.000072 0.225270 0.999942 0.069419
C39   C     C_3   0.043889 0.519480 0.241303 -0.325706
C40   C     C_3   0.956135 0.519563 0.758669 -0.329628
C41   C     C_3   0.543895 0.019461 0.241296 -0.325434
C42   C     C_3   0.456107 0.019509 0.758703 -0.325397
C43   C     C_3   0.994011 0.448706 0.287630 -0.205249
C44   C     C_3   0.005935 0.448691 0.712418 -0.201363
C45   C     C_3   0.493986 0.948710 0.287656 -0.204029
C46   C     C_R   0.156709 0.466421 0.311024 0.422679
C47   C     C_3   0.506008 0.948710 0.712348 -0.204073
C48   C     C_3   0.999594 0.498093 0.310362 -0.159786
C49   C     C_3   0.000406 0.498089 0.689633 -0.156519
C50   C     C_3   0.499591 0.998094 0.310365 -0.159970
C51   C     C_3   0.500408 0.998098 0.689635 -0.159979
C52   C     C_3   0.999399 0.501559 0.189521 0.031307
C53   C     C_3   0.000605 0.501557 0.810471 0.020514
C54   C     C_3   0.499398 0.001559 0.189522 0.025619
C55   C     C_3   0.500602 0.001566 0.810479 0.025594
C56   C     C_3   0.045909 0.513643 0.168427 -0.491441
C57   C     C_R   0.343300 0.966497 0.688999 0.422798
C58   C     C_3   0.954111 0.513735 0.831551 -0.488399
C59   C     C_3   0.545913 0.013621 0.168424 -0.491424
C60   C     C_3   0.454089 0.013673 0.831577 -0.491413
C61   C     C_2   0.086470 0.505875 0.230780 0.988458
C62   C     C_2   0.913539 0.506036 0.769208 0.986142
C63   C     C_2   0.586469 0.005838 0.230783 0.988424
C64   C     C_2   0.413530 0.005927 0.769219 0.988335
C65   C     C_2   0.725119 0.533327 0.883922 0.944542
C66   C     C_2   0.274830 0.533185 0.116110 0.945516
C67   C     C_2   0.225123 0.033357 0.883885 0.945387
C68   C     C_R   0.656713 0.966418 0.311044 0.422736
C69   C     C_2   0.774825 0.033222 0.116148 0.945208
C70   C     C_2   0.725140 0.467167 0.664924 0.940154
C71   C     C_2   0.274909 0.467110 0.335052 0.940296
C72   C     C_2   0.225134 0.967152 0.664919 0.940912
C73   C     C_2   0.774913 0.967113 0.335064 0.940364
C74   C     C_2   0.420351 0.272769 0.115657 1.007972
C75   C     C_2   0.579592 0.272670 0.884398 1.007947
C76   C     C_2   0.924960 0.772379 0.124619 1.006611
C77   C     C_2   0.076365 0.773020 0.873151 1.005912
C78   C     C_2   0.068383 0.364677 0.000335 1.063643
C79   C     C_R   0.865621 0.499282 0.631929 -0.258986
C80   C     C_2   0.931663 0.364674 0.999638 1.062942
C81   C     C_2   0.568364 0.864675 0.000382 1.063049
C82   C     C_2   0.431691 0.864684 0.999549 1.063225
C83   C     C_2   0.035915 0.420561 0.257442 0.887524
C84   C     C_2   0.964004 0.420627 0.742620 0.887932
C85   C     C_2   0.535877 0.920545 0.257477 0.887412
C86   C     C_2   0.464114 0.920584 0.742526 0.887456
C87   C     C_2   0.955860 0.421099 0.353257 1.030868
C88   C     C_2   0.044059 0.421008 0.646828 1.030989
C89   C     C_2   0.455823 0.921122 0.353299 1.030749
C90   C     C_R   0.134378 0.499227 0.368105 -0.258903
C91   C     C_2   0.544169 0.921085 0.646708 1.030741
C92   C     C_R   0.365621 0.999281 0.631912 -0.259036
C93   C     C_R   0.086275 0.499868 0.415453 1.020543
C94   C     C_R   0.634378 0.999230 0.368115 -0.258967
C95   C     C_R   0.841747 0.531330 0.621800 0.401570
C96   C     C_R   0.158240 0.531272 0.378236 0.402122
C97   C     C_R   0.341750 0.031335 0.621787 0.402056
C98   C     C_R   0.658236 0.031280 0.378246 0.401992
C99   C     C_R   0.796173 0.531392 0.670749 -0.108559
C100  C     C_R   0.203814 0.531316 0.329285 -0.108101
C101  C     C_R   0.296175 0.031399 0.670734 -0.107748
C102  C     C_R   0.703810 0.031326 0.329303 -0.107794
C103  C     C_R   0.773838 0.498819 0.726335 -0.083343
C104  C     C_R   0.413725 0.999884 0.584551 1.020281
C105  C     C_R   0.226161 0.498726 0.273697 -0.083809
C106  C     C_R   0.273838 0.998824 0.726316 -0.083755
C107  C     C_R   0.726162 0.998737 0.273716 -0.083513
C108  C     C_R   0.702760 0.515934 0.849742 -0.024423
C109  C     C_R   0.297214 0.515829 0.150276 -0.025053
C110  C     C_R   0.202762 0.015952 0.849716 -0.025039
C111  C     C_R   0.797212 0.015852 0.150302 -0.024986
C112  C     C_R   0.656805 0.515085 0.895137 -0.208595
C113  C     C_R   0.343171 0.515011 0.104878 -0.208140
C114  C     C_R   0.156806 0.015099 0.895118 -0.209102
C115  C     C_R   0.586275 0.999868 0.415455 1.020330
C116  C     C_R   0.843170 0.015028 0.104896 -0.209625
C117  C     C_R   0.634034 0.500502 0.865640 -0.082756
C118  C     C_R   0.365965 0.500467 0.134363 -0.082785
C119  C     C_R   0.134033 0.000500 0.865634 -0.083738
C120  C     C_R   0.865965 0.000469 0.134370 -0.083816
C121  C     C_R   0.999327 0.499566 0.379154 0.955247
C122  C     C_R   0.000673 0.499565 0.620844 0.955689
C123  C     C_R   0.499325 0.999566 0.379156 0.954818
C124  C     C_R   0.500675 0.999567 0.620844 0.954812
C125  C     C_R   0.656901 0.486192 0.790265 -0.195315
C126  C     C_3   0.986097 0.454195 0.223720 0.165941
C127  C     C_R   0.343120 0.486158 0.209724 -0.195118
C128  C     C_R   0.156898 0.986180 0.790263 -0.196664
C129  C     C_R   0.843122 0.986156 0.209730 -0.197253
C130  C     C_R   0.702831 0.485108 0.743669 -0.024691
C131  C     C_R   0.297192 0.485044 0.256322 -0.024628
C132  C     C_R   0.202828 0.985102 0.743659 -0.025220
C133  C     C_R   0.797193 0.985050 0.256336 -0.025256
C134  C     C_R   0.725848 0.500259 0.773736 -0.054826
C135  C     C_R   0.274151 0.500164 0.226272 -0.054736
C136  C     C_R   0.225848 0.000267 0.773716 -0.054657
C137  C     C_3   0.013847 0.454165 0.776333 0.156167
C138  C     C_R   0.774151 0.000180 0.226293 -0.054556
C139  C     C_R   0.999973 0.586105 0.000743 0.890636
C140  C     C_R   0.499992 0.086057 0.000008 0.811121
C141  C     C_R   0.999883 0.502412 0.121222 0.870122
C142  C     C_R   0.000117 0.502417 0.878778 0.914908
C143  C     C_R   0.499882 0.002409 0.121222 0.879977
C144  C     C_R   0.500116 0.002415 0.878780 0.879950
C145  C     C_R   0.000008 0.413602 0.999992 0.955551
C146  C     C_R   0.500008 0.913603 0.999991 0.959106
C147  C     C_R   0.500000 0.414044 0.999999 0.848474
C148  C     C_3   0.486071 0.954202 0.223747 0.164911
C149  C     C_R   0.000070 0.914028 0.999918 0.849470
C150  C     C_R   0.586112 0.500160 0.913801 0.867499
C151  C     C_R   0.413887 0.500156 0.086199 0.867502
C152  C     C_R   0.086112 0.000154 0.913801 0.867401
C153  C     C_R   0.913887 0.000148 0.086200 0.867873
C154  C     C_R   0.500004 0.586094 0.999997 0.864277
C155  C     C_R   0.000004 0.086093 0.999997 0.864398
C156  C     C_R   0.026754 0.703379 0.015977 -0.067867
C157  C     C_R   0.974480 0.702953 0.983226 -0.196444
C158  C     C_R   0.521415 0.203157 0.025949 -0.069356
C159  C     C_3   0.513921 0.954196 0.776259 0.164925
C160  C     C_R   0.478514 0.203169 0.974144 -0.069295
C161  C     C_3   0.961982 0.529861 0.323767 0.276728
C162  C     C_3   0.038056 0.529781 0.676185 0.270766
C163  C     C_3   0.461994 0.029879 0.323753 0.276289
C164  C     C_3   0.538010 0.029849 0.676244 0.276260
C165  C     C_R   0.025953 0.657533 0.019383 0.376508
C166  C     C_R   0.973883 0.656769 0.984321 0.417518
C167  C     C_R   0.520993 0.157282 0.027828 0.418467
C168  C     C_R   0.478945 0.157292 0.972256 0.418470
C169  C     C_R   0.999811 0.634052 0.002149 -0.200617
C170  C     C_R   0.796920 0.465556 0.735760 0.408408
C171  C     C_R   0.499974 0.133952 0.000035 -0.263133
C172  C     C_R   0.000883 0.725858 0.998777 0.069314
C173  C     C_R   0.499965 0.225862 0.000044 0.008726
C174  C     C_R   0.461125 0.296980 0.055901 -0.055634
C175  C     C_R   0.538827 0.296932 0.944143 -0.055612
C176  C     C_R   0.963544 0.796769 0.059824 -0.056823
C177  C     C_R   0.037595 0.797095 0.938234 -0.061519
C178  C     C_R   0.460903 0.343276 0.055426 0.364552
C179  C     C_R   0.539068 0.343228 0.944595 0.364507
C180  C     C_R   0.962946 0.843040 0.059519 0.362210
H1    H     H_    0.967153 0.563368 0.338692 0.162180
H2    H     H_    0.930380 0.487599 0.869294 0.280174
H3    H     H_    0.366886 0.871163 0.044960 0.357388
H4    H     H_    0.072488 0.385233 0.281461 0.373818
H5    H     H_    0.927411 0.385354 0.718611 0.373873
H6    H     H_    0.572438 0.885200 0.281504 0.373482
H7    H     H_    0.427560 0.885256 0.718492 0.373736
H8    H     H_    0.903906 0.415765 0.463777 0.360017
H9    H     H_    0.096012 0.415565 0.536320 0.360046
H10   H     H_    0.403871 0.915814 0.463825 0.360072
H11   H     H_    0.596121 0.915726 0.536183 0.359924
H12   H     H_    0.939093 0.416042 0.238390 0.366684
H13   H     H_    0.569598 0.987424 0.130726 0.282105
H14   H     H_    0.060796 0.415918 0.761739 0.367075
H15   H     H_    0.439047 0.916073 0.238445 0.366762
H16   H     H_    0.560938 0.916023 0.761575 0.366719
H17   H     H_    0.430399 0.987499 0.869278 0.282141
H18   H     H_    0.777792 0.556309 0.663880 0.186061
H19   H     H_    0.222184 0.556236 0.336148 0.186240
H20   H     H_    0.277796 0.056320 0.663867 0.186362
H21   H     H_    0.722177 0.056249 0.336168 0.186360
H22   H     H_    0.638512 0.526874 0.953384 0.204913
H23   H     H_    0.361445 0.526796 0.046639 0.205004
H24   H     H_    0.138516 0.026896 0.953361 0.205117
H25   H     H_    0.032923 0.563298 0.661228 0.161164
H26   H     H_    0.861442 0.026817 0.046660 0.205082
H27   H     H_    0.638705 0.474376 0.768591 0.207988
H28   H     H_    0.361333 0.474367 0.231386 0.208013
H29   H     H_    0.138700 0.974351 0.768602 0.208870
H30   H     H_    0.861337 0.974356 0.231383 0.208753
H31   H     H_    0.046656 0.721694 0.028907 0.174035
H32   H     H_    0.954729 0.721158 0.969842 0.150637
H33   H     H_    0.537626 0.221308 0.046518 0.176515
H34   H     H_    0.462302 0.221328 0.953575 0.176526
H35   H     H_    0.482325 0.720501 0.114516 0.171286
H36   H     H_    0.467179 0.063384 0.338663 0.162959
H37   H     H_    0.517793 0.720470 0.885378 0.171282
H38   H     H_    0.982354 0.220499 0.114501 0.171364
H39   H     H_    0.017782 0.220472 0.885388 0.171372
H40   H     H_    0.482364 0.639680 0.114981 0.173356
H41   H     H_    0.517694 0.639649 0.884971 0.173358
H42   H     H_    0.982387 0.139678 0.114967 0.173444
H43   H     H_    0.017678 0.139651 0.884982 0.173439
H44   H     H_    0.932634 0.531772 0.259755 0.240933
H45   H     H_    0.067413 0.531622 0.740182 0.240139
H46   H     H_    0.432649 0.031807 0.259735 0.241331
H47   H     H_    0.532829 0.063358 0.661331 0.162942
H48   H     H_    0.567356 0.031750 0.740261 0.241323
H49   H     H_    0.976904 0.569529 0.226427 0.140790
H50   H     H_    0.023198 0.569477 0.773463 0.151801
H51   H     H_    0.476936 0.069541 0.226396 0.145829
H52   H     H_    0.523075 0.069526 0.773599 0.145832
H53   H     H_    0.042017 0.555846 0.251437 0.162886
H54   H     H_    0.958047 0.555924 0.748493 0.159953
H55   H     H_    0.542039 0.055828 0.251413 0.163881
H56   H     H_    0.457969 0.055873 0.748583 0.163895
H57   H     H_    0.057831 0.545045 0.135276 0.199733
H58   H     H_    0.006642 0.430392 0.176346 0.178604
H59   H     H_    0.942232 0.545164 0.864665 0.211632
H60   H     H_    0.557851 0.045016 0.135257 0.202705
H61   H     H_    0.442156 0.045080 0.864741 0.202695
H62   H     H_    0.145586 0.475029 0.167687 0.369854
H63   H     H_    0.854393 0.475297 0.832329 0.369773
H64   H     H_    0.645567 0.974958 0.167718 0.369703
H65   H     H_    0.354420 0.975119 0.832305 0.369725
H66   H     H_    0.743624 0.432573 0.813022 0.359770
H67   H     H_    0.256406 0.432447 0.187030 0.359807
H68   H     H_    0.243616 0.932577 0.812999 0.358816
H69   H     H_    0.993268 0.430408 0.823735 0.178069
H70   H     H_    0.756417 0.932471 0.187017 0.358372
H71   H     H_    0.848292 0.416273 0.741387 0.386306
H72   H     H_    0.151745 0.416210 0.258594 0.386256
H73   H     H_    0.348281 0.916315 0.741460 0.386122
H74   H     H_    0.651755 0.916147 0.258715 0.385888
H75   H     H_    0.889927 0.551094 0.520829 0.372314
H76   H     H_    0.110056 0.551063 0.479213 0.372170
H77   H     H_    0.389933 0.051103 0.520822 0.372330
H78   H     H_    0.610048 0.051074 0.479218 0.372302
H79   H     H_    0.720854 0.546466 0.979737 0.364034
H80   H     H_    0.506602 0.930388 0.176386 0.178445
H81   H     H_    0.279072 0.546281 0.020306 0.365179
H82   H     H_    0.220862 0.046516 0.979692 0.365076
H83   H     H_    0.779061 0.046332 0.020353 0.364967
H84   H     H_    0.907313 0.495541 0.367729 0.406496
H85   H     H_    0.092689 0.495356 0.632251 0.406749
H86   H     H_    0.407310 0.995584 0.367728 0.406613
H87   H     H_    0.592690 0.995503 0.632271 0.406589
H88   H     H_    0.721316 0.454641 0.577028 0.366248
H89   H     H_    0.278754 0.454616 0.422935 0.366408
H90   H     H_    0.221295 0.954588 0.577049 0.366569
H91   H     H_    0.493385 0.930402 0.823620 0.178475
H92   H     H_    0.778772 0.954592 0.422926 0.366489
H93   H     H_    0.038864 0.607210 0.059961 0.324084
H94   H     H_    0.933275 0.654163 0.955178 0.341314
H95   H     H_    0.531078 0.105918 0.070969 0.325969
H96   H     H_    0.468863 0.105931 0.929115 0.325975
H97   H     H_    0.393371 0.222147 0.190490 0.356890
H98   H     H_    0.606551 0.222011 0.809589 0.356861
H99   H     H_    0.902876 0.721826 0.199385 0.354986
H100  H     H_    0.098835 0.722464 0.798282 0.356264
H101  H     H_    0.423652 0.396531 0.099406 0.332981
H102  H     H_    0.069606 0.487457 0.130715 0.282556
H103  H     H_    0.576335 0.396440 0.900577 0.333003
H104  H     H_    0.925020 0.895480 0.106357 0.334024
H105  H     H_    0.075356 0.896100 0.893434 0.333845
H106  H     H_    0.071687 0.243529 0.972759 0.355650
H107  H     H_    0.928438 0.243538 0.027163 0.355617
H108  H     H_    0.571668 0.743527 0.972807 0.355421
H109  H     H_    0.428445 0.743546 0.027101 0.355614
H110  H     H_    0.133189 0.371154 0.954882 0.357523
H111  H     H_    0.866848 0.371155 0.045127 0.357308
H112  H     H_    0.633165 0.871143 0.954974 0.357067
O1    O     O_R   0.934520 0.536930 0.565470 -0.608854
O2    O     O_R   0.434550 0.499990 0.013170 -0.613158
O3    O     O_R   0.070005 0.735947 0.841857 -0.805007
O4    O     O_3   0.422188 0.364718 0.111027 -0.705795
O5    O     O_3   0.577791 0.364621 0.888982 -0.705785
O6    O     O_3   0.925731 0.864347 0.119506 -0.703304
O7    O     O_3   0.074847 0.865057 0.879667 -0.702935
O8    O     O_3   0.069037 0.274286 0.990447 -0.707497
O9    O     O_3   0.931079 0.274287 0.009458 -0.707502
O10   O     O_3   0.569013 0.774282 0.990504 -0.708104
O11   O     O_3   0.431094 0.774293 0.009386 -0.707624
O12   O     O_2   0.058021 0.392364 0.049310 -0.631858
O13   O     O_R   0.065450 0.999990 0.986830 -0.613577
O14   O     O_R   0.112828 0.353675 0.947221 -0.723514
O15   O     O_2   0.941997 0.392352 0.950680 -0.633964
O16   O     O_R   0.887228 0.353680 0.052766 -0.723642
O17   O     O_2   0.557995 0.892368 0.049351 -0.632446
O18   O     O_R   0.612810 0.853664 0.947298 -0.724115
O19   O     O_2   0.442043 0.892372 0.950597 -0.632390
O20   O     O_R   0.387252 0.853683 0.052627 -0.723603
O21   O     O_2   0.061577 0.411529 0.189731 -0.563517
O22   O     O_R   0.044345 0.403362 0.307971 -0.738240
O23   O     O_2   0.938325 0.411644 0.810338 -0.563362
O24   O     O_R   0.934550 0.999990 0.013170 -0.613801
O25   O     O_R   0.955565 0.403442 0.692095 -0.738438
O26   O     O_2   0.561533 0.911503 0.189770 -0.563897
O27   O     O_R   0.544301 0.903339 0.308010 -0.738460
O28   O     O_2   0.438448 0.911577 0.810236 -0.563616
O29   O     O_R   0.455698 0.903371 0.691987 -0.738334
O30   O     O_2   0.950675 0.383031 0.340535 -0.603919
O31   O     O_R   0.927110 0.437937 0.427049 -0.767077
O32   O     O_2   0.049198 0.382931 0.659600 -0.603709
O33   O     O_R   0.072833 0.437785 0.573016 -0.767102
O34   O     O_2   0.450617 0.883057 0.340599 -0.603942
O35   O     O_R   0.500010 0.565460 0.947720 -0.620995
O36   O     O_R   0.427086 0.937975 0.427084 -0.767138
O37   O     O_2   0.549370 0.883016 0.659413 -0.604058
O38   O     O_R   0.572909 0.937909 0.572921 -0.767151
O39   O     O_3   0.941493 0.446669 0.252244 -0.757132
O40   O     O_3   0.058439 0.446547 0.747835 -0.757519
O41   O     O_3   0.441463 0.946699 0.252279 -0.757127
O42   O     O_3   0.558528 0.946650 0.747732 -0.757188
O43   O     O_R   0.499990 0.565460 0.052280 -0.621071
O44   O     O_R   0.000010 0.065460 0.947720 -0.620987
O45   O     O_R   0.999990 0.065460 0.052280 -0.620984
O46   O     O_R   0.934480 0.463010 0.565510 -0.547294
O47   O     O_R   0.065520 0.463010 0.434490 -0.547389
O48   O     O_R   0.434480 0.963010 0.565510 -0.547463
O49   O     O_R   0.065480 0.536930 0.434530 -0.608412
O50   O     O_R   0.565520 0.963010 0.434490 -0.547575
O51   O     O_R   0.999990 0.536930 0.407410 -0.635783
O52   O     O_R   0.000010 0.536930 0.592590 -0.636293
O53   O     O_R   0.499990 0.036930 0.407410 -0.635541
O54   O     O_R   0.500010 0.036930 0.592590 -0.635547
O55   O     O_R   0.999940 0.463010 0.407450 -0.567774
O56   O     O_R   0.000060 0.463010 0.592550 -0.568081
O57   O     O_R   0.499940 0.963010 0.407450 -0.567878
O58   O     O_R   0.500060 0.963010 0.592550 -0.567882
O59   O     O_R   0.963000 0.565420 0.036990 -0.578736
O60   O     O_R   0.434520 0.036930 0.565470 -0.608221
O61   O     O_R   0.037000 0.565420 0.963010 -0.624869
O62   O     O_R   0.463000 0.065420 0.036990 -0.608710
O63   O     O_R   0.537000 0.065420 0.963010 -0.608661
O64   O     O_R   0.963020 0.499940 0.129580 -0.592061
O65   O     O_R   0.036980 0.499940 0.870420 -0.591104
O66   O     O_R   0.463020 0.999940 0.129580 -0.586317
O67   O     O_R   0.536980 0.999940 0.870420 -0.586369
O68   O     O_R   0.036940 0.500000 0.055660 -0.620106
O69   O     O_R   0.963060 0.500000 0.944340 -0.609280
O70   O     O_R   0.536940 0.000000 0.055660 -0.617833
O71   O     O_R   0.565480 0.036930 0.434530 -0.608192
O72   O     O_R   0.463060 0.000000 0.944340 -0.617781
O73   O     O_R   0.963020 0.434470 0.036970 -0.604137
O74   O     O_R   0.036980 0.434470 0.963030 -0.602333
O75   O     O_R   0.463020 0.934470 0.036970 -0.601188
O76   O     O_R   0.536980 0.934470 0.963030 -0.601229
O77   O     O_R   0.499930 0.434510 0.947790 -0.597942
O78   O     O_R   0.500070 0.434510 0.052210 -0.597937
O79   O     O_R   0.999930 0.934510 0.947790 -0.596852
O80   O     O_R   0.000070 0.934510 0.052210 -0.596461
O81   O     O_2   0.093975 0.519757 0.275264 -0.620103
O82   O     O_R   0.565440 0.499980 0.882290 -0.618441
O83   O     O_R   0.118513 0.480487 0.168318 -0.745620
O84   O     O_2   0.906048 0.519926 0.724708 -0.620844
O85   O     O_R   0.881470 0.480710 0.831697 -0.746351
O86   O     O_2   0.593983 0.019724 0.275254 -0.619936
O87   O     O_R   0.618497 0.980428 0.168343 -0.746075
O88   O     O_2   0.406023 0.019812 0.724739 -0.619990
O89   O     O_R   0.381494 0.980559 0.831674 -0.745859
O90   O     O_3   0.775687 0.432149 0.789325 -0.754503
O91   O     O_3   0.224343 0.432026 0.210734 -0.754358
O92   O     O_3   0.275680 0.932141 0.789285 -0.755446
O93   O     O_R   0.434560 0.499980 0.117710 -0.618389
O94   O     O_3   0.724351 0.932041 0.210734 -0.756548
O95   O     O_3   0.867885 0.436279 0.698101 -0.718534
O96   O     O_3   0.132139 0.436193 0.301958 -0.718504
O97   O     O_3   0.367878 0.936263 0.698068 -0.718583
O98   O     O_3   0.632149 0.936182 0.301981 -0.718837
O99   O     O_3   0.861285 0.562600 0.564527 -0.700264
O100  O     O_3   0.138688 0.562560 0.435509 -0.699953
O101  O     O_3   0.361291 0.062608 0.564520 -0.699259
O102  O     O_3   0.638680 0.062571 0.435514 -0.699302
O103  O     O_2   0.762665 0.548082 0.843697 -0.605363
O104  O     O_R   0.065440 0.999980 0.882290 -0.618152
O105  O     O_R   0.702520 0.533701 0.963151 -0.787013
O106  O     O_2   0.237266 0.547926 0.156346 -0.603526
O107  O     O_R   0.297424 0.533541 0.036882 -0.786347
O108  O     O_2   0.262669 0.048111 0.843651 -0.603342
O109  O     O_R   0.202527 0.033744 0.963114 -0.786818
O110  O     O_2   0.737264 0.047970 0.156393 -0.603303
O111  O     O_R   0.797414 0.033581 0.036920 -0.787250
O112  O     O_3   0.919462 0.517012 0.385663 -0.730262
O113  O     O_3   0.080561 0.516849 0.614298 -0.729686
O114  O     O_3   0.419467 0.017050 0.385652 -0.729903
O115  O     O_R   0.934560 0.999980 0.117710 -0.618077
O116  O     O_3   0.580535 0.016979 0.614345 -0.729949
O117  O     O_2   0.762026 0.450857 0.631035 -0.603769
O118  O     O_R   0.703141 0.467981 0.630030 -0.785232
O119  O     O_2   0.238045 0.450780 0.368930 -0.603634
O120  O     O_R   0.296910 0.467955 0.369943 -0.784984
O121  O     O_2   0.262030 0.950865 0.631014 -0.603816
O122  O     O_R   0.203121 0.967932 0.630049 -0.783996
O123  O     O_2   0.738040 0.950802 0.368960 -0.604146
O124  O     O_R   0.796927 0.967931 0.369934 -0.784048
O125  O     O_3   0.050242 0.637418 0.041280 -0.733092
O126  O     O_R   0.565450 0.499990 0.986830 -0.613242
O127  O     O_3   0.949133 0.633186 0.966687 -0.753161
O128  O     O_3   0.540776 0.137049 0.058263 -0.740818
O129  O     O_3   0.459165 0.137070 0.941815 -0.740796
O130  O     O_2   0.384173 0.285420 0.134049 -0.540448
O131  O     O_R   0.423269 0.235718 0.151275 -0.805005
O132  O     O_2   0.615774 0.285279 0.865999 -0.540499
O133  O     O_R   0.576659 0.235619 0.848798 -0.805027
O134  O     O_2   0.887365 0.784661 0.150796 -0.545836
O135  O     O_R   0.931603 0.735575 0.156051 -0.807398
O136  O     O_2   0.113861 0.785773 0.846630 -0.541052
Zn1   Zn    Zn3+2 0.000000 0.549330 0.500000 1.066053
Zn2   Zn    Zn3+2 0.500030 0.499980 0.069780 1.024330
Zn3   Zn    Zn3+2 0.999970 0.999980 0.930220 1.024790
Zn4   Zn    Zn3+2 0.000030 0.999980 0.069780 1.025453
Zn5   Zn    Zn3+2 0.500000 0.049330 0.500000 1.068919
Zn6   Zn    Zn3+2 0.000000 0.450610 0.500000 1.164151
Zn7   Zn    Zn3+2 0.500000 0.950610 0.500000 1.163879
Zn8   Zn    Zn3+2 0.950610 0.499940 0.049380 1.063958
Zn9   Zn    Zn3+2 0.049390 0.499940 0.950620 1.052378
Zn10  Zn    Zn3+2 0.450610 0.999940 0.049380 1.050816
Zn11  Zn    Zn3+2 0.549390 0.999940 0.950620 1.050594
Zn12  Zn    Zn3+2 0.499970 0.499980 0.930220 1.024458

loop_
_geom_bond_atom_site_label_1
_geom_bond_atom_site_label_2
_ccdc_geom_bond_type
C99   C103  A    
C83   O22   S    
C44   C137  S    
C21   C163  S    
H11   O38   S    
C126  O39   S    
C45   C148  S    
C65   O105  S    
C112  H22   S    
O57   Zn7   S    
C101  H20   S    
C87   O31   S    
C158  H33   S    
C78   O12   D    
C60   H61   S    
C53   C137  S    
C143  O66   A    
C95   C99   A    
C144  O72   A    
C29   C33   A    
C8    C23   A    
C5    C149  S    
C7    C177  A    
H66   O90   S    
C31   H41   S    
C103  C170  A    
C161  O112  S    
O53   Zn5   S    
C73   O123  D    
C65   C108  S    
C119  C128  A    
C68   O98   S    
C54   C143  S    
C7    C172  S    
C168  O129  S    
C130  C134  A    
H108  O10   S    
C148  H80   S    
C77   O136  D    
C121  O51   A    
C158  C167  A    
C72   C132  S    
C165  C169  A    
C39   C61   S    
C40   C58   S    
O80   Zn4   S    
C27   C31   A    
C47   C86   S    
C28   C32   A    
C39   H53   S    
C140  O63   A    
C167  C171  A    
C6    C174  A    
C44   C84   S    
C98   C102  A    
O52   Zn1   S    
H8    O31   S    
C26   H35   S    
O48   Zn7   S    
C21   H46   S    
C153  O24   A    
C128  H29   S    
C61   O83   S    
C163  H36   S    
C39   C56   S    
C94   C115  S    
C51   C164  S    
C96   O100  S    
C24   C107  A    
C154  O35   A    
C19   H49   S    
C3    O7    S    
C81   O18   S    
C129  C133  A    
C162  H25   S    
C1    C79   S    
C41   C63   S    
O69   Zn8   S    
C93   O49   A    
C126  H58   S    
C80   O15   D    
C42   C64   S    
C101  C106  A    
C146  O75   A    
C90   C93   S    
C30   H40   S    
C155  O44   A    
H70   O94   S    
C19   H44   S    
C13   C106  A    
C10   O10   S    
C53   C58   S    
O61   Zn9   S    
O126  Zn2   S    
C62   O84   D    
O72   Zn10  S    
H14   O40   S    
C107  C138  S    
H101  O4    S    
H86   O114  S    
C112  C117  A    
C45   C50   S    
O104  Zn3   S    
C125  H27   S    
C139  C169  S    
C113  H23   S    
C86   O29   S    
C150  O126  A    
C127  C131  A    
C92   C104  S    
O1    Zn1   S    
C151  O93   A    
H111  O16   S    
C150  O82   A    
O24   Zn3   S    
C116  H26   S    
C36   C155  S    
C145  O73   A    
C76   O135  S    
H5    O25   S    
C57   C92   A    
C35   O95   S    
C109  C135  A    
C43   C83   S    
C160  C173  A    
C110  C136  A    
C139  O61   A    
C71   O119  D    
H100  O3    S    
C95   O99   S    
C123  O53   A    
C47   C159  S    
C59   H13   S    
H90   O122  S    
C32   C36   A    
C102  H21   S    
C122  O52   A    
C74   C174  S    
C124  O54   A    
H81   O107  S    
O77   Zn12  S    
C22   H48   S    
C170  O90   S    
C40   C49   S    
C74   O130  D    
C53   C142  S    
H89   O120  S    
C70   O118  S    
C86   O28   D    
C82   O19   D    
C104  O60   A    
C168  C171  A    
C8    O8    S    
C115  O50   A    
H67   O91   S    
C29   C38   A    
O49   Zn1   S    
H3    O20   S    
H63   O85   S    
H64   O87   S    
C28   C38   A    
C110  C114  A    
C114  C119  A    
H15   O41   S    
C8    C12   A    
C105  C135  S    
C106  C136  S    
O68   Zn9   S    
O54   Zn5   S    
C160  H34   S    
C156  H31   S    
C14   C17   A    
C91   O37   D    
C148  O41   S    
C143  O70   A    
C92   C97   A    
C54   C59   S    
H110  O14   S    
C30   C34   A    
C120  C129  A    
O45   Zn4   S    
C179  O5    S    
H73   O97   S    
C48   C121  S    
C52   C126  S    
C9    C23   A    
C41   H55   S    
H71   O95   S    
C63   O87   S    
C156  C172  A    
C142  O69   A    
C68   C94   A    
C116  C120  A    
C85   O27   S    
C22   C164  S    
H103  O5    S    
C67   C110  S    
C140  O62   A    
C132  C136  A    
C20   C162  S    
C7    C176  A    
O46   Zn6   S    
C31   C34   A    
C102  C107  A    
C121  O55   A    
O56   Zn6   S    
C10   C25   A    
C26   C30   A    
C140  C171  S    
C114  H24   S    
C118  C127  A    
H9    O33   S    
C58   H59   S    
C72   O122  S    
C54   C148  S    
C119  C152  S    
C35   C170  A    
C83   O21   D    
O115  Zn4   S    
C147  O78   A    
C13   O92   S    
C4    C178  A    
C75   O133  S    
C90   C96   A    
O82   Zn12  S    
C52   C141  S    
C1    O1    A    
C59   H60   S    
C152  O104  A    
C141  O68   A    
C96   C100  A    
C99   H18   S    
H104  O6    S    
C164  H47   S    
H95   O128  S    
C161  H1    S    
O70   Zn11  S    
C71   C131  S    
H87   O116  S    
O78   Zn2   S    
H99   O135  S    
C111  C138  A    
C1    O46   A    
C117  C125  A    
H68   O92   S    
C15   C18   A    
O65   Zn9   S    
H84   O112  S    
H7    O29   S    
C160  C168  A    
C76   O134  D    
H96   O129  S    
H85   O113  S    
O67   Zn11  S    
H12   O39   S    
H4    O22   S    
C21   C54   S    
C69   O111  S    
C6    C175  A    
C94   C98   A    
C70   C130  S    
O2    Zn12  S    
C56   H102  S    
C19   C161  S    
O79   Zn3   S    
H65   O89   S    
C19   C52   S    
C146  O76   A    
C12   C17   A    
C28   H38   S    
C111  C116  A    
C45   C89   S    
C174  C178  A    
O63   Zn11  S    
O47   Zn6   S    
C81   O17   D    
C55   C159  S    
C133  C138  A    
C55   C60   S    
O71   Zn5   S    
C159  H91   S    
C51   C124  S    
C122  O56   A    
C80   O16   S    
C166  O127  S    
C124  O58   A    
H83   O111  S    
C34   C154  S    
C20   H50   S    
C75   C175  S    
O66   Zn10  S    
C56   H57   S    
C76   C176  S    
C40   H54   S    
H88   O118  S    
C47   C51   S    
C48   C161  S    
C4    C147  S    
C62   O85   S    
C108  C112  A    
H78   O102  S    
C93   O47   A    
C17   C145  S    
C127  H28   S    
C5    C180  A    
C79   C95   A    
C137  O40   S    
C77   O3    S    
H94   O127  S    
C158  C173  A    
C73   O124  S    
C60   H17   S    
C98   O102  S    
C33   H43   S    
C27   H37   S    
C178  O4    S    
H109  O11   S    
C157  C166  A    
C41   C50   S    
C155  O45   A    
H74   O98   S    
C142  O65   A    
C50   C163  S    
C47   C91   S    
O44   Zn3   S    
C20   C53   S    
C3    C5    A    
C67   O109  S    
C137  H69   S    
C26   C37   A    
C22   C55   S    
C46   C90   A    
C6    C173  S    
C23   C38   S    
C144  O67   A    
C58   H2    S    
C2    O91   S    
H10   O36   S    
C162  O113  S    
C123  O57   A    
C57   O97   S    
C120  C153  S    
C156  C165  A    
C74   O131  S    
O75   Zn10  S    
C66   C109  S    
C24   C68   A    
C104  O48   A    
C82   O20   S    
C13   C57   A    
C159  O42   S    
C180  O6    S    
C11   C25   A    
C66   O107  S    
C129  H30   S    
C64   O88   D    
C87   O30   D    
C39   C48   S    
C44   C49   S    
C163  O114  S    
H92   O124  S    
C151  O2    A    
C154  O43   A    
H79   O105  S    
C9    C14   A    
C141  O64   A    
C15   C81   S    
C2    C46   A    
C108  C134  A    
C100  C105  A    
C131  C135  A    
C10   C15   A    
C157  C172  A    
C139  O59   A    
C67   O108  D    
C21   H51   S    
O55   Zn6   S    
C40   C62   S    
C11   C16   A    
C35   C79   A    
C164  O116  S    
C84   O23   D    
C25   C37   S    
C85   O26   D    
C42   H56   S    
C125  C130  A    
H62   O83   S    
O74   Zn9   S    
C12   C78   S    
C117  C150  S    
C14   C80   S    
O60   Zn5   S    
C43   C48   S    
C88   O32   D    
C63   O86   D    
C109  C113  A    
C42   C51   S    
C145  O74   A    
H105  O7    S    
C89   O34   D    
O43   Zn2   S    
H106  O8    S    
C71   O120  S    
C128  C132  A    
C43   C126  S    
O76   Zn11  S    
O51   Zn1   S    
C147  O77   A    
C33   C36   A    
C65   O103  D    
C24   O94   S    
C41   C59   S    
C165  O125  S    
C64   O89   S    
C42   C60   S    
H82   O109  S    
C175  C179  A    
C78   O14   S    
C20   H45   S    
O62   Zn10  S    
C45   C85   S    
C9    O9    S    
C70   O117  D    
C77   C177  S    
C11   O11   S    
C176  C180  A    
C153  O115  A    
C16   C82   S    
C49   C162  S    
H93   O125  S    
C166  C169  A    
C149  O80   A    
C66   O106  D    
C73   C133  S    
C46   O96   S    
O93   Zn2   S    
C91   O38   S    
O64   Zn8   S    
H6    O27   S    
H77   O101  S    
C103  C134  S    
C55   C144  S    
C167  O128  S    
O35   Zn12  S    
C50   C123  S    
C18   C146  S    
C88   O33   S    
C32   H42   S    
C75   O132  D    
C2    C105  A    
H97   O131  S    
C149  O79   A    
C43   C87   S    
C115  O71   A    
C3    C177  A    
C84   O25   S    
H16   O42   S    
C69   O110  D    
C69   C111  S    
O73   Zn8   S    
C27   C37   A    
C49   C122  S    
C97   O101  S    
O50   Zn7   S    
H75   O99   S    
O58   Zn7   S    
H76   O100  S    
C118  C151  S    
H98   O133  S    
H112  O18   S    
C61   O81   D    
C113  C118  A    
C100  H19   S    
O59   Zn8   S    
C29   H39   S    
C22   H52   S    
H72   O96   S    
C157  H32   S    
C16   C18   A    
H107  O9    S    
C152  O13   A    
C89   O36   S    
C4    C179  A    
C44   C88   S    
O13   Zn4   S    
C97   C101  A    
C72   O121  D    
C52   C56   S    
