data_mof_unit_15831.cif
_audit_creation_date              2012-12-10T17:17:53-0500
_audit_creation_method            fapswitch 2.2
_symmetry_space_group_name_H-M    P1
_symmetry_Int_Tables_number       1
_space_group_crystal_system       triclinic
_cell_length_a                    14.392308
_cell_length_b                    16.529602
_cell_length_c                    9.721147
_cell_angle_alpha                 89.630353
_cell_angle_beta                  88.559097
_cell_angle_gamma                 89.578613
_cell_volume                      2311.81311964

loop_
_atom_site_label
_atom_site_type_symbol
_atom_type_description
_atom_site_fract_x
_atom_site_fract_y
_atom_site_fract_z
_atom_type_partial_charge
C1    C     C_R   0.376063 0.885501 0.500264 0.760397
C2    C     C_R   0.383683 0.120864 0.500971 0.776254
C3    C     C_R   0.876063 0.385500 0.500264 0.760398
C4    C     C_R   0.883683 0.620863 0.500971 0.776253
C5    C     C_R   0.263864 0.203161 0.385615 -0.221537
C6    C     C_R   0.294292 0.774258 0.381452 -0.209405
C7    C     C_R   0.763862 0.703160 0.385615 -0.221537
C8    C     C_R   0.794292 0.274258 0.381451 -0.209406
C9    C     C_R   0.692655 0.760509 0.387586 -0.236655
C10   C     C_R   0.732244 0.210076 0.382177 -0.236038
C11   C     C_R   0.192657 0.260510 0.387585 -0.236656
C12   C     C_R   0.232243 0.710076 0.382178 -0.236036
C13   C     C_R   0.669060 0.801993 0.507058 -0.116915
C14   C     C_R   0.684853 0.186977 0.504293 -0.113428
C15   C     C_R   0.169061 0.301995 0.507058 -0.116912
C16   C     C_R   0.184851 0.686978 0.504293 -0.113429
C17   C     C_R   0.678720 0.016665 0.124721 0.236563
C18   C     C_R   0.178718 0.516669 0.124722 0.236570
C19   C     C_R   0.753204 0.040086 0.037175 -0.299196
C20   C     C_R   0.253201 0.540094 0.037176 -0.299200
C21   C     C_R   0.749950 0.028870 0.897585 0.053423
C22   C     C_R   0.249948 0.528879 0.897587 0.053425
C23   C     C_R   0.666847 0.006411 0.842482 -0.193015
C24   C     C_R   0.166847 0.506414 0.842483 -0.193015
C25   C     C_R   0.583299 0.003921 0.920233 0.092093
C26   C     C_R   0.083299 0.503922 0.920234 0.092093
C27   C     C_R   0.585621 0.006115 0.069588 0.138906
C28   C     C_R   0.085621 0.506116 0.069588 0.138908
C29   C     C_R   0.421332 0.996438 0.079120 -0.089057
C30   C     C_R   0.921332 0.496437 0.079120 -0.089058
C31   C     C_R   0.619254 0.118486 0.500336 0.775911
C32   C     C_R   0.611364 0.876330 0.500947 0.808010
C33   C     C_R   0.119253 0.618486 0.500336 0.775908
C34   C     C_R   0.111364 0.376331 0.500947 0.808013
C35   C     C_R   0.420467 0.999069 0.932999 0.161314
C36   C     C_R   0.920467 0.499068 0.932999 0.161312
C37   C     C_R   0.344123 0.227925 0.747616 -0.182632
C38   C     C_R   0.211502 0.873804 0.695852 -0.223166
C39   C     C_R   0.844121 0.727923 0.747617 -0.182634
C40   C     C_R   0.711503 0.373802 0.695854 -0.223169
C41   C     C_R   0.303353 0.251392 0.873215 -0.222331
C42   C     C_R   0.165595 0.856418 0.820823 -0.184403
C43   C     C_R   0.803351 0.751389 0.873216 -0.222334
C44   C     C_R   0.665597 0.356415 0.820825 -0.184408
C45   C     C_R   0.710134 0.775163 0.880469 0.154917
C46   C     C_R   0.650718 0.276600 0.859120 0.138262
C47   C     C_R   0.210137 0.275165 0.880469 0.154910
C48   C     C_R   0.150714 0.776604 0.859118 0.138263
C49   C     C_R   0.664082 0.789551 0.759339 -0.190811
C50   C     C_R   0.659603 0.217062 0.758464 -0.208890
C51   C     C_R   0.164084 0.289553 0.759338 -0.190812
C52   C     C_R   0.159598 0.717065 0.758463 -0.208891
C53   C     C_R   0.708221 0.775853 0.631021 0.059488
C54   C     C_R   0.694233 0.236112 0.623827 0.076564
C55   C     C_R   0.208223 0.275854 0.631020 0.059492
C56   C     C_R   0.194230 0.736114 0.623827 0.076564
C57   C     C_R   0.291884 0.231004 0.626578 0.092027
C58   C     C_R   0.238460 0.811355 0.607440 0.112064
C59   C     C_R   0.791882 0.731003 0.626579 0.092027
C60   C     C_R   0.738462 0.311354 0.607441 0.112063
C61   C     C_R   0.316281 0.188792 0.503638 -0.103343
C62   C     C_R   0.301613 0.823731 0.497028 -0.102296
C63   C     C_R   0.816280 0.688791 0.503638 -0.103344
C64   C     C_R   0.801613 0.323731 0.497028 -0.102296
Cu1   Cu    Cu3+1 0.499990 0.000000 0.640660 0.907032
Cu2   Cu    Cu3+1 0.999990 0.500000 0.640660 0.907032
Cu3   Cu    Cu3+1 0.500010 0.000000 0.359340 0.935773
Cu4   Cu    Cu3+1 0.000010 0.500000 0.359340 0.935773
H1    H     H_    0.277595 0.170116 0.291323 0.155829
H2    H     H_    0.335015 0.786280 0.289060 0.164654
H3    H     H_    0.777593 0.670114 0.291324 0.155828
H4    H     H_    0.835014 0.286281 0.289058 0.164654
H5    H     H_    0.670033 0.997336 0.735007 0.222454
H6    H     H_    0.170035 0.497336 0.735008 0.222452
H7    H     H_    0.415433 0.207179 0.747311 0.175428
H8    H     H_    0.224955 0.935390 0.665555 0.142734
H9    H     H_    0.915431 0.707177 0.747312 0.175429
H10   H     H_    0.724955 0.435388 0.665558 0.142737
H11   H     H_    0.341426 0.244899 0.966507 0.131904
H12   H     H_    0.148336 0.903508 0.893521 0.151299
H13   H     H_    0.841423 0.744896 0.966508 0.131904
H14   H     H_    0.648337 0.403504 0.893524 0.151302
H15   H     H_    0.591502 0.806312 0.767324 0.181766
H16   H     H_    0.643105 0.157460 0.792386 0.186196
H17   H     H_    0.091504 0.306312 0.767324 0.181766
H18   H     H_    0.143097 0.657464 0.792386 0.186199
H19   H     H_    0.653945 0.772313 0.297411 0.174075
H20   H     H_    0.723518 0.177769 0.287181 0.148456
H21   H     H_    0.153947 0.272314 0.297410 0.174076
H22   H     H_    0.223519 0.677768 0.287183 0.148455
H23   H     H_    0.357087 0.991536 0.138728 0.140737
H24   H     H_    0.857088 0.491534 0.138728 0.140737
H25   H     H_    0.818944 0.056828 0.080502 0.149849
H26   H     H_    0.318941 0.556839 0.080504 0.149849
N1    N     N_R   0.501200 0.000000 0.147910 -0.198679
N2    N     N_R   0.001200 0.500000 0.147910 -0.198679
N3    N     N_R   0.501270 0.000000 0.852040 -0.209438
N4    N     N_R   0.001270 0.500000 0.852040 -0.209438
O1    O     O_R   0.409820 0.909830 0.618810 -0.596619
O2    O     O_R   0.409820 0.090170 0.618810 -0.601631
O3    O     O_R   0.909820 0.409830 0.618810 -0.596619
O4    O     O_R   0.909820 0.590170 0.618810 -0.601632
O5    O     O_R   0.409840 0.909830 0.381240 -0.589204
O6    O     O_R   0.409840 0.090170 0.381240 -0.584295
O7    O     O_R   0.909840 0.409830 0.381240 -0.589204
O8    O     O_R   0.909840 0.590170 0.381240 -0.584293
O9    O     O_R   0.590170 0.090170 0.618760 -0.614749
O10   O     O_R   0.590170 0.909830 0.618760 -0.617176
O11   O     O_R   0.090170 0.590170 0.618760 -0.614749
O12   O     O_R   0.090170 0.409830 0.618760 -0.617174
O13   O     O_R   0.590190 0.090180 0.381190 -0.578226
O14   O     O_R   0.590190 0.909820 0.381190 -0.530519
O15   O     O_R   0.090190 0.590180 0.381190 -0.578226
O16   O     O_R   0.090190 0.409820 0.381190 -0.530520
C65   C     C_3   0.835271 0.039252 0.805471 -0.398471
C66   C     C_3   0.870547 0.957103 0.751525 -0.324212
C67   C     C_3   0.944621 0.967431 0.637957 -0.862990
H27   H     H_    0.913931 0.996725 0.546304 0.249899
H28   H     H_    0.002321 0.005192 0.674100 0.254655
H29   H     H_    0.972818 0.907208 0.607684 0.251922
H30   H     H_    0.900139 0.921646 0.837791 0.221648
H31   H     H_    0.812576 0.921969 0.708823 0.227977
H32   H     H_    0.817328 0.079684 0.717984 0.200240
H33   H     H_    0.891972 0.068903 0.861789 0.191696
C68   C     C_3   0.335268 0.539265 0.805473 -0.398465
C69   C     C_3   0.370560 0.457117 0.751547 -0.324208
C70   C     C_3   0.444626 0.467448 0.637968 -0.862987
H34   H     H_    0.413920 0.496713 0.546300 0.249895
H35   H     H_    0.502311 0.505238 0.674083 0.254654
H36   H     H_    0.472850 0.407228 0.607729 0.251926
H37   H     H_    0.400165 0.421675 0.837820 0.221635
H38   H     H_    0.312595 0.421968 0.708863 0.227984
H39   H     H_    0.317319 0.579688 0.717977 0.200243
H40   H     H_    0.391962 0.568930 0.861787 0.191691
C71   C     C_3   0.327891 0.991725 0.871130 -0.382549
C72   C     C_3   0.253999 0.050928 0.929078 -0.398778
C73   C     C_3   0.181987 0.073178 0.821747 -0.824933
H41   H     H_    0.215495 0.091408 0.722714 0.262745
H42   H     H_    0.134298 0.022942 0.803138 0.230910
H43   H     H_    0.138644 0.123448 0.859040 0.246559
H44   H     H_    0.217572 0.023539 0.019959 0.194841
H45   H     H_    0.287743 0.106481 0.964904 0.237785
H46   H     H_    0.334876 0.000607 0.760694 0.271952
H47   H     H_    0.307040 0.929121 0.894455 0.180664
C74   C     C_3   0.827891 0.491724 0.871130 -0.382547
C75   C     C_3   0.753998 0.550925 0.929081 -0.398777
C76   C     C_3   0.681985 0.573175 0.821751 -0.824941
H48   H     H_    0.715491 0.591407 0.722719 0.262746
H49   H     H_    0.634297 0.522938 0.803139 0.230920
H50   H     H_    0.638640 0.623444 0.859047 0.246557
H51   H     H_    0.717572 0.523535 0.019961 0.194842
H52   H     H_    0.787741 0.606478 0.964907 0.237784
H53   H     H_    0.834875 0.500607 0.760694 0.271952
H54   H     H_    0.807041 0.429120 0.894453 0.180666
C77   C     C_3   0.659902 0.786701 0.016005 -0.403658
C78   C     C_3   0.571345 0.734619 0.032517 -0.383750
C79   C     C_3   0.492287 0.778697 0.108062 -0.819543
H55   H     H_    0.512301 0.797016 0.212468 0.273201
H56   H     H_    0.471277 0.832951 0.048445 0.258248
H57   H     H_    0.431788 0.737585 0.116923 0.220212
H58   H     H_    0.543165 0.717388 0.931880 0.213843
H59   H     H_    0.588175 0.677912 0.089099 0.215069
H60   H     H_    0.708624 0.769301 0.096810 0.160513
H61   H     H_    0.642893 0.851728 0.027021 0.219021
C80   C     C_3   0.625709 0.255851 0.006462 -0.421541
C81   C     C_3   0.520547 0.254961 0.028764 -0.377596
C82   C     C_3   0.493578 0.249738 0.181118 -0.816051
H62   H     H_    0.520484 0.192618 0.225144 0.294405
H63   H     H_    0.522094 0.301770 0.237757 0.249596
H64   H     H_    0.416771 0.250735 0.193830 0.233323
H65   H     H_    0.489606 0.311122 0.985263 0.220803
H66   H     H_    0.492607 0.201481 0.975285 0.219770
H67   H     H_    0.655363 0.195816 0.034038 0.194804
H68   H     H_    0.657125 0.300930 0.075668 0.199233
C83   C     C_3   0.159903 0.286702 0.016005 -0.403661
C84   C     C_3   0.071347 0.234619 0.032516 -0.383748
C85   C     C_3   0.992289 0.278696 0.108062 -0.819541
H69   H     H_    0.012303 0.297015 0.212468 0.273200
H70   H     H_    0.971278 0.332950 0.048447 0.258248
H71   H     H_    0.931791 0.237585 0.116923 0.220213
H72   H     H_    0.043167 0.217390 0.931879 0.213844
H73   H     H_    0.088177 0.177912 0.089096 0.215069
H74   H     H_    0.208626 0.269300 0.096810 0.160514
H75   H     H_    0.142895 0.351729 0.027022 0.219021
C86   C     C_3   0.125705 0.755856 0.006462 -0.421542
C87   C     C_3   0.020544 0.754961 0.028762 -0.377595
C88   C     C_3   0.993574 0.749739 0.181117 -0.816048
H76   H     H_    0.020486 0.692623 0.225147 0.294402
H77   H     H_    0.022085 0.801775 0.237753 0.249594
H78   H     H_    0.916768 0.750731 0.193829 0.233323
H79   H     H_    0.989600 0.811120 0.985259 0.220805
H80   H     H_    0.992606 0.701479 0.975286 0.219769
H81   H     H_    0.155364 0.695823 0.034040 0.194806
H82   H     H_    0.157118 0.800938 0.075666 0.199233
N5    N     N_2   0.706177 0.996404 0.260149 -0.339061
H83   H     H_    0.734694 0.045254 0.307891 0.236599
C89   C     C_3   0.775271 0.931986 0.268357 -0.689620
H84   H     H_    0.785660 0.915339 0.377630 0.224903
H85   H     H_    0.843932 0.951530 0.225921 0.199899
H86   H     H_    0.753101 0.878534 0.211150 0.235096
N6    N     N_2   0.206177 0.496405 0.260147 -0.339062
H87   H     H_    0.234694 0.545253 0.307894 0.236600
C90   C     C_3   0.275271 0.431986 0.268349 -0.689630
H88   H     H_    0.285663 0.415337 0.377621 0.224902
H89   H     H_    0.343931 0.451532 0.225910 0.199902
H90   H     H_    0.253101 0.378536 0.211141 0.235096

loop_
_geom_bond_atom_site_label_1
_geom_bond_atom_site_label_2
_ccdc_geom_bond_type
C68   H40   S    
C58   C62   A    
Cu2   Cu4   S    
C90   H88   S    
C15   C34   S    
C42   H12   S    
C69   C70   S    
C40   C60   A    
C46   C80   S    
N6    H87   S    
Cu2   O4    S    
C13   C32   S    
C27   N1    A    
C76   H48   S    
C86   H82   S    
C21   C65   S    
C24   H6    S    
C1    C62   S    
C1    O1    A    
C70   H35   S    
C74   C75   S    
C53   C59   A    
Cu3   O5    S    
C71   C72   S    
C82   H63   S    
C80   C81   S    
C54   C60   A    
C3    C64   S    
C3    O7    A    
C84   H73   S    
C73   H42   S    
C4    C63   S    
C10   H20   S    
Cu4   N2    S    
C66   H31   S    
C36   C74   S    
C37   C41   A    
C39   H9    S    
C12   H22   S    
C78   C79   S    
C76   H49   S    
C24   C26   A    
C38   C42   A    
C44   H14   S    
C67   H28   S    
C6    C12   A    
C49   C53   A    
C80   H67   S    
C65   C66   S    
C42   C48   A    
C66   C67   S    
C6    H2    S    
C87   H79   S    
C89   H85   S    
C14   C31   S    
C9    C13   A    
C88   H78   S    
C30   N2    A    
C38   C58   A    
C11   C15   A    
C79   H55   S    
C47   C51   A    
C12   C16   A    
C85   H70   S    
C4    O4    A    
C72   H45   S    
C86   H81   S    
C45   C77   S    
C45   C49   A    
C68   H39   S    
C1    O5    A    
Cu1   O10   S    
C18   C20   A    
C19   H25   S    
C2    C61   S    
Cu4   O15   S    
C74   H53   S    
C33   O15   A    
C3    O3    A    
C46   C50   A    
C71   H46   S    
C37   H7    S    
C78   H59   S    
C81   H65   S    
C79   H56   S    
C81   H66   S    
Cu3   N1    S    
N6    C90   S    
Cu2   O3    S    
C51   H17   S    
Cu4   O8    S    
C23   H5    S    
C90   H90   S    
C44   C46   A    
Cu3   O6    S    
C82   H64   S    
C13   C53   A    
C84   H72   S    
C73   H43   S    
C31   O9    A    
C8    H4    S    
C65   H32   S    
C66   H30   S    
C50   H16   S    
C17   C27   A    
C76   H50   S    
C18   C28   A    
Cu1   O1    S    
C30   H24   S    
C10   C14   A    
C67   H29   S    
C35   C71   S    
C82   H62   S    
C29   N1    A    
C22   C68   S    
C38   H8    S    
Cu1   Cu3   S    
C80   H68   S    
C5    H1    S    
C60   C64   A    
N5    H83   S    
C15   C55   A    
C89   H86   S    
C16   C56   A    
C72   H44   S    
C16   C33   S    
C90   H89   S    
C11   H21   S    
C83   C84   S    
C2    O6    A    
C85   H71   S    
C39   C59   A    
C41   C47   A    
C5    C61   A    
C50   C54   A    
Cu2   O12   S    
C57   C61   A    
C43   C45   A    
C7    C63   A    
C8    C64   A    
C75   H52   S    
C74   H54   S    
C40   H10   S    
Cu3   O13   S    
C84   C85   S    
C14   C54   A    
C26   N4    A    
C78   H58   S    
C79   H57   S    
C55   C57   A    
C81   C82   S    
C34   O12   A    
C22   C24   A    
C17   N5    S    
C34   O16   A    
Cu4   O7    S    
C40   C44   A    
C70   H34   S    
C29   H23   S    
C83   H74   S    
C75   C76   S    
C25   N3    A    
C7    C9    A    
C20   H26   S    
C71   H47   S    
C65   H33   S    
C32   O14   A    
C19   C21   A    
C59   C63   A    
Cu1   O2    S    
C20   C22   A    
C72   C73   S    
C41   H11   S    
C39   C43   A    
C5    C11   A    
C77   H61   S    
C25   C27   A    
C73   H41   S    
C29   C35   A    
C26   C28   A    
C30   C36   A    
C6    C62   A    
C28   N2    A    
C77   H60   S    
C49   H15   S    
C21   C23   A    
C70   H36   S    
Cu1   N3    S    
C48   C86   S    
C67   H27   S    
C9    H19   S    
C7    H3    S    
Cu2   N4    S    
C86   C87   S    
C68   C69   S    
C4    O8    A    
C69   H37   S    
C43   H13   S    
C52   H18   S    
C17   C19   A    
C56   C58   A    
C18   N6    S    
C51   C55   A    
C23   C25   A    
Cu2   O11   S    
C87   H80   S    
C89   H84   S    
C47   C83   S    
C88   H77   S    
C69   H38   S    
C2    O2    A    
C75   H51   S    
Cu3   O14   S    
C48   C52   A    
C33   O11   A    
C88   H76   S    
C8    C10   A    
C85   H69   S    
C32   O10   A    
C77   C78   S    
C31   O13   A    
C36   N4    A    
C87   C88   S    
C35   N3    A    
Cu1   O9    S    
C37   C57   A    
C52   C56   A    
Cu4   O16   S    
C83   H75   S    
N5    C89   S    
