data_mof_unit_60168.cif
_audit_creation_date              2012-12-10T20:43:40-0500
_audit_creation_method            fapswitch 2.2
_symmetry_space_group_name_H-M    P1
_symmetry_Int_Tables_number       1
_space_group_crystal_system       triclinic
_cell_length_a                    10.82308
_cell_length_b                    19.21018
_cell_length_c                    19.229
_cell_angle_alpha                 94.965434
_cell_angle_beta                  92.011659
_cell_angle_gamma                 96.461072
_cell_volume                      3953.6008274

loop_
_atom_site_label
_atom_site_type_symbol
_atom_type_description
_atom_site_fract_x
_atom_site_fract_y
_atom_site_fract_z
_atom_type_partial_charge
C1    C     C_R   0.512855 0.690137 0.508357 0.816692
C2    C     C_R   0.516087 0.766958 0.512174 -0.005169
C3    C     C_R   0.468877 0.803042 0.570153 -0.212640
C4    C     C_R   0.487478 0.309706 0.491445 0.804205
C5    C     C_R   0.467765 0.875644 0.573383 -0.191846
C6    C     C_R   0.490230 0.513738 0.766002 -0.025451
C7    C     C_R   0.583780 0.485876 0.803585 -0.253508
C8    C     C_R   0.591835 0.493785 0.876817 0.108662
C9    C     C_R   0.500518 0.528538 0.912765 0.297088
C10   C     C_R   0.409109 0.557447 0.875027 -0.217307
C11   C     C_R   0.403519 0.550033 0.802262 -0.221690
C12   C     C_R   0.545483 0.200811 0.538350 -0.211758
C13   C     C_R   0.518959 0.553217 0.127917 -0.209979
C14   C     C_R   0.520263 0.557310 0.201076 -0.062951
C15   C     C_R   0.500683 0.487554 0.087752 0.289226
C16   C     C_R   0.510718 0.493871 0.311042 0.842786
C17   C     C_R   0.507483 0.494076 0.234621 -0.081127
C18   C     C_R   0.490027 0.429069 0.194201 -0.217487
C19   C     C_R   0.486927 0.425991 0.121611 -0.180472
C20   C     C_R   0.487813 0.507394 0.689136 0.800781
C21   C     C_R   0.835105 0.515385 0.515423 0.855474
C22   C     C_R   0.163844 0.485097 0.485087 0.899002
C23   C     C_R   0.549758 0.128625 0.532157 -0.191181
C24   C     C_2   0.029015 0.479364 0.479245 -0.338423
C25   C     C_2   0.968376 0.521157 0.521327 -0.293635
C26   C     C_R   0.487686 0.232845 0.485475 -0.024367
C27   C     C_2   0.527865 0.628293 0.239551 0.926223
C28   C     C_3   0.700614 0.467185 0.914251 -0.418339
C29   C     C_3   0.791151 0.528145 0.949843 -0.331671
C30   C     C_3   0.901616 0.501067 0.986039 -0.850754
C31   C     C_2   0.382640 0.076750 0.353182 0.920326
C32   C     C_R   0.496167 0.086330 0.472685 0.261003
C33   C     C_R   0.439184 0.118261 0.418126 -0.059960
C34   C     C_R   0.434695 0.191499 0.425811 -0.258083
C35   C     C_R   0.560052 0.877244 0.460363 -0.138417
C36   C     C_R   0.563246 0.804634 0.457683 -0.204169
C37   C     C_R   0.510687 0.913126 0.518233 0.320456
H1    H     H_    0.978759 0.440910 0.440467 0.150624
H2    H     H_    0.600209 0.777813 0.412504 0.178893
H3    H     H_    0.596328 0.905180 0.417529 0.168333
H4    H     H_    0.391334 0.216756 0.384653 0.205140
H5    H     H_    0.433076 0.775133 0.613142 0.164472
H6    H     H_    0.596596 0.105833 0.573822 0.159924
H7    H     H_    0.431070 0.902740 0.618481 0.146586
H8    H     H_    0.595455 0.730924 0.243844 0.345649
H9    H     H_    0.868999 0.466718 0.026904 0.267207
H10   H     H_    0.953805 0.470891 0.947461 0.259325
H11   H     H_    0.965426 0.546226 0.011222 0.255644
H12   H     H_    0.587929 0.231617 0.584669 0.170074
H13   H     H_    0.826228 0.563270 0.910070 0.221836
H14   H     H_    0.743370 0.559600 0.989498 0.243555
H15   H     H_    0.666923 0.430432 0.952709 0.219189
H16   H     H_    0.753052 0.436063 0.876461 0.194568
H17   H     H_    0.341789 0.982305 0.297559 0.350944
H18   H     H_    0.528720 0.601525 0.102412 0.186035
H19   H     H_    0.340980 0.585286 0.902365 0.155381
H20   H     H_    0.331334 0.572650 0.774425 0.170564
H21   H     H_    0.479775 0.380315 0.218991 0.167407
H22   H     H_    0.473542 0.375226 0.091422 0.148769
H23   H     H_    0.653032 0.459462 0.775672 0.166106
H24   H     H_    0.016275 0.559920 0.560538 0.160179
N1    N     N_2   0.501737 0.012501 0.466437 -0.130204
N2    N     N_2   0.504647 0.986700 0.523721 -0.200876
N3    N     N_2   0.500843 0.537683 0.986498 -0.207015
N4    N     N_2   0.496068 0.480827 0.013514 -0.193987
O1    O     O_3   0.500000 0.500000 0.500000 -0.488342
O2    O     O_R   0.783160 0.551820 0.473170 -0.632166
O3    O     O_R   0.222430 0.530340 0.530340 -0.639735
O4    O     O_R   0.771990 0.472690 0.551320 -0.638191
O5    O     O_R   0.222420 0.445150 0.445160 -0.638314
O6    O     O_2   0.469199 0.637848 0.292066 -0.630660
O7    O     O_R   0.598471 0.685162 0.213762 -0.804748
O8    O     O_2   0.335052 0.106659 0.307267 -0.628305
O9    O     O_R   0.383089 0.003760 0.343820 -0.787423
O10   O     O_R   0.435070 0.449940 0.339290 -0.641829
O11   O     O_R   0.419380 0.543640 0.654290 -0.650025
O12   O     O_R   0.586230 0.658380 0.469080 -0.624191
O13   O     O_R   0.559310 0.348040 0.537340 -0.645467
O14   O     O_R   0.435110 0.654980 0.544320 -0.648252
O15   O     O_R   0.419350 0.338590 0.449260 -0.645826
O16   O     O_R   0.586210 0.538520 0.349230 -0.615342
O17   O     O_R   0.559330 0.467910 0.657200 -0.649009
Zn1   Zn    Zn3+2 0.396020 0.434560 0.434560 0.992528
Zn2   Zn    Zn3+2 0.611960 0.561120 0.448760 1.012508
Zn3   Zn    Zn3+2 0.595990 0.448060 0.560420 0.962161
Zn4   Zn    Zn3+2 0.396040 0.556260 0.556260 0.974769

loop_
_geom_bond_atom_site_label_1
_geom_bond_atom_site_label_2
_ccdc_geom_bond_type
C3    H5    S    
C20   O17   A    
C16   O10   A    
C1    O12   A    
C35   C36   A    
O1    Zn3   S    
C12   H12   S    
C27   O6    D    
C7    C8    A    
C15   C19   A    
C12   C23   A    
N1    N2    D    
C30   H11   S    
C28   C29   S    
C35   C37   A    
C4    O15   A    
C5    C37   A    
C31   O8    D    
C9    N3    S    
C23   H6    S    
C20   O11   A    
C1    C2    S    
O1    Zn1   S    
H17   O9    S    
C18   H21   S    
C8    C9    A    
C24   H1    S    
C31   C33   S    
C14   C27   S    
C10   H19   S    
C9    C10   A    
O2    Zn2   S    
C13   C14   A    
C21   O2    A    
H8    O7    S    
C14   C17   A    
C34   H4    S    
O15   Zn1   S    
C37   N2    S    
C26   C34   A    
C17   C18   A    
C29   H13   S    
C30   H10   S    
C24   C25   D    
C6    C11   A    
C16   C17   S    
C31   O9    S    
O12   Zn2   S    
C19   H22   S    
C32   C33   A    
C21   O4    A    
C4    O13   A    
C29   C30   S    
C33   C34   A    
C25   H24   S    
O5    Zn1   S    
C22   O3    A    
O3    Zn4   S    
O13   Zn3   S    
C5    H7    S    
C13   C15   A    
C8    C28   S    
C22   C24   S    
O11   Zn4   S    
C7    H23   S    
O16   Zn2   S    
O4    Zn3   S    
C29   H14   S    
C2    C36   A    
C21   C25   S    
C30   H9    S    
C36   H2    S    
C3    C5    A    
O1    Zn4   S    
C4    C26   S    
C28   H16   S    
C6    C7    A    
O17   Zn3   S    
C6    C20   S    
C23   C32   A    
C35   H3    S    
C32   N1    S    
N3    N4    D    
C28   H15   S    
O10   Zn1   S    
C1    O14   A    
C16   O16   A    
C2    C3    A    
C10   C11   A    
O1    Zn2   S    
C12   C26   A    
C18   C19   A    
C11   H20   S    
C22   O5    A    
O14   Zn4   S    
C27   O7    S    
C13   H18   S    
C15   N4    S    
