data_mof_unit_52457.cif
_audit_creation_date              2012-12-11T17:19:08-0500
_audit_creation_method            fapswitch 2.2
_symmetry_space_group_name_H-M    P1
_symmetry_Int_Tables_number       1
_space_group_crystal_system       triclinic
_cell_length_a                    14.912223
_cell_length_b                    7.261674
_cell_length_c                    13.256053
_cell_angle_alpha                 89.999126
_cell_angle_beta                  100.201061
_cell_angle_gamma                 90.001094
_cell_volume                      1412.77611826

loop_
_atom_site_label
_atom_site_type_symbol
_atom_type_description
_atom_site_fract_x
_atom_site_fract_y
_atom_site_fract_z
_atom_type_partial_charge
O1    O     O_R   0.648180 0.355050 0.151550 -0.530460
O2    O     O_R   0.351820 0.644950 0.848450 -0.530462
O3    O     O_R   0.851820 0.855050 0.348450 -0.530433
O4    O     O_R   0.148180 0.144950 0.651550 -0.530440
O5    O     O_R   0.835240 0.681980 0.154280 -0.539703
O6    O     O_R   0.164760 0.318020 0.845720 -0.539711
O7    O     O_R   0.664760 0.181980 0.345720 -0.539732
O8    O     O_R   0.335240 0.818020 0.654280 -0.539736
H1    H     H_    0.667690 0.944802 0.843894 0.124878
H2    H     H_    0.332306 0.055090 0.156102 0.124882
H3    H     H_    0.832309 0.444736 0.656111 0.124870
H4    H     H_    0.167694 0.555172 0.343891 0.124874
C1    C     C_R   0.862038 0.515720 0.131017 0.876090
C2    C     C_R   0.137962 0.484280 0.868983 0.876086
C3    C     C_R   0.637961 0.015716 0.368981 0.876068
C4    C     C_R   0.362038 0.984284 0.631018 0.876068
O9    O     O_R   0.647870 0.684600 0.139630 -0.535046
O10   O     O_R   0.352130 0.315400 0.860370 -0.535043
O11   O     O_R   0.852130 0.184600 0.360370 -0.535067
O12   O     O_R   0.147870 0.815400 0.639630 -0.535059
O13   O     O_R   0.663110 0.857440 0.333700 -0.523091
O14   O     O_R   0.336890 0.142560 0.666300 -0.523088
O15   O     O_R   0.836890 0.357440 0.166300 -0.523124
O16   O     O_R   0.163110 0.642560 0.833700 -0.523118
C5    C     C_R   0.614044 0.516278 0.114566 0.749308
C6    C     C_R   0.385956 0.483721 0.885434 0.749304
C7    C     C_R   0.885956 0.016279 0.385434 0.749287
C8    C     C_R   0.114044 0.983721 0.614566 0.749284
O17   O     O_3   0.755220 0.522230 0.313690 -0.378290
O18   O     O_3   0.244780 0.477770 0.686310 -0.378290
O19   O     O_3   0.744780 0.022230 0.186310 -0.378296
O20   O     O_3   0.255220 0.977770 0.813690 -0.378297
V1    V     V_3+5 0.749030 0.796100 0.238190 1.451381
V2    V     V_3+5 0.250970 0.203900 0.761810 1.451373
V3    V     V_3+5 0.750970 0.296100 0.261810 1.451323
V4    V     V_3+5 0.249030 0.703900 0.738190 1.451327
C9    C     C_1   0.966456 0.005577 0.466223 -0.205682
C10   C     C_1   0.033544 0.994423 0.533778 -0.205682
C11   C     C_1   0.533544 0.505576 0.033777 -0.205669
C12   C     C_1   0.466456 0.494424 0.966222 -0.205671
C13   C     C_R   0.556018 0.972971 0.719059 0.147560
C14   C     C_R   0.443981 0.026987 0.280940 0.147553
C15   C     C_R   0.943983 0.472924 0.780943 0.147558
C16   C     C_R   0.056017 0.527057 0.219057 0.147553
C17   C     C_R   0.647790 0.954580 0.761336 -0.221304
C18   C     C_R   0.352206 0.045342 0.238660 -0.221300
C19   C     C_R   0.852210 0.454541 0.738667 -0.221319
C20   C     C_R   0.147793 0.545400 0.261335 -0.221328
C21   C     C_R   0.713908 0.949281 0.700459 0.212463
C22   C     C_R   0.286088 0.050654 0.299538 0.212447
C23   C     C_R   0.786090 0.449286 0.799542 0.212512
C24   C     C_R   0.213913 0.550658 0.200460 0.212514
C25   C     C_R   0.688931 0.966676 0.593689 0.160342
C26   C     C_R   0.311067 0.033304 0.406310 0.160330
C27   C     C_R   0.811067 0.466726 0.906309 0.160377
C28   C     C_R   0.188935 0.533251 0.093692 0.160389
C29   C     C_R   0.594880 0.985726 0.545521 -0.040753
C30   C     C_R   0.405119 0.014265 0.454478 -0.040749
C31   C     C_R   0.905120 0.485743 0.954478 -0.040753
C32   C     C_R   0.094882 0.514253 0.045523 -0.040749
C33   C     C_R   0.526656 0.984276 0.609597 0.012293
C34   C     C_R   0.473343 0.015709 0.390402 0.012294
C35   C     C_R   0.973346 0.484259 0.890404 0.012303
C36   C     C_R   0.026656 0.515741 0.109596 0.012307
C37   C     C_R   0.567832 0.005193 0.436307 -0.135806
C38   C     C_R   0.432167 0.994805 0.563692 -0.135806
C39   C     C_R   0.932167 0.505216 0.063691 -0.135827
C40   C     C_R   0.067834 0.494787 0.936309 -0.135827
N1    N     N_3   0.494376 0.982837 0.790537 -0.656557
H5    H     H_    0.501936 0.863520 0.835437 0.225473
H6    H     H_    0.512515 0.095698 0.838900 0.233731
N2    N     N_3   0.505623 0.017125 0.209462 -0.656559
H7    H     H_    0.498052 0.136426 0.164549 0.225470
H8    H     H_    0.487496 0.904244 0.161112 0.233735
N3    N     N_3   0.005626 0.482740 0.709463 -0.656560
H9    H     H_    0.998054 0.363412 0.664575 0.225478
H10   H     H_    0.987499 0.595595 0.661091 0.233726
N4    N     N_3   0.994373 0.517246 0.290536 -0.656570
H11   H     H_    0.001974 0.636532 0.335457 0.225470
H12   H     H_    0.012469 0.404343 0.338877 0.233734
N5    N     N_3   0.191863 0.074018 0.253528 -0.673164
H13   H     H_    0.185625 0.109788 0.176164 0.230736
H14   H     H_    0.159586 0.946762 0.255752 0.232997
N6    N     N_3   0.808132 0.925893 0.746466 -0.673164
H15   H     H_    0.814367 0.890068 0.823822 0.230736
H16   H     H_    0.840411 0.053154 0.744272 0.232999
N7    N     N_3   0.308139 0.574004 0.246470 -0.673188
H17   H     H_    0.314372 0.609955 0.323807 0.230736
H18   H     H_    0.340388 0.446699 0.244338 0.233029
N8    N     N_3   0.691866 0.425907 0.753536 -0.673177
H19   H     H_    0.685632 0.389978 0.676195 0.230734
H20   H     H_    0.659604 0.553198 0.755676 0.233018
N9    N     N_3   0.760901 0.962691 0.535414 -0.685072
H21   H     H_    0.796779 0.839008 0.550340 0.249712
H22   H     H_    0.804954 0.072523 0.559147 0.218030
N10   N     N_3   0.239099 0.037322 0.464586 -0.685067
H23   H     H_    0.203219 0.160998 0.449642 0.249711
H24   H     H_    0.195048 0.927479 0.440871 0.218026
N11   N     N_3   0.739092 0.462836 0.964579 -0.685102
H25   H     H_    0.703194 0.339171 0.949672 0.249696
H26   H     H_    0.695058 0.572686 0.940824 0.218057
N12   N     N_3   0.260909 0.537153 0.035422 -0.685101
H27   H     H_    0.296810 0.660812 0.050341 0.249690
H28   H     H_    0.304940 0.427296 0.059169 0.218073

loop_
_geom_bond_atom_site_label_1
_geom_bond_atom_site_label_2
_ccdc_geom_bond_type
C30   C34   A    
C16   C20   A    
N7    H17   S    
H1    C17   S    
N9    H21   S    
C27   C31   A    
H3    C19   S    
O10   C6    A    
C13   C33   A    
H4    C20   S    
N5    H13   S    
C15   C35   A    
C16   C36   A    
C22   C26   A    
C21   N6    S    
N6    H16   S    
C23   N8    S    
C14   C18   A    
N4    H12   S    
O13   V1    S    
O3    V1    S    
C3    C37   S    
C1    O15   A    
O8    V4    S    
C2    O16   A    
N1    H6    S    
C31   C39   A    
C33   C38   A    
C30   C38   A    
N10   H24   S    
H2    C18   S    
O19   V1    S    
C8    C10   S    
O11   C7    A    
C14   C34   A    
O5    C1    A    
O7    C3    A    
N9    H22   S    
O1    C5    A    
N12   H27   S    
O9    V1    S    
O4    C8    A    
C15   N3    S    
O14   V2    S    
O4    V2    S    
C25   N9    S    
C36   C39   A    
N6    H15   S    
N2    H8    S    
C11   C12   T    
C25   C29   A    
N4    H11   S    
C19   C23   A    
O12   C8    A    
C28   C32   A    
O5    V1    S    
O20   V2    S    
N3    H9    S    
C9    C10   T    
O6    C2    A    
O10   V2    S    
N8    H20   S    
N11   H25   S    
C17   C21   A    
N10   H23   S    
C14   N2    S    
O2    C6    A    
O16   V4    S    
N12   H28   S    
N3    H10   S    
N11   H26   S    
O15   V3    S    
N7    H18   S    
C4    C38   S    
O1    V3    S    
C13   N1    S    
C26   C30   A    
O2    V4    S    
O17   V3    S    
C35   C40   A    
C4    O14   A    
C34   C37   A    
O7    V3    S    
C24   N7    S    
C1    C39   S    
C29   C37   A    
N2    H7    S    
N5    H14   S    
C29   C33   A    
C18   C22   A    
C31   C35   A    
O18   V4    S    
C32   C36   A    
O9    C5    A    
O3    C7    A    
C28   N12   S    
O11   V3    S    
C5    C11   S    
C6    C12   S    
N8    H19   S    
C3    O13   A    
C7    C9    S    
C21   C25   A    
C16   N4    S    
C23   C27   A    
C2    C40   S    
N1    H5    S    
O12   V4    S    
O6    V2    S    
C20   C24   A    
C32   C40   A    
O8    C4    A    
C27   N11   S    
C13   C17   A    
C15   C19   A    
C26   N10   S    
C24   C28   A    
C22   N5    S    
