data_mof_unit_37961.cif
_audit_creation_date              2012-12-11T16:15:11-0500
_audit_creation_method            fapswitch 2.2
_symmetry_space_group_name_H-M    P1
_symmetry_Int_Tables_number       1
_space_group_crystal_system       triclinic
_cell_length_a                    8.489391
_cell_length_b                    15.368274
_cell_length_c                    17.521426
_cell_angle_alpha                 97.789282
_cell_angle_beta                  95.792016
_cell_angle_gamma                 98.470777
_cell_volume                      2223.06480103

loop_
_atom_site_label
_atom_site_type_symbol
_atom_type_description
_atom_site_fract_x
_atom_site_fract_y
_atom_site_fract_z
_atom_type_partial_charge
Ba1   Ba    Ba6+2 0.159600 0.544390 0.464780 1.774604
Ba2   Ba    Ba6+2 0.650580 0.455600 0.535150 1.727130
C1    C     C_3   0.524482 0.855723 0.222622 -0.459387
C2    C     C_R   0.895249 0.795081 0.521156 0.066542
C3    C     C_R   0.069927 0.227356 0.504211 -0.204611
C4    C     C_3   0.904702 0.764570 0.232929 0.401060
C5    C     C_R   0.162632 0.171541 0.536014 0.014224
C6    C     C_R   0.104322 0.080991 0.527368 -0.085244
C7    C     C_R   0.943636 0.044870 0.496310 -0.050336
C8    C     C_R   0.848453 0.104663 0.462622 -0.045102
C9    C     C_R   0.878298 0.950833 0.494718 -0.010136
C10   C     C_R   0.721285 0.918221 0.455097 -0.090739
C11   C     C_R   0.634610 0.977134 0.420903 -0.193779
C12   C     C_3   0.465759 0.779751 0.265869 0.377934
C13   C     C_R   0.697531 0.066795 0.420163 0.432152
C14   C     C_R   0.957118 0.888804 0.534634 -0.044709
C15   C     C_R   0.743902 0.766807 0.478688 -0.201681
C16   C     C_3   0.953097 0.826204 0.174800 -0.355637
C17   C     C_R   0.912968 0.199332 0.470510 0.089144
C18   C     C_R   0.592301 0.537384 0.280608 -0.332093
C19   C     C_R   0.439375 0.488364 0.255922 0.146476
C20   C     C_R   0.381132 0.471812 0.176394 -0.128887
C21   C     C_R   0.481036 0.496203 0.121033 -0.060477
C22   C     C_R   0.643478 0.533933 0.145799 0.376819
C23   C     C_3   0.556648 0.755402 0.731592 0.468589
C24   C     C_R   0.696409 0.559057 0.226467 -0.070993
C25   C     C_R   0.419830 0.506347 0.838000 -0.149672
C26   C     C_R   0.371131 0.497881 0.756977 0.002843
C27   C     C_R   0.105880 0.424584 0.777005 0.031896
C28   C     C_3   0.715153 0.340491 0.302465 0.352351
C29   C     C_R   0.160367 0.423248 0.855151 -0.100499
C30   C     C_R   0.316007 0.466055 0.886933 -0.018155
C31   C     C_1   0.367850 0.471439 0.970044 0.073826
C32   C     C_1   0.417840 0.480314 0.038769 0.057180
C33   C     C_R   0.212473 0.462113 0.729817 0.142407
C34   C     C_3   0.533381 0.824604 0.805284 -0.309500
C35   C     C_3   0.675800 0.315403 0.214247 0.257138
C36   C     C_3   0.035502 0.654540 0.705075 0.262714
C37   C     C_3   0.984263 0.673905 0.786824 -0.264972
C38   C     C_3   0.186607 0.263945 0.323246 0.233299
C39   C     C_3   0.080269 0.197669 0.258354 0.323672
C40   C     C_2   0.363337 0.706094 0.209855 0.543976
C41   C     C_3   0.778944 0.316280 0.097339 0.231258
C42   C     C_2   0.066410 0.626641 0.844490 0.425951
C43   C     C_2   0.277894 0.218341 0.378612 0.491953
C44   C     C_3   0.963816 0.050066 0.250218 0.186851
C45   C     C_3   0.823708 0.212714 0.685497 0.507314
C46   C     C_3   0.790208 0.844926 0.703971 0.113393
C47   C     C_2   0.454836 0.763855 0.658726 0.446362
C48   C     C_2   0.671410 0.827170 0.869186 0.665578
C49   C     C_2   0.518486 0.917016 0.788241 0.470167
C50   C     C_2   0.377547 0.794997 0.836290 0.572797
C51   C     C_3   0.618147 0.028194 0.614020 0.227944
C52   C     C_2   0.231649 0.236222 0.737912 0.420686
C53   C     C_3   0.540939 0.312036 0.845518 0.162832
C54   C     C_2   0.351117 0.140789 0.871119 0.606698
C55   C     C_2   0.927682 0.818734 0.312469 0.518110
C56   C     C_3   0.815331 0.117505 0.704632 0.277567
C57   C     C_2   0.079816 0.922496 0.602012 0.428370
C58   C     C_3   0.553530 0.085344 0.305504 0.282532
C59   C     C_2   0.567265 0.567658 0.872853 0.490497
C60   C     C_3   0.801851 0.606076 0.067016 0.208728
C61   C     C_3   0.141338 0.418265 0.603282 0.284700
C62   C     C_3   0.394092 0.207808 0.740394 0.614592
C63   C     C_3   0.406522 0.131462 0.791306 -0.199713
C64   C     C_R   0.651852 0.827054 0.450993 -0.021471
H1    H     H_    0.569280 0.344199 0.194610 -0.045756
H2    H     H_    0.160402 0.165727 0.220263 -0.001404
H3    H     H_    0.572597 0.753559 0.289884 -0.154535
H4    H     H_    0.613286 0.906157 0.261907 0.087054
H5    H     H_    0.422498 0.887518 0.201433 0.124935
H6    H     H_    0.944012 0.788090 0.115717 0.121524
H7    H     H_    0.719304 0.217428 0.643837 0.084898
H8    H     H_    0.932688 0.227034 0.656271 -0.207501
H9    H     H_    0.899117 0.081586 0.671896 -0.060945
H10   H     H_    0.858584 0.120095 0.767319 0.158538
H11   H     H_    0.339465 0.067809 0.757619 0.126330
H12   H     H_    0.644235 0.241662 0.199498 0.030780
H13   H     H_    0.533984 0.123673 0.800422 0.151466
H14   H     H_    0.691443 0.697224 0.472133 0.062530
H15   H     H_    0.512786 0.954567 0.394888 0.125825
H16   H     H_    0.127407 0.292224 0.497797 -0.083047
H17   H     H_    0.192446 0.040239 0.540806 0.108559
H18   H     H_    0.079080 0.393701 0.891889 0.106100
H19   H     H_    0.776185 0.736006 0.215891 -0.224556
H20   H     H_    0.260750 0.435951 0.157497 0.105865
H21   H     H_    0.636595 0.550361 0.341880 0.054009
H22   H     H_    0.872023 0.876321 0.172148 0.052978
H23   H     H_    0.160242 0.641003 0.709350 0.001277
H24   H     H_    0.078999 0.860670 0.191418 0.108436
H25   H     H_    0.602872 0.346412 0.328178 -0.042295
H26   H     H_    0.797872 0.405201 0.316924 0.027978
H27   H     H_    0.352682 0.707089 0.147643 -0.034815
H28   H     H_    0.659689 0.326639 0.071066 0.025089
H29   H     H_    0.789384 0.244788 0.086311 0.018370
H30   H     H_    0.871061 0.352987 0.067883 0.098622
H31   H     H_    0.195529 0.630637 0.850478 0.043126
H32   H     H_    0.355844 0.259750 0.426071 0.043602
H33   H     H_    0.082913 0.027878 0.252842 0.075571
H34   H     H_    0.952731 0.595389 0.673339 0.116915
H35   H     H_    0.910248 0.045839 0.189043 0.032504
H36   H     H_    0.885521 0.003836 0.278674 0.047268
H37   H     H_    0.778609 0.901676 0.747006 0.050726
H38   H     H_    0.745756 0.853425 0.644786 0.005328
H39   H     H_    0.921004 0.850588 0.709197 0.112395
H40   H     H_    0.346353 0.791727 0.663227 0.030767
H41   H     H_    0.696784 0.765595 0.887150 0.044381
H42   H     H_    0.510225 0.931495 0.729048 0.004759
H43   H     H_    0.275497 0.765476 0.795157 -0.090194
H44   H     H_    0.680768 0.970577 0.605049 -0.016553
H45   H     H_    0.011082 0.746304 0.809146 0.129233
H46   H     H_    0.649169 0.073599 0.572166 0.033451
H47   H     H_    0.487002 0.003509 0.602321 0.135563
H48   H     H_    0.203155 0.280770 0.699069 -0.104759
H49   H     H_    0.427257 0.311167 0.871666 -0.028173
H50   H     H_    0.604576 0.381203 0.858357 0.100465
H51   H     H_    0.621559 0.271859 0.873564 0.042706
H52   H     H_    0.434004 0.173531 0.921741 -0.052961
H53   H     H_    0.849502 0.866584 0.325839 -0.113043
H54   H     H_    0.058714 0.974488 0.646357 -0.033961
H55   H     H_    0.451605 0.029708 0.298769 0.048183
H56   H     H_    0.853170 0.654035 0.784021 0.154142
H57   H     H_    0.653217 0.065469 0.274777 0.010763
H58   H     H_    0.508930 0.138378 0.276664 0.056833
H59   H     H_    0.675699 0.568472 0.845695 0.073693
H60   H     H_    0.925811 0.633636 0.093316 0.090970
H61   H     H_    0.720451 0.656228 0.076888 0.037373
H62   H     H_    0.808953 0.591644 0.004073 0.144845
H63   H     H_    0.105603 0.351568 0.618170 -0.077841
H64   H     H_    0.242865 0.417905 0.570706 0.088313
H65   H     H_    0.051742 0.435047 0.564426 0.157700
H66   H     H_    0.109578 0.304223 0.355517 -0.015117
H67   H     H_    0.583492 0.830929 0.172143 0.102433
H68   H     H_    0.008132 0.235042 0.222058 0.078882
O1    O     O_2   0.167760 0.722240 0.545330 -0.384469
O2    O     O_2   0.778926 0.439734 0.771500 -0.474342
O3    O     O_3   0.827903 0.273842 0.753842 -0.576147
O4    O     O_3   0.895630 0.608830 0.542770 -0.511746
O5    O     O_3   0.421020 0.453750 0.407560 -0.517768
O6    O     O_2   0.649640 0.543870 0.686710 -0.464061
O7    O     O_3   0.502492 0.672354 0.753333 -0.695420
O8    O     O_2   0.479177 0.178095 0.526806 -0.448179
O9    O     O_3   0.422193 0.167681 0.665800 -0.611378
O10   O     O_3   0.383340 0.666720 0.405900 -0.425049
O11   O     O_2   0.327500 0.824573 0.467720 -0.377260
O12   O     O_3   0.301356 0.314619 0.288772 -0.720735
O13   O     O_3   0.033966 0.730824 0.669297 -0.638194
O14   O     O_3   0.372932 0.811506 0.322855 -0.563036
O15   O     O_2   0.160650 0.456070 0.313260 -0.429581
O16   O     O_3   0.956180 0.620960 0.366010 -0.463688
O17   O     O_2   0.004398 0.532281 0.231480 -0.369534
O18   O     O_2   0.292706 0.642794 0.234109 -0.539942
O19   O     O_3   0.808255 0.348544 0.177672 -0.634748
O20   O     O_2   0.989122 0.584866 0.886490 -0.599760
O21   O     O_2   0.265787 0.137632 0.372221 -0.580045
O22   O     O_3   0.974269 0.136813 0.290683 -0.644136
O23   O     O_3   0.001793 0.697856 0.229798 -0.549023
O24   O     O_3   0.721592 0.760577 0.720146 -0.645770
O25   O     O_2   0.490025 0.735190 0.595322 -0.570500
O26   O     O_2   0.756434 0.896668 0.900325 -0.533383
O27   O     O_2   0.509373 0.975646 0.841580 -0.525064
O28   O     O_2   0.361112 0.811089 0.905524 -0.526606
O29   O     O_3   0.655884 0.071472 0.691301 -0.664924
O30   O     O_2   0.135312 0.214440 0.781524 -0.621133
O31   O     O_3   0.514885 0.284264 0.764339 -0.623667
O32   O     O_2   0.215872 0.107817 0.880608 -0.505129
O33   O     O_2   0.034841 0.810885 0.361684 -0.522184
O34   O     O_2   0.642530 0.277700 0.454650 -0.432405
O35   O     O_2   0.209586 0.897332 0.606342 -0.582104
O36   O     O_3   0.603671 0.119862 0.384506 -0.588004
O37   O     O_2   0.564557 0.622240 0.929890 -0.610916
O38   O     O_3   0.753609 0.525020 0.093314 -0.651443
O39   O     O_3   0.150837 0.487329 0.663560 -0.731671
O40   O     O_3   0.914670 0.391160 0.457170 -0.559991
O41   O     O_3   0.426950 0.333280 0.594040 -0.504857
O42   O     O_3   0.785402 0.272880 0.330852 -0.607571
O43   O     O_3   0.389270 0.546240 0.592370 -0.442515
O44   O     O_3   0.854110 0.379030 0.633930 -0.503191
P1    P     P_3+3 0.994810 0.708030 0.567580 1.071753
P2    P     P_3+3 0.329370 0.428660 0.324010 0.968109
P3    P     P_3+3 0.908977 0.603565 0.264152 1.084023
P4    P     P_3+3 0.815490 0.291960 0.432360 1.020047
P5    P     P_3+3 0.893254 0.381575 0.734724 1.047105
P6    P     P_3+3 0.437008 0.782412 0.413061 1.106053
P7    P     P_3+3 0.478114 0.568473 0.692509 1.043643
P8    P     P_3+3 0.369203 0.216570 0.582905 0.950882

loop_
_geom_bond_atom_site_label_1
_geom_bond_atom_site_label_2
_ccdc_geom_bond_type
C51   H44   S    
C44   H33   S    
O10   P6    S    
C57   H54   S    
C63   H13   S    
C20   H20   S    
C12   O14   S    
C40   H27   S    
C5    P8    S    
C38   O12   S    
O40   P4    S    
C56   H10   S    
C5    C6    A    
C45   H8    S    
C35   H1    S    
O42   P4    S    
C44   H36   S    
O11   P6    D    
C15   C64   A    
C37   H56   S    
C18   C24   A    
O6    P7    D    
C22   C24   A    
C3    C17   A    
C43   H32   S    
C36   C37   S    
Ba1   P2    S    
C53   H50   S    
O4    P1    S    
C54   C63   S    
C46   H38   S    
C18   H21   S    
C11   H15   S    
C41   H28   S    
O43   P7    S    
C28   C35   S    
Ba1   Ba2   S    
Ba2   P4    S    
C61   H64   S    
C58   H58   S    
O5    P2    S    
C25   C59   S    
Ba1   O43   S    
O15   P2    D    
C19   P2    S    
C29   C30   A    
C26   C33   A    
C49   H42   S    
C41   H29   S    
C21   C22   A    
Ba1   O15   S    
C59   O37   D    
Ba2   O43   S    
C61   H65   S    
C39   H2    S    
C40   O18   D    
C7    C8    A    
O44   P5    S    
C34   C50   S    
C55   H53   S    
C39   O22   S    
C37   H45   S    
C38   H66   S    
C19   C20   A    
C4    C55   S    
O23   P3    S    
C4    C16   S    
C56   O29   S    
C17   P4    S    
C28   O42   S    
C39   H68   S    
C51   H47   S    
C56   H9    S    
C61   O39   S    
O16   P3    S    
C16   H6    S    
C38   C43   S    
O8    P8    D    
C44   H35   S    
C23   O7    S    
Ba1   O40   S    
C63   H11   S    
C46   O24   S    
Ba2   O4    S    
C35   O19   S    
C1    H4    S    
C45   H7    S    
C28   H26   S    
C3    C5    A    
C6    C7    A    
C48   O26   D    
C46   H37   S    
C10   C64   A    
C15   H14   S    
C16   H22   S    
C29   H18   S    
C13   O36   S    
C1    H67   S    
C14   C57   S    
C16   H24   S    
C2    C14   A    
C58   H57   S    
C1    H5    S    
C62   O31   S    
Ba2   O41   S    
C42   H31   S    
C46   H39   S    
C36   H23   S    
C8    C17   A    
O14   P6    S    
C21   C32   S    
C45   O3    S    
C41   H30   S    
O12   P2    S    
Ba1   O16   S    
C10   C11   A    
C7    C9    A    
C37   C42   S    
C34   C49   S    
C43   O21   D    
C2    C15   A    
C51   H46   S    
C36   H34   S    
C38   C39   S    
O41   P8    S    
O34   P4    D    
C11   C13   A    
C48   H41   S    
O9    P8    S    
O7    P7    S    
Ba2   O5    S    
C2    P1    S    
C57   O35   D    
Ba2   O34   S    
C60   O38   S    
C4    O23   S    
C34   C48   S    
C60   H60   S    
C53   H51   S    
C64   P6    S    
C30   C31   S    
C27   P5    S    
C25   C30   A    
C54   H52   S    
C51   O29   S    
C6    H17   S    
C28   H25   S    
Ba1   O5    S    
C9    C10   A    
C4    H19   S    
C47   H40   S    
C55   O33   D    
C62   O9    S    
C1    C12   S    
C44   O22   S    
C35   H12   S    
C27   C33   A    
C33   O39   S    
C12   C40   S    
C8    C13   A    
C58   O36   S    
C62   C63   S    
Ba2   O6    S    
C27   C29   A    
Ba1   O10   S    
C41   O19   S    
C26   P7    S    
Ba2   O40   S    
C45   C56   S    
C60   H62   S    
C3    H16   S    
Ba1   P1    S    
O3    P5    S    
C60   H61   S    
C53   H49   S    
C50   H43   S    
C52   H48   S    
O2    P5    D    
C12   H3    S    
C31   C32   T    
C49   O27   D    
O17   P3    D    
C61   H63   S    
C58   H55   S    
C22   O38   S    
C23   C47   S    
C36   O13   S    
C9    C14   A    
C23   C34   S    
O1    P1    D    
C24   P3    S    
O13   P1    S    
C18   C19   A    
C52   C62   S    
C54   O32   D    
C23   O24   S    
C53   O31   S    
C20   C21   A    
C47   O25   D    
C59   H59   S    
Ba2   O44   S    
C52   O30   D    
Ba1   O1    S    
Ba1   O4    S    
C50   O28   D    
C42   O20   D    
C25   C26   A    
