data_mof_unit_50131.cif
_audit_creation_date              2012-12-11T16:47:53-0500
_audit_creation_method            fapswitch 2.2
_symmetry_space_group_name_H-M    P1
_symmetry_Int_Tables_number       1
_space_group_crystal_system       triclinic
_cell_length_a                    26.150552
_cell_length_b                    7.167615
_cell_length_c                    23.913559
_cell_angle_alpha                 89.956918
_cell_angle_beta                  101.600642
_cell_angle_gamma                 89.997673
_cell_volume                      4390.72684533

loop_
_atom_site_label
_atom_site_type_symbol
_atom_type_description
_atom_site_fract_x
_atom_site_fract_y
_atom_site_fract_z
_atom_type_partial_charge
O1    O     O_R   0.797620 0.601060 0.203310 -0.540800
O2    O     O_R   0.202380 0.398940 0.796690 -0.539397
O3    O     O_R   0.702380 0.101060 0.296690 -0.539842
O4    O     O_R   0.297620 0.898940 0.703310 -0.539979
O5    O     O_R   0.692070 0.267810 0.186600 -0.528466
O6    O     O_R   0.307930 0.732190 0.813400 -0.527342
O7    O     O_R   0.807930 0.767810 0.313400 -0.529200
O8    O     O_R   0.192070 0.232190 0.686600 -0.528358
C1    C     C_R   0.673812 0.439972 0.171392 0.699646
C2    C     C_R   0.326188 0.560028 0.828609 0.700862
C3    C     C_R   0.826193 0.939858 0.328616 0.704202
C4    C     C_R   0.173805 0.060142 0.671388 0.700076
O9    O     O_R   0.796590 0.271120 0.196480 -0.539125
O10   O     O_R   0.203410 0.728880 0.803520 -0.541821
O11   O     O_R   0.703410 0.771120 0.303520 -0.542424
O12   O     O_R   0.296590 0.228880 0.696480 -0.542072
O13   O     O_R   0.807640 0.104280 0.306650 -0.529655
O14   O     O_R   0.192360 0.895720 0.693350 -0.530459
O15   O     O_R   0.692360 0.604280 0.193350 -0.530307
O16   O     O_R   0.307640 0.395720 0.806650 -0.529456
C5    C     C_R   0.812606 0.440149 0.184597 0.702456
C6    C     C_R   0.187390 0.559856 0.815411 0.699152
C7    C     C_R   0.687402 0.940056 0.315377 0.697411
C8    C     C_R   0.312596 0.059944 0.684621 0.697845
O17   O     O_3   0.753500 0.435660 0.286130 -0.374326
O18   O     O_3   0.246500 0.564340 0.713870 -0.374552
O19   O     O_3   0.746500 0.935660 0.213870 -0.373335
O20   O     O_3   0.253500 0.064340 0.786130 -0.372823
V1    V     V_3+5 0.749350 0.159470 0.243300 1.466668
V2    V     V_3+5 0.250650 0.840530 0.756700 1.463220
V3    V     V_3+5 0.750650 0.659470 0.256700 1.461471
V4    V     V_3+5 0.249350 0.340530 0.743300 1.462118
C9    C     C_R   0.380957 0.884853 0.645731 -0.181407
C10   C     C_R   0.619034 0.115142 0.354254 -0.182083
C11   C     C_R   0.119903 0.382827 0.855458 -0.181674
C12   C     C_R   0.880937 0.615674 0.145643 -0.097181
H1    H     H_    0.376280 0.767905 0.673000 0.136076
H2    H     H_    0.623713 0.232089 0.326986 0.135339
H3    H     H_    0.125338 0.264431 0.829116 0.135744
H4    H     H_    0.876520 0.731781 0.173280 0.150552
C13   C     C_R   0.417946 0.870931 0.610658 0.214680
C14   C     C_R   0.582039 0.129063 0.389321 0.213761
C15   C     C_R   0.082907 0.368874 0.890558 0.218016
C16   C     C_R   0.917496 0.631182 0.110289 0.217449
C17   C     C_R   0.425123 0.021065 0.574763 0.099230
C18   C     C_R   0.574859 0.978931 0.425216 0.098358
C19   C     C_R   0.074693 0.520679 0.925156 0.094945
C20   C     C_R   0.924398 0.481490 0.073808 0.032087
C21   C     C_R   0.395605 0.184552 0.576053 -0.196060
C22   C     C_R   0.604379 0.815446 0.423930 -0.192999
C23   C     C_R   0.103336 0.685510 0.922995 -0.197840
C24   C     C_R   0.895250 0.317300 0.075458 -0.142206
H5    H     H_    0.400180 0.301223 0.548686 0.124316
H6    H     H_    0.599801 0.698776 0.451297 0.126551
H7    H     H_    0.097951 0.802888 0.949679 0.124197
H8    H     H_    0.900128 0.200329 0.048357 0.125774
C25   C     C_R   0.359391 0.198551 0.611815 -0.159098
C26   C     C_R   0.640598 0.801447 0.388175 -0.157910
C27   C     C_R   0.139658 0.699599 0.887317 -0.155155
C28   C     C_R   0.859252 0.302513 0.111471 -0.139637
H9    H     H_    0.337251 0.326377 0.611483 0.131278
H10   H     H_    0.662739 0.673623 0.388511 0.132772
H11   H     H_    0.161108 0.828662 0.886910 0.131419
H12   H     H_    0.837282 0.174367 0.111285 0.138007
C29   C     C_R   0.351284 0.048180 0.646762 -0.068413
C30   C     C_R   0.648709 0.951818 0.353230 -0.068435
C31   C     C_R   0.148681 0.547849 0.853339 -0.067893
C32   C     C_R   0.851224 0.452347 0.146591 -0.112966
C33   C     C_R   0.499465 0.155002 0.535348 -0.163038
C34   C     C_R   0.500513 0.844999 0.464627 -0.166241
C35   C     C_R   0.996212 0.643642 0.958877 -0.141302
C36   C     C_R   0.002233 0.356401 0.039177 -0.151498
H13   H     H_    0.499996 0.275281 0.562859 0.135779
H14   H     H_    0.499983 0.724720 0.437116 0.133310
H15   H     H_    0.993030 0.754677 0.927608 0.138109
H16   H     H_    0.005315 0.244982 0.070309 0.132503
C37   C     C_R   0.535767 0.144583 0.499646 -0.086705
C38   C     C_R   0.464211 0.855419 0.500328 -0.090161
C39   C     C_R   0.959466 0.632921 0.994069 -0.142247
C40   C     C_R   0.038588 0.365666 0.003456 -0.096199
H17   H     H_    0.563686 0.256718 0.500649 0.133911
H18   H     H_    0.436293 0.743283 0.499326 0.131363
H19   H     H_    0.928151 0.734182 0.988499 0.121127
H20   H     H_    0.069098 0.261348 0.007756 0.127592
C41   C     C_R   0.536525 0.989925 0.463626 0.107445
C42   C     C_R   0.463454 0.010076 0.536349 0.107239
C43   C     C_R   0.962637 0.491185 0.035317 0.074532
C44   C     C_R   0.036054 0.509855 0.963085 0.108237
C45   C     C_3   0.961080 0.922494 0.521725 -0.226093
C46   C     C_3   0.038869 0.077629 0.478345 -0.235010
C47   C     C_3   0.539599 0.429877 0.977932 -0.238343
C48   C     C_3   0.460385 0.570084 0.022087 -0.212665
C49   C     C_3   0.989431 0.107603 0.541062 0.477444
C50   C     C_3   0.010523 0.892548 0.459003 0.457954
C51   C     C_3   0.509845 0.613508 0.959966 0.483264
C52   C     C_3   0.490146 0.386476 0.040049 0.533598
H21   H     H_    0.929105 0.860563 0.539942 0.184586
H22   H     H_    0.070851 0.139464 0.460120 0.187688
H23   H     H_    0.572157 0.374121 0.959427 0.189344
H24   H     H_    0.427836 0.625884 0.040602 0.179892
H25   H     H_    0.972270 0.310314 0.461567 0.196038
H26   H     H_    0.027686 0.689681 0.538425 0.206358
H27   H     H_    0.525077 0.808905 0.041099 0.203247
H28   H     H_    0.474873 0.190963 0.959015 0.210787
C53   C     C_1   0.128142 0.049242 0.625347 -0.129902
C54   C     C_1   0.871844 0.950768 0.374671 -0.127798
C55   C     C_1   0.371839 0.548768 0.874649 -0.124600
C56   C     C_1   0.628158 0.451230 0.125356 -0.127613
C57   C     C_3   0.015005 0.830124 0.521606 -0.246514
C58   C     C_3   0.984953 0.169969 0.478449 -0.235776
C59   C     C_3   0.486397 0.330850 0.976996 -0.246197
C60   C     C_3   0.513588 0.669128 0.023024 -0.270195
C61   C     C_3   0.042577 0.016844 0.541078 -0.022904
C62   C     C_3   0.957377 0.983253 0.458979 -0.016251
C63   C     C_3   0.457401 0.516184 0.958921 -0.020892
C64   C     C_3   0.542588 0.483785 0.041096 -0.035191
C65   C     C_1   0.089732 0.035815 0.587230 0.098345
C66   C     C_1   0.910241 0.964223 0.412805 0.099222
C67   C     C_1   0.410243 0.535065 0.912764 0.114488
C68   C     C_1   0.589750 0.464926 0.087246 0.107369
N1    N     N_3   0.449359 0.706276 0.613112 -0.675300
H29   H     H_    0.469735 0.689495 0.655145 0.265015
H30   H     H_    0.424345 0.592134 0.603155 0.216796
N2    N     N_3   0.550624 0.293714 0.386861 -0.679372
H31   H     H_    0.575636 0.407861 0.396821 0.217975
H32   H     H_    0.530251 0.310490 0.344826 0.260069
N3    N     N_3   0.052632 0.202077 0.889659 -0.672521
H33   H     H_    0.032307 0.180755 0.847823 0.263314
H34   H     H_    0.078496 0.090759 0.900442 0.215987
N4    N     N_3   0.948731 0.796876 0.114589 -0.655549
H35   H     H_    0.939361 0.870888 0.076321 0.213744
H36   H     H_    0.988091 0.758634 0.121659 0.254322
S1    S     S_3+6 0.974971 0.253551 0.596117 0.047666
O21   O     O_2   0.974250 0.137711 0.648331 -0.277552
O22   O     O_2   0.015981 0.402307 0.610542 -0.338605
O23   O     O_3   0.916181 0.353375 0.574200 -0.468675
H37   H     H_    0.920534 0.437311 0.542553 0.326387
S2    S     S_3+6 0.025204 0.747037 0.403965 0.044058
O24   O     O_2   0.984657 0.596439 0.390567 -0.316196
O25   O     O_2   0.025087 0.861264 0.351228 -0.294922
O26   O     O_3   0.084197 0.648709 0.425836 -0.475611
H38   H     H_    0.108207 0.754651 0.437853 0.327697
S3    S     S_3+6 0.523400 0.766942 0.906119 0.046509
O27   O     O_2   0.529812 0.654788 0.854932 -0.277404
O28   O     O_2   0.479025 0.901809 0.888897 -0.341187
O29   O     O_3   0.578789 0.885201 0.931078 -0.469420
H39   H     H_    0.570407 0.967504 0.961270 0.327263
S4    S     S_3+6 0.476573 0.232464 0.093693 0.003187
O30   O     O_2   0.521263 0.098680 0.110568 -0.353392
O31   O     O_2   0.469680 0.343675 0.144900 -0.310249
O32   O     O_3   0.421551 0.113399 0.067712 -0.504172
H40   H     H_    0.419570 0.016448 0.096741 0.371719

loop_
_geom_bond_atom_site_label_1
_geom_bond_atom_site_label_2
_ccdc_geom_bond_type
C26   H10   S    
S3    O29   S    
C39   H19   S    
O1    C5    A    
C34   C38   A    
O13   V1    S    
C56   C68   T    
O3    C7    A    
C10   C14   A    
S4    O32   S    
C48   C52   S    
C36   H16   S    
O15   V3    S    
C10   C30   A    
C35   C39   A    
C50   C62   S    
C9    C29   A    
C1    C56   S    
O7    C3    A    
C22   H6    S    
C7    C30   S    
O9    V1    S    
S4    O31   D    
O29   H39   S    
C49   S1    S    
C51   C60   S    
C4    C53   S    
O4    C8    A    
O19   V1    S    
C47   C59   S    
S3    O27   D    
C45   C57   S    
O1    V3    S    
C21   C25   A    
C47   C64   S    
O2    V4    S    
C14   C18   A    
C46   C61   S    
C55   C67   T    
O3    V1    S    
C34   H14   S    
C24   C28   A    
C27   C31   A    
C33   C37   A    
C1    O15   A    
C2    O16   A    
O2    C6    A    
S1    O23   S    
O32   H40   S    
C33   H13   S    
O14   V2    S    
C11   C31   A    
C11   C15   A    
C58   C62   S    
C57   C61   S    
C49   C58   S    
C18   C41   S    
C38   C42   A    
O11   C7    A    
C37   C41   A    
O12   C8    A    
C54   C66   T    
C53   C65   T    
C2    C55   S    
O10   V2    S    
C39   C43   A    
C26   C30   A    
C46   C50   S    
O5    V1    S    
C52   S4    S    
C52   C59   S    
O7    V3    S    
C14   N2    S    
C40   H20   S    
O8    V4    S    
C12   H4    S    
S4    O30   D    
C15   N3    S    
O18   V4    S    
C48   C60   S    
C19   C23   A    
H25   C58   S    
C9    H1    S    
C64   C68   S    
C45   H21   S    
H27   C60   S    
C22   C26   A    
N4    H36   S    
N3    H34   S    
O5    C1    A    
C38   H18   S    
C37   H17   S    
O8    C4    A    
C3    C54   S    
C17   C21   A    
C20   C43   S    
O9    C5    A    
C49   C61   S    
O11   V3    S    
N1    H29   S    
C62   C66   S    
S2    O25   D    
C8    C29   S    
C61   C65   S    
O6    V2    S    
C63   C67   S    
C5    C32   S    
S1    O21   D    
C50   S2    S    
C12   C16   A    
C23   C27   A    
C46   C58   S    
N3    H33   S    
C60   C64   S    
C36   C43   A    
C48   H24   S    
N2    H32   S    
C13   N1    S    
O16   V4    S    
S3    O28   D    
C45   C62   S    
C3    O13   A    
C10   H2    S    
O17   V3    S    
C51   S3    S    
C25   C29   A    
O23   H37   S    
S2    O26   S    
O6    C2    A    
H28   C59   S    
C12   C32   A    
C25   H9    S    
O12   V4    S    
C18   C22   A    
C50   C57   S    
C27   H11   S    
C28   H12   S    
C9    C13   A    
C19   C44   S    
O10   C6    A    
O20   V2    S    
N4    H35   S    
C51   C63   S    
C36   C40   A    
O26   H38   S    
C35   H15   S    
C15   C19   A    
C21   H5    S    
C11   H3    S    
C17   C42   S    
C23   H7    S    
C45   C49   S    
C48   C63   S    
C6    C31   S    
N1    H30   S    
S2    O24   D    
C47   C51   S    
C35   C44   A    
C16   C20   A    
C20   C24   A    
C28   C32   A    
C40   C44   A    
C4    O14   A    
S1    O22   D    
C13   C17   A    
C52   C64   S    
H26   C57   S    
C59   C63   S    
C47   H23   S    
C34   C41   A    
C16   N4    S    
C46   H22   S    
O4    V2    S    
C33   C42   A    
C24   H8    S    
N2    H31   S    
