data_mof_unit_26842.cif
_audit_creation_date              2012-12-11T14:45:29-0500
_audit_creation_method            fapswitch 2.2
_symmetry_space_group_name_H-M    P1
_symmetry_Int_Tables_number       1
_space_group_crystal_system       monoclinic
_cell_length_a                    24.834243
_cell_length_b                    7.167855
_cell_length_c                    14.322874
_cell_angle_alpha                 90.0
_cell_angle_beta                  102.628303
_cell_angle_gamma                 90.0
_cell_volume                      2487.91235553

loop_
_atom_site_label
_atom_site_type_symbol
_atom_type_description
_atom_site_fract_x
_atom_site_fract_y
_atom_site_fract_z
_atom_type_partial_charge
O1    O     O_R   0.319150 0.364170 0.330530 -0.536737
O2    O     O_R   0.680850 0.635830 0.669470 -0.536737
O3    O     O_R   0.180850 0.864170 0.169470 -0.536737
O4    O     O_R   0.819150 0.135830 0.830530 -0.536737
O5    O     O_R   0.210330 0.696850 0.354180 -0.534467
O6    O     O_R   0.789670 0.303150 0.645820 -0.534467
O7    O     O_R   0.289670 0.196850 0.145820 -0.534467
O8    O     O_R   0.710330 0.803150 0.854180 -0.534467
C1    C     C_R   0.197094 0.526046 0.378546 0.679839
C2    C     C_R   0.802906 0.473954 0.621453 0.679840
C3    C     C_R   0.302906 0.026046 0.121454 0.679839
C4    C     C_R   0.697094 0.973954 0.878546 0.679839
O9    O     O_R   0.320550 0.694110 0.341970 -0.540939
O10   O     O_R   0.679450 0.305890 0.658030 -0.540939
O11   O     O_R   0.179450 0.194110 0.158030 -0.540939
O12   O     O_R   0.820550 0.805890 0.841970 -0.540939
O13   O     O_R   0.291860 0.861000 0.157170 -0.531158
O14   O     O_R   0.708140 0.139000 0.842830 -0.531158
O15   O     O_R   0.208140 0.361000 0.342830 -0.531157
O16   O     O_R   0.791860 0.639000 0.657170 -0.531157
C5    C     C_R   0.341763 0.526466 0.362884 0.709998
C6    C     C_R   0.658237 0.473534 0.637116 0.709998
C7    C     C_R   0.158237 0.026466 0.137116 0.709998
C8    C     C_R   0.841763 0.973534 0.862884 0.709998
O17   O     O_3   0.240460 0.529330 0.189380 -0.374092
O18   O     O_3   0.759540 0.470670 0.810620 -0.374092
O19   O     O_3   0.259540 0.029330 0.310620 -0.374092
O20   O     O_3   0.740460 0.970670 0.689380 -0.374092
V1    V     V_3+5 0.251770 0.805510 0.261240 1.483188
V2    V     V_3+5 0.748230 0.194490 0.738760 1.483188
V3    V     V_3+5 0.248230 0.305510 0.238760 1.483187
V4    V     V_3+5 0.751770 0.694490 0.761240 1.483188
C9    C     C_R   0.102897 0.026717 0.072363 -0.098240
C10   C     C_R   0.897103 0.973283 0.927637 -0.098240
C11   C     C_R   0.397103 0.526717 0.427637 -0.098241
C12   C     C_R   0.602897 0.473283 0.572363 -0.098240
C13   C     C_R   0.962975 0.819494 0.056024 0.207476
C14   C     C_R   0.037025 0.180506 0.943976 0.207476
C15   C     C_R   0.537025 0.319494 0.443976 0.207475
C16   C     C_R   0.462975 0.680506 0.556024 0.207477
C17   C     C_R   0.909420 0.840358 0.001140 -0.159506
C18   C     C_R   0.090580 0.159642 0.998860 -0.159506
C19   C     C_R   0.590580 0.340358 0.498860 -0.159504
C20   C     C_R   0.409420 0.659643 0.501140 -0.159508
C21   C     C_R   0.939240 0.088684 0.909959 -0.144776
C22   C     C_R   0.060760 0.911316 0.090041 -0.144776
C23   C     C_R   0.560760 0.588684 0.590041 -0.144775
C24   C     C_R   0.439240 0.411316 0.409959 -0.144777
C25   C     C_R   0.993934 0.068462 0.963120 0.098591
C26   C     C_R   0.006066 0.931538 0.036880 0.098591
C27   C     C_R   0.506066 0.568463 0.536880 0.098593
C28   C     C_R   0.493934 0.431538 0.463120 0.098590
H1    H     H_    0.070801 0.811681 0.147896 0.160621
H2    H     H_    0.929199 0.188318 0.852104 0.160621
H3    H     H_    0.429199 0.311681 0.352104 0.160621
H4    H     H_    0.570801 0.688319 0.647896 0.160620
H5    H     H_    0.122870 0.249840 0.984647 0.140038
H6    H     H_    0.877130 0.750161 0.015353 0.140038
H7    H     H_    0.377130 0.749840 0.515353 0.140038
H8    H     H_    0.622870 0.250160 0.484647 0.140038
C29   C     C_R   0.665087 0.973950 0.953244 -0.044721
C30   C     C_R   0.334913 0.026049 0.046756 -0.044720
C31   C     C_R   0.834913 0.473950 0.546756 -0.044720
C32   C     C_R   0.165087 0.526050 0.453244 -0.044721
C33   C     C_R   0.652850 0.837875 0.101534 -0.093999
C34   C     C_R   0.347151 0.162121 0.898466 -0.093997
C35   C     C_R   0.847151 0.337877 0.398466 -0.093998
C36   C     C_R   0.152849 0.662123 0.601534 -0.093999
C37   C     C_R   0.687177 0.888981 0.040957 -0.144664
C38   C     C_R   0.312824 0.111015 0.959043 -0.144665
C39   C     C_R   0.812823 0.388983 0.459043 -0.144664
C40   C     C_R   0.187176 0.611017 0.540957 -0.144663
C41   C     C_R   0.609349 0.023885 0.930918 -0.120498
C42   C     C_R   0.390651 0.976117 0.069084 -0.120498
C43   C     C_R   0.890651 0.523883 0.569083 -0.120499
C44   C     C_R   0.109349 0.476116 0.430917 -0.120498
C45   C     C_R   0.574710 0.987168 0.995055 0.114910
C46   C     C_R   0.425291 0.012833 0.004947 0.114909
C47   C     C_R   0.925291 0.487167 0.504946 0.114909
C48   C     C_R   0.074709 0.512832 0.495054 0.114909
C49   C     C_R   0.595524 0.871196 0.075139 0.032252
C50   C     C_R   0.404477 0.128804 0.924862 0.032251
C51   C     C_R   0.904476 0.371196 0.424861 0.032252
C52   C     C_R   0.095524 0.628804 0.575138 0.032251
C53   C     C_R   0.518648 0.046024 0.976174 -0.006935
C54   C     C_R   0.481353 0.953978 0.023829 -0.006934
C55   C     C_R   0.981353 0.546022 0.523827 -0.006935
C56   C     C_R   0.018647 0.453977 0.476173 -0.006934
C57   C     C_R   0.501208 0.804311 0.087449 0.133328
C58   C     C_R   0.498794 0.195691 0.912555 0.133332
C59   C     C_R   0.998793 0.304310 0.412553 0.133330
C60   C     C_R   0.001207 0.695690 0.587447 0.133330
C61   C     C_R   0.558359 0.778732 0.121324 -0.047650
C62   C     C_R   0.441642 0.221270 0.878679 -0.047657
C63   C     C_R   0.941642 0.278731 0.378677 -0.047654
C64   C     C_R   0.058358 0.721269 0.621322 -0.047653
H9    H     H_    0.407817 0.924516 0.140331 0.147791
H10   H     H_    0.592183 0.075489 0.859672 0.147791
H11   H     H_    0.092183 0.424513 0.359671 0.147791
H12   H     H_    0.907817 0.575486 0.640330 0.147791
H13   H     H_    0.269664 0.150423 0.940713 0.109933
H14   H     H_    0.730336 0.849571 0.059285 0.109933
H15   H     H_    0.230336 0.650427 0.559286 0.109933
H16   H     H_    0.769664 0.349575 0.440714 0.109933
H17   H     H_    0.671217 0.763209 0.166275 0.136357
H18   H     H_    0.328784 0.236783 0.833723 0.136360
H19   H     H_    0.828783 0.263214 0.333724 0.136359
H20   H     H_    0.171217 0.736788 0.666276 0.136357
I1    I     I_    0.974636 0.612305 0.165081 -0.384510
I2    I     I_    0.025363 0.387696 0.834919 -0.384512
I3    I     I_    0.525363 0.112305 0.334919 -0.384509
I4    I     I_    0.474636 0.887696 0.665081 -0.384512
C65   C     C_2   0.577924 0.636340 0.196426 0.828601
O21   O     O_2   0.563904 0.646334 0.272975 -0.527450
O22   O     O_R   0.610809 0.487981 0.178459 -0.653190
H21   H     H_    0.620714 0.398939 0.234601 0.306004
C66   C     C_2   0.422078 0.363662 0.803576 0.828605
O23   O     O_2   0.436102 0.353680 0.727031 -0.527449
O24   O     O_R   0.389189 0.512012 0.821540 -0.653193
H22   H     H_    0.379285 0.601058 0.765399 0.306004
C67   C     C_2   0.922077 0.136339 0.303574 0.828604
O25   O     O_2   0.936099 0.146328 0.227028 -0.527450
O26   O     O_R   0.889190 0.987985 0.321540 -0.653192
H23   H     H_    0.879285 0.898942 0.265398 0.306004
C68   C     C_2   0.077923 0.863662 0.696425 0.828601
O27   O     O_2   0.063901 0.853674 0.772972 -0.527449
O28   O     O_R   0.110809 0.012018 0.678458 -0.653191
H24   H     H_    0.120712 0.101064 0.734599 0.306005
I5    I     I_    0.448740 0.573436 0.107215 -0.345396
I6    I     I_    0.551261 0.426568 0.892792 -0.345391
I7    I     I_    0.051261 0.073433 0.392789 -0.345393
I8    I     I_    0.948739 0.926566 0.607211 -0.345393

loop_
_geom_bond_atom_site_label_1
_geom_bond_atom_site_label_2
_ccdc_geom_bond_type
O17   V3    S    
C24   H3    S    
C55   C56   A    
O1    C5    A    
C50   C62   A    
O19   V1    S    
C1    C32   S    
O13   V1    S    
O3    C7    A    
C2    C31   S    
C60   C64   A    
C48   C52   A    
C3    C30   S    
O15   V3    S    
C47   C55   A    
C38   H13   S    
O26   H23   S    
C16   I4    S    
C14   C25   A    
C53   C54   A    
C44   H11   S    
O7    C3    A    
C9    C18   A    
O9    V1    S    
C60   I8    S    
O10   V2    S    
C17   H6    S    
C14   C18   A    
C66   O24   S    
O4    C8    A    
C62   C66   S    
C59   I7    S    
C20   H7    S    
O22   H21   S    
O1    V3    S    
C57   I5    S    
C30   C38   A    
C12   C23   A    
O2    V4    S    
C52   C64   A    
O3    V1    S    
C1    O15   A    
C2    O16   A    
C7    C9    S    
C39   H16   S    
O2    C6    A    
O14   V2    S    
C45   C49   A    
C14   I2    S    
C16   C20   A    
C13   I1    S    
C36   C40   A    
C46   C54   A    
O11   C7    A    
C15   C28   A    
C45   C53   A    
O12   C8    A    
C55   C60   A    
C57   C61   A    
C9    C22   A    
C10   C17   A    
C34   H18   S    
C11   C24   A    
C18   H5    S    
C33   H17   S    
C58   C62   A    
C42   H9    S    
O5    V1    S    
C35   H19   S    
C41   H10   S    
O7    V3    S    
C27   C28   A    
O8    V4    S    
O18   V4    S    
C15   C19   A    
C29   C41   A    
C37   H14   S    
C8    C10   S    
C36   C52   A    
O5    C1    A    
C34   C50   A    
C49   C61   A    
C46   C50   A    
C33   C49   A    
C56   C59   A    
C21   C25   A    
O8    C4    A    
C51   C63   A    
C32   C44   A    
O9    C5    A    
C15   I3    S    
C10   C21   A    
C61   C65   S    
C35   C51   A    
O24   H22   S    
C11   C20   A    
C67   O25   D    
C19   H8    S    
O6    V2    S    
C31   C39   A    
C21   H2    S    
C68   O27   D    
O28   H24   S    
C65   O21   D    
O16   V4    S    
C29   C37   A    
C3    O13   A    
C44   C48   A    
C54   C57   A    
O6    C2    A    
C23   C27   A    
C53   C58   A    
O11   V3    S    
C5    C11   S    
C40   H15   S    
O12   V4    S    
C16   C27   A    
C6    C12   S    
C22   C26   A    
O10   C6    A    
O20   V2    S    
C48   C56   A    
C66   O23   D    
C47   C51   A    
C4    C29   S    
C63   C67   S    
C34   C38   A    
C31   C43   A    
C33   C37   A    
C22   H1    S    
C13   C26   A    
C43   H12   S    
C64   C68   S    
C35   C39   A    
C32   C40   A    
C13   C17   A    
C67   O26   S    
C59   C63   A    
C58   I6    S    
C24   C28   A    
C25   C26   A    
C42   C46   A    
C4    O14   A    
C68   O28   S    
C41   C45   A    
C30   C42   A    
C12   C19   A    
C36   H20   S    
C43   C47   A    
O4    V2    S    
C23   H4    S    
C65   O22   S    
