data_mof_unit_35348.cif
_audit_creation_date              2012-12-10T20:35:52-0500
_audit_creation_method            fapswitch 2.2
_symmetry_space_group_name_H-M    P1
_symmetry_Int_Tables_number       1
_space_group_crystal_system       triclinic
_cell_length_a                    15.739565
_cell_length_b                    10.680683
_cell_length_c                    9.856325
_cell_angle_alpha                 89.833332
_cell_angle_beta                  89.792734
_cell_angle_gamma                 90.046649
_cell_volume                      1656.92152377

loop_
_atom_site_label
_atom_site_type_symbol
_atom_type_description
_atom_site_fract_x
_atom_site_fract_y
_atom_site_fract_z
_atom_type_partial_charge
C1    C     C_R   0.497387 0.259911 0.500266 0.871244
C2    C     C_R   0.483926 0.128523 0.501395 -0.175252
C3    C     C_R   0.465867 0.065173 0.380301 -0.213867
C4    C     C_R   0.338292 0.499829 0.500282 0.907101
C5    C     C_R   0.466087 0.935665 0.379868 -0.222463
C6    C     C_R   0.484218 0.871420 0.500570 -0.100533
C7    C     C_R   0.486220 0.935561 0.623162 0.071625
C8    C     C_3   0.548315 0.927301 0.737090 -0.569327
C9    C     C_3   0.548059 0.069721 0.738381 0.382360
C10   C     C_R   0.458376 0.408224 0.071737 0.198435
C11   C     C_R   0.547426 0.583707 0.071467 -0.134433
C12   C     C_3   0.950569 0.364030 0.485402 -0.404431
C13   C     C_R   0.547476 0.583663 0.927402 -0.148598
C14   C     C_R   0.458334 0.408317 0.929251 0.305664
C15   C     C_3   0.365751 0.379426 0.924035 -0.495422
C16   C     C_R   0.497498 0.740070 0.499850 0.885894
C17   C     C_3   0.365775 0.379274 0.078179 -0.525293
C18   C     C_R   0.661746 0.499967 0.499700 0.901589
C19   C     C_3   0.048478 0.363102 0.491009 -0.415395
C20   C     C_3   0.048562 0.585609 0.382170 0.442718
C21   C     C_3   0.950491 0.576818 0.374482 -0.472194
C22   C     C_1   0.750638 0.499804 0.498963 -0.199431
C23   C     C_3   0.917354 0.499890 0.497387 0.299157
C24   C     C_3   0.082907 0.499411 0.499186 0.242786
C25   C     C_3   0.570881 0.133517 0.957810 -0.330917
C26   C     C_3   0.091542 0.459635 0.194459 -0.295742
C27   C     C_3   0.950679 0.558143 0.631360 -0.408057
C28   C     C_3   0.048938 0.554187 0.634668 -0.495838
C29   C     C_1   0.825951 0.499737 0.498110 -0.095812
C30   C     C_1   0.174227 0.499352 0.500504 -0.069995
C31   C     C_1   0.249486 0.499514 0.500745 -0.181438
C32   C     C_R   0.485877 0.063283 0.623930 0.119917
H1    H     H_    0.928976 0.321580 0.388422 0.162614
H2    H     H_    0.584335 0.652871 0.125446 0.147512
H3    H     H_    0.074865 0.310065 0.404297 0.160102
H4    H     H_    0.584509 0.652677 0.872568 0.148622
H5    H     H_    0.327800 0.457051 0.879643 0.212270
H6    H     H_    0.353256 0.285593 0.879847 0.228068
H7    H     H_    0.327756 0.456750 0.122701 0.231117
H8    H     H_    0.353320 0.285335 0.122878 0.203250
H9    H     H_    0.061651 0.683160 0.416126 0.092278
H10   H     H_    0.929115 0.533791 0.277986 0.182026
H11   H     H_    0.922896 0.672831 0.376617 0.142102
H12   H     H_    0.068777 0.309920 0.582693 0.176562
H13   H     H_    0.070271 0.495986 0.722078 0.194657
H14   H     H_    0.074260 0.650284 0.651345 0.171639
H15   H     H_    0.924849 0.505863 0.720308 0.182454
H16   H     H_    0.616446 0.209103 0.930026 0.159872
H17   H     H_    0.605328 0.044510 0.978406 0.158672
H18   H     H_    0.538628 0.161321 0.053272 0.184564
H19   H     H_    0.031255 0.407105 0.207175 0.145320
H20   H     H_    0.146482 0.405370 0.233171 0.171098
H21   H     H_    0.101655 0.471128 0.083676 0.183167
H22   H     H_    0.924629 0.305483 0.569584 0.172370
H23   H     H_    0.928798 0.656913 0.639956 0.169516
H24   H     H_    0.457426 0.114618 0.285176 0.169757
H25   H     H_    0.457883 0.887010 0.284504 0.175822
H26   H     H_    0.519650 0.883788 0.829138 0.228179
H27   H     H_    0.610376 0.886999 0.705314 0.155595
H28   H     H_    0.609168 0.115015 0.707782 0.057891
N1    N     N_R   0.499430 0.499140 0.142800 -0.108446
N2    N     N_R   0.499430 0.499180 0.857150 -0.116305
O1    O     O_R   0.500010 0.316790 0.614690 -0.600454
O2    O     O_3   0.090242 0.579652 0.253640 -0.602832
O3    O     O_R   0.500000 0.316760 0.385350 -0.624462
O4    O     O_R   0.377150 0.500020 0.614720 -0.620089
O5    O     O_R   0.377140 0.499990 0.385380 -0.610761
O6    O     O_R   0.500000 0.683240 0.614650 -0.614047
O7    O     O_R   0.499990 0.683210 0.385310 -0.628566
O8    O     O_R   0.622860 0.500010 0.614620 -0.618803
O9    O     O_R   0.622850 0.499980 0.385280 -0.614268
O10   O     O_3   0.509035 0.118723 0.855995 -0.579167
Zn1   Zn    Zn3+2 0.500010 0.500020 0.653130 0.955132
Zn2   Zn    Zn3+2 0.499990 0.499980 0.346870 0.941919

loop_
_geom_bond_atom_site_label_1
_geom_bond_atom_site_label_2
_ccdc_geom_bond_type
C20   O2    S    
O9    Zn2   S    
C1    O3    A    
N2    Zn1   S    
C18   O8    A    
C6    C7    A    
C16   O6    A    
C22   C29   T    
C23   C27   S    
N1    Zn2   S    
C4    O5    A    
C24   C28   S    
C3    H24   S    
C12   C23   S    
C9    O10   S    
C5    H25   S    
C9    H28   S    
O8    Zn1   S    
C14   C15   S    
C2    C3    A    
C18   O9    A    
C7    C8    S    
C15   H6    S    
O5    Zn2   S    
C19   H3    S    
C26   H19   S    
C20   C21   S    
C4    O4    A    
C11   C13   A    
C25   H16   S    
C28   H14   S    
C5    C6    A    
C25   O10   S    
C11   N1    A    
C12   H1    S    
C20   H9    S    
C23   C29   S    
C12   C19   S    
C17   H8    S    
C19   C24   S    
C13   N2    A    
C26   H20   S    
C21   C23   S    
C8    H27   S    
C10   C14   A    
C30   C31   T    
C27   H23   S    
C28   H13   S    
C10   N1    A    
C21   H11   S    
O3    Zn2   S    
C10   C17   S    
C6    C16   S    
C21   H10   S    
C4    C31   S    
C26   H21   S    
C1    O1    A    
O7    Zn2   S    
C19   H12   S    
C13   H4    S    
C2    C32   A    
C1    C2    S    
C17   H7    S    
C27   H15   S    
C27   C28   S    
C15   C17   S    
C26   O2    S    
C25   H18   S    
C15   H5    S    
C7    C32   A    
O1    Zn1   S    
C9    C32   S    
C8    H26   S    
O6    Zn1   S    
C18   C22   S    
O4    Zn1   S    
C24   C30   S    
C11   H2    S    
C12   H22   S    
C16   O7    A    
C20   C24   S    
C8    C9    S    
C3    C5    A    
C25   H17   S    
C14   N2    A    
