data_mof_unit_48989.cif
_audit_creation_date              2012-12-11T15:23:38-0500
_audit_creation_method            fapswitch 2.2
_symmetry_space_group_name_H-M    P1
_symmetry_Int_Tables_number       1
_space_group_crystal_system       triclinic
_cell_length_a                    17.294383
_cell_length_b                    24.397637
_cell_length_c                    14.920839
_cell_angle_alpha                 90.367772
_cell_angle_beta                  125.14288
_cell_angle_gamma                 89.431247
_cell_volume                      5147.88332262

loop_
_atom_site_label
_atom_site_type_symbol
_atom_type_description
_atom_site_fract_x
_atom_site_fract_y
_atom_site_fract_z
_atom_type_partial_charge
C1    C     C_R   0.324064 0.362000 0.909171 -0.231698
C2    C     C_R   0.435213 0.501219 0.633309 0.022211
C3    C     C_3   0.610454 0.173628 0.711057 -0.272767
C4    C     C_3   0.563057 0.195670 0.764294 -0.965187
C5    C     C_3   0.332583 0.122664 0.319415 0.147986
C6    C     C_3   0.436708 0.108199 0.403970 -0.357756
C7    C     C_3   0.501636 0.144680 0.392366 -0.938428
C8    C     C_R   0.951994 0.001513 0.278446 0.038711
C9    C     C_R   0.935207 0.001220 0.633307 0.022179
C10   C     C_R   0.173458 0.498271 0.697596 -0.022086
C11   C     C_R   0.798561 0.497566 0.367379 0.002112
C12   C     C_R   0.673462 0.998268 0.697519 -0.022142
C13   C     C_R   0.298566 0.997566 0.367373 0.002117
C14   C     C_2   0.921426 0.451279 0.533912 -0.132101
C15   C     C_2   0.021773 0.455298 0.622557 -0.131392
C16   C     C_2   0.421436 0.951279 0.533896 -0.132111
C17   C     C_R   0.689314 0.375625 0.091305 -0.227696
C18   C     C_2   0.521789 0.955299 0.622509 -0.131380
C19   C     C_2   0.870926 0.496857 0.484727 -0.146812
C20   C     C_2   0.072289 0.496455 0.622123 -0.189471
C21   C     C_2   0.370946 0.996861 0.484714 -0.146803
C22   C     C_2   0.572303 0.996434 0.622003 -0.189591
C23   C     C_R   0.308759 0.772494 0.909888 -0.202783
C24   C     C_R   0.708451 0.764257 0.096820 -0.199246
C25   C     C_R   0.808793 0.272506 0.909914 -0.203029
C26   C     C_R   0.208459 0.264251 0.096817 -0.199253
C27   C     C_R   0.756706 0.316479 0.909003 -0.108018
C28   C     C_R   0.824041 0.862018 0.909170 -0.231680
C29   C     C_R   0.269349 0.300686 0.097559 -0.130320
C30   C     C_R   0.256681 0.816470 0.908981 -0.108274
C31   C     C_R   0.769325 0.800704 0.097560 -0.130286
C32   C     C_R   0.764035 0.330185 0.005094 0.150791
C33   C     C_R   0.258448 0.312701 0.999171 0.154832
C34   C     C_R   0.264028 0.830186 0.005079 0.150766
C35   C     C_R   0.758419 0.812724 0.999172 0.154831
C36   C     C_R   0.838948 0.308300 0.105327 -0.175539
C37   C     C_R   0.174859 0.297999 0.899120 -0.178882
C38   C     C_R   0.338957 0.808309 0.105312 -0.175530
C39   C     C_R   0.189312 0.875622 0.091302 -0.227698
C40   C     C_R   0.674834 0.798017 0.899122 -0.178891
C41   C     C_R   0.390559 0.764599 0.106138 -0.170711
C42   C     C_R   0.613293 0.762317 0.898415 -0.168868
C43   C     C_R   0.890546 0.264589 0.106153 -0.170659
C44   C     C_R   0.113304 0.262311 0.898412 -0.168867
C45   C     C_R   0.445280 0.651550 0.091900 -0.141099
C46   C     C_R   0.555151 0.651013 0.908172 -0.118629
C47   C     C_R   0.945279 0.151549 0.091901 -0.141051
C48   C     C_R   0.055146 0.151013 0.908171 -0.118608
C49   C     C_R   0.367627 0.742586 0.006756 0.150996
C50   C     C_R   0.388992 0.684915 0.002723 0.018455
C51   C     C_R   0.637294 0.740046 0.997567 0.150162
C52   C     C_R   0.867630 0.242585 0.006772 0.151127
C53   C     C_R   0.137294 0.240045 0.997564 0.150164
C54   C     C_R   0.397134 0.552434 0.469735 -0.159638
C55   C     C_R   0.400372 0.552586 0.379322 -0.166798
C56   C     C_R   0.897132 0.052435 0.469735 -0.159633
C57   C     C_R   0.900376 0.052587 0.379327 -0.166795
C58   C     C_R   0.408299 0.502761 0.337909 0.140519
C59   C     C_R   0.401384 0.502459 0.518323 0.138760
C60   C     C_R   0.908304 0.002762 0.337915 0.140521
C61   C     C_R   0.610202 0.684116 0.998216 0.040635
C62   C     C_R   0.901379 0.002460 0.518321 0.138763
C63   C     C_R   0.390827 0.453560 0.371090 -0.166285
C64   C     C_R   0.388139 0.453336 0.461984 -0.160987
C65   C     C_R   0.890828 0.953562 0.371092 -0.166290
C66   C     C_R   0.888134 0.953338 0.461982 -0.160985
C67   C     C_R   0.483917 0.455078 0.254354 -0.171307
C68   C     C_R   0.448897 0.455154 0.694622 -0.073323
C69   C     C_R   0.983925 0.955079 0.254363 -0.171312
C70   C     C_R   0.948892 0.955155 0.694620 -0.073250
C71   C     C_R   0.229678 0.544735 0.736893 0.524397
C72   C     C_R   0.888980 0.184912 0.002725 0.018480
C73   C     C_R   0.756453 0.543647 0.302905 0.530782
C74   C     C_R   0.729679 0.044737 0.736847 0.524491
C75   C     C_R   0.256458 0.043646 0.302900 0.530764
C76   C     C_R   0.480683 0.546516 0.248983 -0.100034
C77   C     C_R   0.454135 0.546073 0.699332 -0.119315
C78   C     C_R   0.980687 0.046516 0.248986 -0.100038
C79   C     C_R   0.954133 0.046074 0.699332 -0.119313
C80   C     C_R   0.232052 0.453143 0.731669 -0.203399
C81   C     C_R   0.750956 0.452874 0.302791 -0.236119
C82   C     C_R   0.732059 0.953141 0.731623 -0.203385
C83   C     C_R   0.110191 0.184119 0.998213 0.040637
C84   C     C_R   0.250958 0.952874 0.302789 -0.236106
C85   C     C_R   0.358287 0.653363 0.910783 -0.105811
C86   C     C_R   0.640533 0.652922 0.089634 -0.149048
C87   C     C_R   0.858264 0.153359 0.910780 -0.105915
C88   C     C_R   0.140522 0.152925 0.089631 -0.149093
C89   C     C_R   0.417849 0.358988 0.091137 0.454179
C90   C     C_R   0.596963 0.371410 0.908997 0.497798
C91   C     C_R   0.917832 0.858999 0.091136 0.454195
C92   C     C_R   0.096960 0.871412 0.908994 0.497815
C93   C     C_R   0.331929 0.341562 0.000228 -0.001174
C94   C     C_R   0.451988 0.501512 0.278438 0.038704
C95   C     C_R   0.688187 0.360350 0.000682 -0.032981
C96   C     C_R   0.831900 0.841585 0.000228 -0.001201
C97   C     C_R   0.188183 0.860349 0.000676 -0.032954
C98   C     C_3   0.144160 0.614314 0.745219 0.148061
C99   C     C_3   0.110576 0.673639 0.711343 -0.272769
C100  C     C_3   0.064149 0.695866 0.765580 -0.965193
C101  C     C_3   0.832589 0.622668 0.319474 0.147907
C102  C     C_3   0.936707 0.608206 0.404079 -0.357714
C103  C     C_3   0.001671 0.644710 0.392579 -0.938273
C104  C     C_3   0.644019 0.114306 0.744958 0.147829
H1    H     H_    0.273389 0.350524 0.825254 0.116532
H2    H     H_    0.724440 0.750807 0.174722 0.107294
H3    H     H_    0.796617 0.259435 0.833484 0.106386
H4    H     H_    0.224442 0.250806 0.174718 0.107300
H5    H     H_    0.706348 0.336518 0.831884 0.175650
H6    H     H_    0.327576 0.316274 0.175618 0.163596
H7    H     H_    0.206311 0.836500 0.831857 0.175736
H8    H     H_    0.827548 0.816296 0.175618 0.163586
H9    H     H_    0.852152 0.320329 0.182709 0.113004
H10   H     H_    0.159276 0.310554 0.821016 0.108422
H11   H     H_    0.352175 0.820347 0.182698 0.113011
H12   H     H_    0.747184 0.372433 0.176548 0.131150
H13   H     H_    0.659245 0.810576 0.821016 0.108422
H14   H     H_    0.440192 0.744858 0.183858 0.108508
H15   H     H_    0.554227 0.747491 0.820067 0.106373
H16   H     H_    0.940159 0.244838 0.183868 0.108485
H17   H     H_    0.054233 0.247488 0.820064 0.106375
H18   H     H_    0.401239 0.591414 0.506933 0.108442
H19   H     H_    0.406909 0.591640 0.350622 0.108345
H20   H     H_    0.901236 0.091416 0.506933 0.108446
H21   H     H_    0.906916 0.091641 0.350629 0.108348
H22   H     H_    0.388844 0.414623 0.334857 0.114875
H23   H     H_    0.773350 0.850551 0.825253 0.116532
H24   H     H_    0.384968 0.414156 0.493002 0.114095
H25   H     H_    0.888845 0.914624 0.334859 0.114877
H26   H     H_    0.884961 0.914158 0.492998 0.114095
H27   H     H_    0.492989 0.664273 0.176262 0.096120
H28   H     H_    0.510470 0.663167 0.823141 0.084073
H29   H     H_    0.992995 0.164272 0.176262 0.096096
H30   H     H_    0.010467 0.163166 0.823138 0.084080
H31   H     H_    0.478818 0.413764 0.273911 0.143174
H32   H     H_    0.424657 0.414637 0.662100 0.100881
H33   H     H_    0.978834 0.913765 0.273931 0.143186
H34   H     H_    0.247183 0.872428 0.176544 0.131147
H35   H     H_    0.924645 0.914639 0.662094 0.100884
H36   H     H_    0.469747 0.589269 0.257363 0.090414
H37   H     H_    0.438979 0.588595 0.675106 0.091341
H38   H     H_    0.969750 0.089269 0.257366 0.090416
H39   H     H_    0.938977 0.088596 0.675106 0.091352
H40   H     H_    0.210563 0.411684 0.703862 0.124245
H41   H     H_    0.756288 0.411305 0.330580 0.126264
H42   H     H_    0.710581 0.911683 0.703798 0.124255
H43   H     H_    0.256293 0.911304 0.330577 0.126258
H44   H     H_    0.326986 0.668614 0.828951 0.131408
H45   H     H_    0.894805 0.536082 0.526445 0.149271
H46   H     H_    0.668427 0.668575 0.170359 0.114938
H47   H     H_    0.826953 0.168612 0.828947 0.131444
H48   H     H_    0.168410 0.168579 0.170354 0.114942
H49   H     H_    0.896549 0.411176 0.496874 0.127005
H50   H     H_    0.056219 0.421179 0.679109 0.133914
H51   H     H_    0.396542 0.911175 0.496877 0.127010
H52   H     H_    0.556232 0.921200 0.679119 0.133936
H53   H     H_    0.186249 0.610949 0.836156 0.117535
H54   H     H_    0.080219 0.588682 0.709699 0.099174
H55   H     H_    0.170909 0.700075 0.734172 0.202669
H56   H     H_    0.039834 0.529385 0.563469 0.145551
H57   H     H_    0.059210 0.676030 0.621063 0.204548
H58   H     H_    0.002891 0.670141 0.743531 0.259442
H59   H     H_    0.038711 0.738393 0.737057 0.292381
H60   H     H_    0.116040 0.696483 0.856113 0.273078
H61   H     H_    0.823946 0.667624 0.323277 0.139047
H62   H     H_    0.813394 0.613188 0.235754 0.097826
H63   H     H_    0.953763 0.613241 0.487561 0.207683
H64   H     H_    0.949187 0.564994 0.391614 0.192287
H65   H     H_    0.986054 0.640176 0.309537 0.268238
H66   H     H_    0.076442 0.632580 0.454440 0.281854
H67   H     H_    0.394853 0.036087 0.526419 0.149271
H68   H     H_    0.992316 0.688331 0.406465 0.261782
H69   H     H_    0.685972 0.110947 0.835886 0.117373
H70   H     H_    0.580063 0.088674 0.709280 0.099501
H71   H     H_    0.670940 0.200126 0.734739 0.202501
H72   H     H_    0.559709 0.176090 0.620695 0.204958
H73   H     H_    0.501587 0.169901 0.741319 0.259419
H74   H     H_    0.537738 0.238221 0.735844 0.292129
H75   H     H_    0.614302 0.196169 0.854930 0.273013
H76   H     H_    0.323952 0.167621 0.323224 0.139060
H77   H     H_    0.313349 0.113181 0.235679 0.097845
H78   H     H_    0.539850 0.029336 0.563283 0.145526
H79   H     H_    0.453822 0.113252 0.487477 0.207808
H80   H     H_    0.449161 0.064980 0.391509 0.192276
H81   H     H_    0.485943 0.140135 0.309290 0.268272
H82   H     H_    0.576412 0.132539 0.454168 0.281783
H83   H     H_    0.492324 0.188306 0.406265 0.261804
H84   H     H_    0.537474 0.344062 0.226548 0.310004
H85   H     H_    0.488752 0.345497 0.774019 0.300370
H86   H     H_    0.037453 0.844055 0.226539 0.310001
H87   H     H_    0.988750 0.845503 0.774014 0.300367
H88   H     H_    0.296550 0.759410 0.833449 0.106474
N1    N     N_R   0.395440 0.396300 0.944370 -0.056199
N2    N     N_R   0.474910 0.470990 0.794360 -0.051011
N3    N     N_R   0.025090 0.970990 0.205640 -0.044987
N4    N     N_R   0.974910 0.970990 0.794360 -0.051008
N5    N     N_R   0.320240 0.527820 0.794510 -0.090203
N6    N     N_R   0.679760 0.527820 0.205490 -0.094869
N7    N     N_R   0.820240 0.027820 0.794510 -0.090190
N8    N     N_R   0.179760 0.027820 0.205490 -0.094877
N9    N     N_R   0.524580 0.527810 0.205160 -0.038004
N10   N     N_R   0.475420 0.527810 0.794840 -0.045384
N11   N     N_R   0.024580 0.027810 0.205160 -0.038011
N12   N     N_R   0.604560 0.396300 0.055630 -0.059127
N13   N     N_R   0.975420 0.027810 0.794840 -0.045390
N14   N     N_R   0.320750 0.470990 0.794990 -0.067789
N15   N     N_R   0.679250 0.470990 0.205010 -0.065114
N16   N     N_R   0.820750 0.970990 0.794990 -0.067798
N17   N     N_R   0.179250 0.970990 0.205010 -0.065113
N18   N     N_R   0.393580 0.602500 0.942610 -0.047921
N19   N     N_R   0.606420 0.602500 0.057390 -0.043063
N20   N     N_R   0.893580 0.102500 0.942610 -0.047860
N21   N     N_R   0.106420 0.102500 0.057390 -0.043072
N22   N     N_R   0.451750 0.396300 0.057540 -0.093009
N23   N     N_R   0.895440 0.896300 0.944370 -0.056202
N24   N     N_R   0.548250 0.396300 0.942460 -0.098106
N25   N     N_R   0.951750 0.896300 0.057540 -0.093009
N26   N     N_R   0.048250 0.896300 0.942460 -0.098095
N27   N     N_R   0.104560 0.896300 0.055630 -0.059130
N28   N     N_R   0.449890 0.602500 0.055780 -0.043319
N29   N     N_R   0.550110 0.602500 0.944220 -0.040719
N30   N     N_R   0.949890 0.102500 0.055780 -0.043310
N31   N     N_R   0.050110 0.102500 0.944220 -0.040720
N32   N     N_R   0.525090 0.470990 0.205640 -0.044987
Ni1   Ni    Ni4+2 0.435420 0.434250 0.870220 0.188488
Ni2   Ni    Ni4+2 0.564580 0.434250 0.129780 0.194315
Ni3   Ni    Ni4+2 0.935420 0.934250 0.870220 0.188489
Ni4   Ni    Ni4+2 0.064580 0.934250 0.129780 0.194310
Ni5   Ni    Ni4+2 0.563400 0.564580 0.128670 0.231435
Ni6   Ni    Ni4+2 0.436600 0.564580 0.871330 0.217707
Ni7   Ni    Ni4+2 0.063400 0.064580 0.128670 0.231427
Ni8   Ni    Ni4+2 0.936600 0.064580 0.871330 0.217752
O1    O     O_3   0.199956 0.598571 0.707559 -0.682079
O2    O     O_3   0.772594 0.596664 0.342120 -0.677723
O3    O     O_3   0.699977 0.098577 0.707508 -0.682068
O4    O     O_3   0.272618 0.096665 0.342113 -0.677729
O5    O     O_3   0.471679 0.330683 0.188326 -0.795200
O6    O     O_3   0.557009 0.349546 0.806513 -0.802915
O7    O     O_3   0.971651 0.830689 0.188321 -0.795207
O8    O     O_3   0.057005 0.849559 0.806501 -0.803094

loop_
_geom_bond_atom_site_label_1
_geom_bond_atom_site_label_2
_ccdc_geom_bond_type
C3    C104  S    
C80   N14   A    
C102  H63   S    
C12   C74   A    
C87   N20   A    
C7    H82   S    
C67   H31   S    
C51   C61   S    
C85   H44   S    
C4    H73   S    
C85   N18   A    
C90   N24   A    
N6    Ni5   S    
C90   C95   A    
N20   N30   A    
C35   C96   S    
C11   C81   A    
N8    N17   A    
C13   C84   A    
C11   C19   S    
C8    C69   A    
C101  C102  S    
C46   N29   A    
N3    Ni4   S    
C56   H20   S    
N2    Ni1   S    
C39   N27   A    
C99   H55   S    
N23   N25   A    
N16   Ni3   S    
C46   H28   S    
C5    C6    S    
N20   Ni8   S    
C98   C99   S    
C43   C52   A    
C23   C49   A    
N3    N11   A    
C36   H9    S    
C30   H7    S    
N2    N10   A    
C12   C22   S    
C44   H17   S    
C69   N3    A    
C34   C97   S    
N18   N28   A    
C56   C57   A    
C9    C79   A    
C41   C49   A    
N4    N13   A    
C15   H50   S    
H84   O5    S    
C50   C85   A    
C76   C94   A    
C91   C96   A    
C99   H57   S    
C44   C53   A    
C104  O3    S    
C79   H39   S    
C13   C75   A    
C29   C33   A    
C10   C20   S    
C80   H40   S    
C5    O4    S    
N29   Ni6   S    
C67   C94   A    
C90   O6    S    
C31   H8    S    
C17   C95   A    
N8    Ni7   S    
C41   H14   S    
N21   Ni7   S    
C28   H23   S    
C43   H16   S    
C81   N15   A    
C10   C71   A    
C28   N23   A    
C40   C42   A    
C83   C88   A    
N6    N15   A    
N4    Ni3   S    
C70   H35   S    
C87   H47   S    
C47   H29   S    
C8    C78   A    
C88   H48   S    
N5    N14   A    
C102  C103  S    
N14   Ni1   S    
N22   Ni2   S    
H85   O6    S    
C5    H77   S    
C23   H88   S    
C82   H42   S    
C92   C97   A    
C71   N5    A    
C54   C59   A    
C76   H36   S    
C69   H33   S    
C15   C20   D    
C55   H19   S    
C25   C52   A    
C88   N21   A    
C30   C34   A    
C46   C61   A    
C13   C21   S    
C9    C62   S    
C23   C30   A    
C98   H54   S    
C29   H6    S    
C68   H32   S    
C79   N13   A    
C86   N19   A    
C38   C41   A    
C53   C83   S    
C11   C73   A    
C26   H4    S    
C62   C66   A    
C76   N9    A    
C57   C60   A    
C104  H70   S    
C37   H10   S    
C17   H12   S    
C64   H24   S    
C75   N8    A    
N32   Ni2   S    
C33   C37   A    
C6    H80   S    
C34   C38   A    
C91   N25   A    
C17   N12   A    
C1    N1    A    
N7    Ni8   S    
C5    H76   S    
C52   C72   S    
C89   O5    S    
C103  H66   S    
N15   Ni2   S    
C99   C100  S    
C98   H53   S    
C3    H71   S    
C73   N6    A    
C16   H51   S    
N18   Ni6   S    
C12   C82   A    
C75   O4    S    
C100  H60   S    
C16   C18   S    
C9    C70   A    
C92   N26   A    
C86   H46   S    
C73   O2    S    
C6    C7    S    
N28   Ni5   S    
C70   N4    A    
C2    C59   S    
C47   N30   A    
C60   C65   A    
C7    H83   S    
C81   H41   S    
C14   H49   S    
N17   Ni4   S    
C103  H68   S    
N27   Ni4   S    
C56   C62   A    
C77   N10   A    
C24   H2    S    
C4    H75   S    
N12   Ni2   S    
C3    C4    S    
C26   C53   A    
C32   C36   A    
N26   Ni3   S    
C72   C87   A    
C18   H52   S    
N31   Ni8   S    
C25   H3    S    
C84   H43   S    
C48   H30   S    
H87   O8    S    
N12   N24   A    
C54   C55   A    
C92   O8    S    
C102  H64   S    
N19   Ni5   S    
N1    N22   A    
C27   C32   A    
C18   C22   D    
C14   C19   D    
C7    H81   S    
H86   O7    S    
C58   C63   A    
C4    H74   S    
N13   Ni8   S    
C19   H45   S    
C33   C93   S    
N30   Ni7   S    
C65   H25   S    
C16   C21   D    
C45   H27   S    
C104  H69   S    
C78   N11   A    
C48   N31   A    
C25   C27   A    
C10   C80   A    
C42   C51   A    
C2    C68   A    
N24   Ni1   S    
N9    N32   A    
C48   C83   A    
N10   Ni6   S    
C6    H79   S    
C28   C96   A    
C37   C44   A    
C78   H38   S    
C35   C40   A    
C58   C94   S    
C24   C31   A    
N1    Ni1   S    
C22   H78   S    
C2    C77   A    
C21   H67   S    
C101  H61   S    
C57   H21   S    
N11   Ni7   S    
C38   H11   S    
N21   N31   A    
N26   N27   A    
C98   O1    S    
C45   C50   A    
C24   C51   A    
N5    Ni6   S    
C82   N16   A    
C31   C35   A    
N9    Ni5   S    
N7    N16   A    
C84   N17   A    
C40   H13   S    
C100  H59   S    
N23   Ni3   S    
C65   C66   A    
C89   C93   A    
C101  H62   S    
C42   H15   S    
C77   H37   S    
C47   C72   A    
C39   H34   S    
C63   H22   S    
C39   C97   A    
C61   C86   A    
N25   Ni4   S    
C63   C64   A    
C59   C64   A    
C3    H72   S    
C54   H18   S    
C32   C95   S    
C74   N7    A    
C27   H5    S    
C26   C29   A    
C1    C93   A    
C49   C50   S    
C20   H56   S    
C55   C58   A    
C91   O7    S    
C101  O2    S    
C103  H65   S    
C45   N28   A    
C14   C15   S    
C36   C43   A    
C68   N2    A    
C67   N32   A    
C100  H58   S    
C74   O3    S    
C8    C60   S    
C71   O1    S    
C1    H1    S    
C89   N22   A    
C66   H26   S    
N19   N29   A    
