data_mof_unit_46950.cif
_audit_creation_date              2012-12-11T16:24:07-0500
_audit_creation_method            fapswitch 2.2
_symmetry_space_group_name_H-M    P1
_symmetry_Int_Tables_number       1
_space_group_crystal_system       triclinic
_cell_length_a                    14.721625
_cell_length_b                    14.750133
_cell_length_c                    33.281827
_cell_angle_alpha                 95.957893
_cell_angle_beta                  96.198168
_cell_angle_gamma                 61.219484
_cell_volume                      6286.09184059

loop_
_atom_site_label
_atom_site_type_symbol
_atom_type_description
_atom_site_fract_x
_atom_site_fract_y
_atom_site_fract_z
_atom_type_partial_charge
C1    C     C_R   0.390688 0.701097 0.446407 0.554671
C2    C     C_R   0.321161 0.339734 0.310439 0.016826
C3    C     C_R   0.398530 0.254748 0.331083 0.251814
C4    C     C_R   0.416571 0.264943 0.373239 0.262197
C5    C     C_R   0.382126 0.232682 0.168196 -0.128988
C6    C     C_R   0.375623 0.218154 0.126253 -0.167609
C7    C     C_R   0.215953 0.382676 0.122125 0.275958
C8    C     C_R   0.225209 0.397498 0.164618 -0.087907
C9    C     C_R   0.305375 0.320588 0.187414 -0.008257
C10   C     C_1   0.307518 0.329262 0.230682 0.008652
C11   C     C_1   0.311668 0.334043 0.267010 0.077146
C12   C     C_R   0.405014 0.385855 0.434252 0.552005
C13   C     C_R   0.290877 0.290516 0.102810 0.036831
C14   C     C_R   0.753844 0.374905 0.409588 -0.023099
C15   C     C_R   0.793773 0.432919 0.394538 -0.110745
C16   C     C_R   0.818978 0.417519 0.354016 0.277447
C17   C     C_R   0.807843 0.339573 0.328894 0.051224
C18   C     C_R   0.777748 0.275091 0.345463 -0.170386
C19   C     C_R   0.750603 0.292812 0.385335 -0.152576
C20   C     C_R   0.823060 0.319549 0.203168 0.361816
C21   C     C_R   0.817517 0.330729 0.284828 0.361681
C22   C     C_R   0.813438 0.396524 0.137725 0.280657
C23   C     C_R   0.700556 0.410172 0.447472 0.546676
C24   C     C_R   0.847325 0.381251 0.098496 -0.125311
C25   C     C_R   0.922559 0.195491 0.101874 -0.154246
C26   C     C_R   0.888397 0.209578 0.140455 -0.174890
C27   C     C_R   0.837895 0.309282 0.159475 0.051734
C28   C     C_R   0.906628 0.280889 0.081465 -0.021261
C29   C     C_R   0.370545 0.759154 0.409853 -0.037420
C30   C     C_R   0.278509 0.783258 0.385921 -0.164438
C31   C     C_R   0.268837 0.807042 0.345609 0.238792
C32   C     C_R   0.350885 0.811518 0.329396 0.031068
C33   C     C_R   0.439427 0.799729 0.354585 0.094833
C34   C     C_R   0.393338 0.701496 0.561294 0.551535
C35   C     C_R   0.448276 0.775691 0.395261 0.155101
C36   C     C_R   0.341210 0.830533 0.204606 0.351548
C37   C     C_R   0.346015 0.820219 0.285523 0.367576
C38   C     C_R   0.249377 0.840276 0.136210 0.271230
C39   C     C_R   0.234251 0.867226 0.096093 -0.141822
C40   C     C_R   0.387334 0.891875 0.104429 0.119257
C41   C     C_R   0.402399 0.864475 0.144522 -0.150088
C42   C     C_R   0.332439 0.841907 0.160930 0.022004
C43   C     C_R   0.297999 0.900230 0.080708 -0.006297
C44   C     C_R   0.371197 0.370606 0.585731 0.019797
C45   C     C_R   0.407285 0.388879 0.549142 0.546458
C46   C     C_R   0.288249 0.454141 0.605100 -0.183420
C47   C     C_R   0.269481 0.448348 0.644614 -0.152340
C48   C     C_R   0.333650 0.359201 0.665595 -0.013671
C49   C     C_R   0.409787 0.272095 0.645104 -0.113028
C50   C     C_R   0.427663 0.276247 0.605107 0.259151
C51   C     C_R   0.318665 0.362322 0.790518 0.345898
C52   C     C_R   0.326838 0.359408 0.709374 0.345716
C53   C     C_R   0.212788 0.402473 0.849735 -0.140996
C54   C     C_R   0.202313 0.378004 0.887633 -0.165252
C55   C     C_R   0.388968 0.266167 0.895838 0.127518
C56   C     C_R   0.701575 0.413378 0.562643 0.544134
C57   C     C_R   0.398667 0.292275 0.857802 -0.111327
C58   C     C_R   0.310359 0.355561 0.833663 0.006197
C59   C     C_R   0.289066 0.305717 0.910211 0.048535
C60   C     C_R   0.755017 0.379338 0.602725 -0.034903
C61   C     C_R   0.788934 0.440992 0.627970 -0.133016
C62   C     C_R   0.819993 0.420352 0.668831 0.117854
C63   C     C_R   0.813925 0.338663 0.684805 0.090035
C64   C     C_R   0.785192 0.273263 0.659226 0.113764
C65   C     C_R   0.758006 0.292847 0.618241 -0.132872
C66   C     C_R   0.886790 0.213711 0.822731 -0.109963
C67   C     C_R   0.365430 0.363691 0.393723 -0.070499
C68   C     C_R   0.913758 0.202071 0.864131 -0.128003
C69   C     C_R   0.872250 0.382940 0.873549 -0.129751
C70   C     C_R   0.845268 0.394334 0.832209 -0.115423
C71   C     C_R   0.855497 0.309046 0.806640 0.032527
C72   C     C_1   0.840899 0.317965 0.763701 -0.017458
C73   C     C_1   0.829693 0.326531 0.727745 0.039306
C74   C     C_R   0.910272 0.285749 0.889712 0.018028
C75   C     C_R   0.376986 0.753072 0.602485 -0.026666
C76   C     C_R   0.280257 0.792439 0.619727 0.273227
C77   C     C_R   0.274776 0.811473 0.661938 0.300499
C78   C     C_R   0.283672 0.445717 0.373059 -0.184664
C79   C     C_R   0.362739 0.801846 0.686280 0.002722
C80   C     C_R   0.455636 0.772623 0.668743 -0.185174
C81   C     C_R   0.463049 0.747668 0.627234 -0.198786
C82   C     C_R   0.402627 0.871461 0.834238 -0.142951
C83   C     C_R   0.381700 0.901608 0.874788 -0.143688
C84   C     C_R   0.228948 0.877856 0.863910 -0.089006
C85   C     C_R   0.249433 0.847180 0.823222 0.155108
C86   C     C_R   0.335121 0.847598 0.808054 0.042092
C87   C     C_1   0.350837 0.829579 0.765489 -0.018050
C88   C     C_1   0.358643 0.816912 0.729497 0.010793
C89   C     C_R   0.258932 0.433092 0.331765 0.219829
C90   C     C_R   0.292213 0.909424 0.889562 -0.012796
C91   C     C_R   0.963267 0.264146 0.045409 0.542809
C92   C     C_R   0.272729 0.259118 0.060241 0.566302
C93   C     C_R   0.259827 0.958783 0.043666 0.552574
C94   C     C_R   0.962512 0.267744 0.930738 0.539730
C95   C     C_R   0.271010 0.264427 0.945405 0.565232
C96   C     C_R   0.256620 0.964047 0.929172 0.538621
Cr1   Cr    Cr6+3 0.576280 0.580550 0.506370 1.008201
Cr2   Cr    Cr6+3 0.346780 0.572400 0.496520 1.020412
Cr3   Cr    Cr6+3 0.576960 0.347070 0.497150 1.044723
Cr4   Cr    Cr6+3 0.087320 0.083240 0.984860 1.010050
Cr5   Cr    Cr6+3 0.087720 0.316210 0.996740 1.037453
Cr6   Cr    Cr6+3 0.317350 0.090340 0.995890 1.029597
H1    H     H_    0.434094 0.146787 0.112450 0.145466
H2    H     H_    0.720783 0.246239 0.396260 0.155344
H3    H     H_    0.830099 0.447413 0.081741 0.118067
H4    H     H_    0.768882 0.214648 0.326919 0.137117
H5    H     H_    0.967548 0.117148 0.089214 0.138153
H6    H     H_    0.907575 0.141506 0.156344 0.130465
H7    H     H_    0.215760 0.778010 0.397851 0.143514
H8    H     H_    0.167644 0.869258 0.077984 0.148225
H9    H     H_    0.445302 0.173487 0.185744 0.130332
H10   H     H_    0.468004 0.862977 0.163285 0.129959
H11   H     H_    0.242118 0.526953 0.590856 0.155342
H12   H     H_    0.124781 0.410586 0.897940 0.138833
H13   H     H_    0.209089 0.516111 0.659536 0.127641
H14   H     H_    0.458351 0.201439 0.660490 0.138437
H15   H     H_    0.143421 0.452794 0.832003 0.135804
H16   H     H_    0.475123 0.258736 0.846363 0.129215
H17   H     H_    0.943291 0.126122 0.875580 0.131594
H18   H     H_    0.894621 0.147353 0.803068 0.126969
H19   H     H_    0.732097 0.244251 0.599300 0.154401
H20   H     H_    0.787927 0.507470 0.616379 0.128455
H21   H     H_    0.820693 0.468524 0.819949 0.116322
H22   H     H_    0.868680 0.448822 0.892424 0.126194
H23   H     H_    0.432821 0.923555 0.894047 0.119608
H24   H     H_    0.469362 0.870672 0.822946 0.113821
H25   H     H_    0.523777 0.764702 0.687432 0.132170
H26   H     H_    0.537971 0.718631 0.614955 0.149515
H27   H     H_    0.159848 0.882603 0.874709 0.141633
H28   H     H_    0.242482 0.521716 0.388231 0.150596
H29   H     H_    0.168933 0.467538 0.179975 0.125652
H30   H     H_    0.801228 0.493154 0.413770 0.130084
N1    N     N_R   0.812281 0.405760 0.225695 -0.180222
N2    N     N_R   0.242090 0.432309 0.728219 -0.254669
N3    N     N_R   0.407889 0.289100 0.731933 -0.245956
N4    N     N_R   0.403766 0.290359 0.771683 -0.237908
N5    N     N_R   0.808810 0.411521 0.265636 -0.180635
N6    N     N_R   0.827690 0.244559 0.262314 -0.245315
N7    N     N_R   0.831180 0.238789 0.222315 -0.250161
N8    N     N_R   0.314178 0.765647 0.219692 -0.151315
N9    N     N_R   0.317036 0.760272 0.259452 -0.198285
N10   N     N_R   0.372715 0.885339 0.270428 -0.232888
N11   N     N_R   0.370496 0.890296 0.230660 -0.244691
N12   N     N_R   0.237734 0.433202 0.768004 -0.255720
O1    O     O_R   0.679450 0.499830 0.463150 -0.511514
O2    O     O_R   0.356040 0.477400 0.534170 -0.514064
O3    O     O_R   0.495910 0.323070 0.537100 -0.464819
O4    O     O_R   0.663920 0.359620 0.542290 -0.499270
O5    O     O_3   0.500010 0.500010 0.500010 -0.248246
O6    O     O_R   0.170070 0.978950 0.027680 -0.532065
O7    O     O_R   0.001760 0.175230 0.026640 -0.497984
O8    O     O_R   0.984760 0.333570 0.037150 -0.522233
O9    O     O_R   0.183410 0.309240 0.041890 -0.448172
O10   O     O_R   0.340240 0.172500 0.045430 -0.519191
O11   O     O_R   0.309670 0.000990 0.032050 -0.459576
O12   O     O_R   0.480650 0.664000 0.464630 -0.461624
O13   O     O_R   0.168330 0.982130 0.939200 -0.521231
O14   O     O_R   0.000140 0.178170 0.944610 -0.500973
O15   O     O_R   0.983010 0.336750 0.948660 -0.522173
O16   O     O_R   0.181800 0.312190 0.959860 -0.511344
O17   O     O_R   0.338500 0.175680 0.956950 -0.483629
O18   O     O_R   0.308050 0.003930 0.950020 -0.506695
O19   O     O_3   0.164130 0.163270 0.992500 -0.249325
O20   O     O_R   0.323930 0.675950 0.455370 -0.530347
O21   O     O_R   0.354700 0.475360 0.451930 -0.514030
O22   O     O_R   0.494470 0.320860 0.448390 -0.465985
O23   O     O_R   0.662580 0.357570 0.460050 -0.499277
O24   O     O_R   0.680900 0.502040 0.551870 -0.520842
O25   O     O_R   0.481990 0.666040 0.546870 -0.518612
O26   O     O_R   0.325370 0.678160 0.544080 -0.460824
O27   O     O_3   0.859531 0.474146 0.339264 -0.566339
C97   C     C_3   0.785626 0.580352 0.340466 -0.111748
H31   H     H_    0.783050 0.616498 0.371587 0.104169
H32   H     H_    0.706768 0.593369 0.328618 0.141651
H33   H     H_    0.809702 0.620287 0.320831 0.140088
O28   O     O_3   0.750965 0.495501 0.154090 -0.539628
C98   C     C_3   0.805227 0.553329 0.158570 -0.111682
H34   H     H_    0.807626 0.580789 0.129073 0.087397
H35   H     H_    0.885083 0.508911 0.172938 0.110265
H36   H     H_    0.762790 0.623043 0.178822 0.153776
N13   N     N_2   0.538865 0.760698 0.420406 -0.471845
H37   H     H_    0.606869 0.735051 0.406387 0.262888
C99   C     C_3   0.523981 0.836502 0.453971 -0.287824
H38   H     H_    0.557717 0.886350 0.447942 0.102256
H39   H     H_    0.564567 0.795631 0.481857 0.155721
H40   H     H_    0.440429 0.886694 0.459415 0.129598
O29   O     O_3   0.177600 0.830455 0.321938 -0.553027
C100  C     C_3   0.161226 0.743071 0.316607 -0.064774
H41   H     H_    0.130051 0.733699 0.343922 0.114185
H42   H     H_    0.233096 0.670742 0.308670 0.172078
H43   H     H_    0.102191 0.755332 0.291090 0.161240
N14   N     N_2   0.524385 0.802036 0.338616 -0.549492
H44   H     H_    0.541500 0.768496 0.309795 0.263552
C101  C     C_3   0.525485 0.900004 0.345177 -0.266603
H45   H     H_    0.595463 0.893238 0.332573 0.149225
H46   H     H_    0.528472 0.921570 0.377966 0.153062
H47   H     H_    0.455240 0.962225 0.330116 0.206542
O30   O     O_3   0.181182 0.814985 0.151442 -0.533698
C102  C     C_3   0.090055 0.907204 0.160741 -0.097661
H48   H     H_    0.046619 0.946851 0.132851 0.093299
H49   H     H_    0.107471 0.960768 0.182269 0.133906
H50   H     H_    0.038712 0.887169 0.175622 0.156505
N15   N     N_2   0.459594 0.915612 0.089097 -0.481519
H51   H     H_    0.497089 0.943159 0.110906 0.235903
C103  C     C_3   0.531208 0.834050 0.062658 -0.280711
H52   H     H_    0.488438 0.813505 0.036938 0.157496
H53   H     H_    0.580510 0.860926 0.050176 0.130587
H54   H     H_    0.582118 0.764149 0.079804 0.137613
O31   O     O_3   0.508148 0.190934 0.587098 -0.554438
C104  C     C_3   0.466544 0.132251 0.563990 -0.116172
H55   H     H_    0.429800 0.103750 0.583455 0.105744
H56   H     H_    0.530783 0.063493 0.549446 0.135642
H57   H     H_    0.409784 0.177389 0.539416 0.107802
O32   O     O_3   0.454186 0.160368 0.310242 -0.555007
C105  C     C_3   0.549472 0.151911 0.301163 -0.104339
H58   H     H_    0.598337 0.151628 0.329145 0.152565
H59   H     H_    0.537227 0.214952 0.282025 0.111253
H60   H     H_    0.593034 0.077186 0.283711 0.136041
N16   N     N_2   0.479637 0.199662 0.919196 -0.493849
H61   H     H_    0.532571 0.227238 0.924334 0.245164
C106  C     C_3   0.527992 0.092311 0.904084 -0.284604
H62   H     H_    0.562056 0.083382 0.874787 0.123621
H63   H     H_    0.470231 0.063608 0.899800 0.170141
H64   H     H_    0.590902 0.044512 0.926285 0.139061
N17   N     N_2   0.779355 0.190082 0.674849 -0.517041
H65   H     H_    0.801750 0.125687 0.654945 0.258339
C107  C     C_3   0.680573 0.219711 0.690793 -0.283360
H66   H     H_    0.683300 0.151656 0.703473 0.153639
H67   H     H_    0.617466 0.247817 0.666322 0.167170
H68   H     H_    0.663150 0.281598 0.715377 0.164786
O33   O     O_3   0.491424 0.179908 0.393161 -0.536919
C108  C     C_3   0.440835 0.139683 0.413605 -0.102279
H69   H     H_    0.393134 0.114209 0.392011 0.121384
H70   H     H_    0.391790 0.196683 0.437061 0.106626
H71   H     H_    0.500628 0.070972 0.429373 0.121642
N18   N     N_2   0.850938 0.485936 0.694247 -0.528466
H72   H     H_    0.818982 0.560306 0.684858 0.244525
C109  C     C_3   0.961874 0.441420 0.703542 -0.290262
H73   H     H_    0.002214 0.428316 0.675453 0.146976
H74   H     H_    0.992647 0.366831 0.718083 0.167971
H75   H     H_    0.978612 0.495399 0.724893 0.157712
O34   O     O_3   0.192570 0.803556 0.596223 -0.543370
C110  C     C_3   0.142266 0.903471 0.581377 -0.093647
H76   H     H_    0.192649 0.914158 0.561755 0.097193
H77   H     H_    0.117104 0.964581 0.606547 0.138571
H78   H     H_    0.071588 0.913073 0.562569 0.139493
N19   N     N_2   0.179354 0.822477 0.797682 -0.529613
H79   H     H_    0.169933 0.841924 0.768108 0.279590
C111  C     C_3   0.195023 0.718877 0.801005 -0.305059
H80   H     H_    0.134291 0.707871 0.781683 0.150283
H81   H     H_    0.189228 0.706540 0.832802 0.157280
H82   H     H_    0.272464 0.660615 0.790691 0.156943
O35   O     O_3   0.182327 0.841931 0.679273 -0.556341
C112  C     C_3   0.174566 0.752477 0.684969 -0.111385
H83   H     H_    0.240571 0.699080 0.704983 0.109023
H84   H     H_    0.169852 0.710979 0.655593 0.154053
H85   H     H_    0.102052 0.776440 0.700005 0.137133
O36   O     O_3   0.137516 0.458613 0.098912 -0.540510
C113  C     C_3   0.039220 0.483196 0.111436 -0.099123
H86   H     H_    0.034360 0.413114 0.118006 0.114699
H87   H     H_    0.979972 0.520835 0.086509 0.144632
H88   H     H_    0.019067 0.539614 0.138077 0.098021
O37   O     O_3   0.182803 0.515867 0.311014 -0.590250
C114  C     C_3   0.084640 0.536398 0.322167 -0.122120
H89   H     H_    0.072685 0.566812 0.354235 0.112158
H90   H     H_    0.073567 0.466411 0.316851 0.166542
H91   H     H_    0.023881 0.597033 0.303029 0.135048

loop_
_geom_bond_atom_site_label_1
_geom_bond_atom_site_label_2
_ccdc_geom_bond_type
C8    C9    A    
C7    C13   A    
C101  H46   S    
N15   H51   S    
N1    N5    A    
C94   O15   A    
C55   C59   A    
C1    O12   A    
C55   C57   A    
C52   N2    A    
C41   C42   A    
C74   C94   S    
C66   C68   A    
C16   O27   S    
C21   N5    A    
O27   C97   S    
C113  H88   S    
C45   O3    A    
N3    N4    A    
C51   N12   A    
C44   C45   S    
C25   C28   A    
C47   H13   S    
N15   C103  S    
Cr3   O4    S    
C111  H80   S    
C29   C30   A    
C37   N9    A    
C100  H43   S    
C20   N7    A    
C36   N11   A    
C38   C42   A    
C106  H64   S    
C43   C93   S    
C99   H39   S    
C68   H17   S    
C12   O22   A    
O35   C112  S    
C80   C81   A    
C53   H15   S    
C101  H47   S    
C68   C74   A    
C110  H76   S    
N13   H37   S    
C84   H27   S    
C105  H60   S    
Cr1   O25   S    
N18   H72   S    
C100  H42   S    
C18   C19   A    
C19   H2    S    
Cr1   O12   S    
C49   C50   A    
C82   H24   S    
C112  H84   S    
C32   C37   S    
N17   C107  S    
C96   O18   A    
C109  H73   S    
C36   C42   S    
C70   H21   S    
C39   H8    S    
C15   H30   S    
C47   C48   A    
Cr5   O16   S    
C97   H32   S    
C16   C17   A    
C110  H77   S    
C41   H10   S    
C17   C18   A    
C102  H50   S    
C38   O30   S    
O30   C102  S    
C89   O37   S    
C65   H19   S    
C20   N1    A    
C28   C91   S    
C9    C10   S    
Cr6   O10   S    
C34   O26   A    
C97   H33   S    
C34   C75   S    
Cr3   O22   S    
C98   H36   S    
C103  H53   S    
C96   O13   A    
C102  H48   S    
C78   C89   A    
C66   H18   S    
C95   O17   A    
C93   O6    A    
C69   C70   A    
C67   C78   A    
C84   C90   A    
C21   N6    A    
C83   H23   S    
C2    C11   S    
Cr4   O13   S    
C108  H70   S    
C64   N17   S    
C23   O1    A    
C44   C46   A    
C49   H14   S    
O31   C104  S    
Cr3   O23   S    
C54   C59   A    
N19   C111  S    
Cr4   O7    S    
C38   C39   A    
C12   C67   S    
C109  H74   S    
C111  H81   S    
C62   N18   S    
C37   N10   A    
Cr6   O19   S    
C30   H7    S    
C45   O2    A    
C4    O33   S    
C93   O11   A    
C84   C85   A    
C77   O35   S    
N8    N9    A    
C50   O31   S    
N6    N7    A    
N13   C99   S    
C26   H6    S    
N16   H61   S    
C1    O20   A    
O32   C105  S    
C114  H89   S    
C39   C43   A    
C5    H9    S    
C112  H85   S    
C98   H35   S    
C25   C26   A    
C85   C86   A    
C108  H71   S    
C17   C21   S    
C56   C60   S    
C60   C61   A    
C3    O32   S    
N14   C101  S    
C14   C23   S    
C56   O4    A    
C2    C89   A    
C76   O34   S    
C75   C76   A    
C18   H4    S    
C99   H38   S    
C5    C9    A    
C62   C63   A    
N16   C106  S    
C106  H62   S    
Cr3   O5    S    
C51   N4    A    
C22   O28   S    
C107  H66   S    
C109  H75   S    
C40   N15   S    
Cr5   O9    S    
C30   C31   A    
Cr6   O18   S    
C110  H78   S    
C56   O24   A    
C8    H29   S    
C1    C29   S    
N17   H65   S    
C26   C27   A    
C77   C79   A    
C69   C74   A    
C51   C58   S    
C6    H1    S    
C76   C77   A    
C36   N8    A    
C92   O9    A    
C34   O25   A    
C79   C88   S    
C66   C71   A    
C59   C95   S    
C23   O23   A    
C103  H52   S    
O28   C98   S    
C107  H67   S    
C14   C15   A    
C60   C65   A    
C82   C83   A    
C104  H56   S    
C22   C27   A    
C33   N14   S    
C81   H26   S    
Cr5   O19   S    
C22   C24   A    
C99   H40   S    
C53   C54   A    
C3    C4    A    
C104  H57   S    
C91   O8    A    
C12   O21   A    
C70   C71   A    
C97   H31   S    
C25   H5    S    
C102  H49   S    
C113  H86   S    
C103  H54   S    
C44   C50   A    
C83   C90   A    
Cr3   O3    S    
C46   C47   A    
C40   C41   A    
C111  H82   S    
Cr1   O5    S    
C46   H11   S    
O34   C110  S    
C86   C87   S    
Cr1   O1    S    
C14   C19   A    
C31   C32   A    
C75   C81   A    
C24   C28   A    
C72   C73   T    
C113  H87   S    
C94   O14   A    
C4    C67   A    
C55   N16   S    
C53   C58   A    
C90   C96   S    
C80   H25   S    
C20   C27   S    
C35   N13   S    
Cr1   O24   S    
C63   C73   S    
C29   C35   A    
Cr5   O8    S    
C69   H22   S    
C106  H63   S    
Cr4   O6    S    
C32   C33   A    
C40   C43   A    
C112  H83   S    
C105  H59   S    
C2    C3    A    
C78   H28   S    
O29   C100  S    
C13   C92   S    
C82   C86   A    
N14   H44   S    
C6    C13   A    
C91   O7    A    
Cr2   O20   S    
C57   C58   A    
C5    C6    A    
C114  H91   S    
C48   C49   A    
C54   H12   S    
O37   C114  S    
C63   C64   A    
C108  H69   S    
C33   C35   A    
N18   C109  S    
C101  H45   S    
Cr4   O19   S    
C104  H55   S    
C105  H58   S    
C61   C62   A    
Cr2   O21   S    
C7    C8    A    
C10   C11   T    
C64   C65   A    
N2    N12   A    
C79   C80   A    
Cr2   O26   S    
Cr4   O14   S    
C71   C72   S    
C107  H68   S    
Cr5   O15   S    
C87   C88   T    
C114  H90   S    
C98   H34   S    
Cr2   O2    S    
O36   C113  S    
O33   C108  S    
C85   N19   S    
C52   N3    A    
Cr6   O17   S    
N10   N11   A    
C61   H20   S    
C7    O36   S    
C92   O10   A    
C24   H3    S    
C31   O29   S    
C48   C52   S    
Cr6   O11   S    
C100  H41   S    
C95   O16   A    
C15   C16   A    
N19   H79   S    
C57   H16   S    
Cr2   O5    S    
