data_mof_unit_13338.cif
_audit_creation_date              2012-10-26T19:35:39-0400
_audit_creation_method            fapswitch 2.2
_symmetry_space_group_name_H-M    P1
_symmetry_Int_Tables_number       1
_space_group_crystal_system       triclinic
_cell_length_a                    15.831932
_cell_length_b                    10.874096
_cell_length_c                    9.603555
_cell_angle_alpha                 90.365567
_cell_angle_beta                  89.713862
_cell_angle_gamma                 89.906769
_cell_volume                      1653.27178163

loop_
_atom_site_label
_atom_site_type_symbol
_atom_type_description
_atom_site_fract_x
_atom_site_fract_y
_atom_site_fract_z
_atom_type_partial_charge
C1    C     C_R   0.497297 0.262433 0.499751 0.549739
C2    C     C_R   0.483963 0.129926 0.497495 -0.023353
C3    C     C_R   0.479192 0.066239 0.370180 -0.152419
C4    C     C_R   0.339933 0.500442 0.500247 0.536949
C5    C     C_R   0.471016 0.937130 0.365730 -0.009830
C6    C     C_R   0.473309 0.870303 0.493815 -0.001638
C7    C     C_R   0.455170 0.938768 0.614066 -0.001129
C8    C     C_3   0.467257 0.927177 0.767335 -0.095447
C9    C     C_3   0.488925 0.066229 0.766277 -0.094310
C10   C     C_R   0.574633 0.503067 0.072082 0.151567
C11   C     C_R   0.427491 0.483115 0.074564 -0.035599
C12   C     C_3   0.082614 0.504117 0.499552 0.055301
C13   C     C_R   0.427911 0.479734 0.926609 -0.054222
C14   C     C_R   0.573341 0.509529 0.925532 0.144681
C15   C     C_3   0.634667 0.612530 0.920049 -0.248706
C16   C     C_R   0.491969 0.737356 0.499339 0.537859
C17   C     C_3   0.643386 0.598693 0.077339 -0.123537
C18   C     C_R   0.660034 0.500600 0.499847 0.551835
C19   C     C_3   0.971409 0.449975 0.615645 -0.100035
C20   C     C_3   0.028038 0.387689 0.503745 -0.099143
C21   C     C_1   0.250099 0.501957 0.500630 -0.051919
C22   C     C_1   0.749831 0.502133 0.499667 -0.056639
C23   C     C_3   0.971703 0.620705 0.494783 -0.102300
C24   C     C_3   0.027477 0.566434 0.611425 -0.101184
C25   C     C_3   0.438220 0.154402 0.862636 -0.265818
C26   C     C_3   0.491399 0.188790 0.988858 -0.440723
C27   C     C_3   0.730784 0.544908 0.115715 -0.276857
C28   C     C_3   0.795707 0.646730 0.136776 -0.452958
C29   C     C_3   0.456916 0.877916 0.224364 -0.247820
C30   C     C_3   0.370108 0.816177 0.216525 -0.404255
C31   C     C_3   0.381892 0.893143 0.836257 -0.290932
C32   C     C_3   0.360014 0.758571 0.817325 -0.415496
C33   C     C_3   0.917211 0.504220 0.499054 0.054912
C34   C     C_3   0.028424 0.558412 0.382884 -0.103683
C35   C     C_3   0.972310 0.441965 0.387129 -0.103315
C36   C     C_1   0.174417 0.503203 0.500259 -0.073056
C37   C     C_1   0.825476 0.503368 0.499322 -0.075210
C38   C     C_R   0.463456 0.064273 0.616682 -0.001513
Cu1   Cu    Cu3+1 0.500000 0.499980 0.640670 0.902452
Cu2   Cu    Cu3+1 0.500000 0.500020 0.359330 0.911015
H1    H     H_    0.052535 0.292056 0.507427 0.098457
H2    H     H_    0.542437 0.252799 0.957523 0.162857
H3    H     H_    0.451112 0.233434 0.069306 0.149707
H4    H     H_    0.421298 0.239621 0.807365 0.190977
H5    H     H_    0.377212 0.117346 0.899228 0.127634
H6    H     H_    0.558390 0.081895 0.772588 0.130465
H7    H     H_    0.368230 0.470920 0.128730 0.124768
H8    H     H_    0.368970 0.464824 0.873035 0.120658
H9    H     H_    0.604166 0.700477 0.890115 0.112372
H10   H     H_    0.802757 0.701415 0.040137 0.147151
H11   H     H_    0.775824 0.708302 0.223723 0.152870
H12   H     H_    0.521563 0.868227 0.796837 0.130780
H13   H     H_    0.857845 0.605605 0.163024 0.139686
H14   H     H_    0.727401 0.489799 0.211384 0.185309
H15   H     H_    0.754157 0.480481 0.033657 0.131646
H16   H     H_    0.624662 0.681742 0.138165 0.146307
H17   H     H_    0.948147 0.391089 0.295027 0.095882
H18   H     H_    0.367118 0.756359 0.122781 0.131759
H19   H     H_    0.356875 0.758239 0.308638 0.176223
H20   H     H_    0.319918 0.887368 0.209942 0.127096
H21   H     H_    0.459068 0.948060 0.141831 0.112654
H22   H     H_    0.508484 0.813548 0.196177 0.164547
H23   H     H_    0.691853 0.589052 0.857649 0.139783
H24   H     H_    0.347210 0.737655 0.706196 0.179614
H25   H     H_    0.413548 0.703485 0.854851 0.189403
H26   H     H_    0.302793 0.735808 0.879247 0.110306
H27   H     H_    0.385067 0.912999 0.948779 0.145224
H28   H     H_    0.329091 0.948001 0.792126 0.150616
H29   H     H_    0.946586 0.405524 0.711180 0.097298
H30   H     H_    0.053175 0.602907 0.287332 0.095555
H31   H     H_    0.947082 0.716263 0.490974 0.097400
H32   H     H_    0.051519 0.617492 0.703480 0.096267
H33   H     H_    0.483315 0.116683 0.274047 0.130449
H34   H     H_    0.521507 0.106140 0.033720 0.130579
N1    N     N_R   0.500530 0.500930 0.147930 -0.237382
N2    N     N_R   0.500530 0.500890 0.852020 -0.242751
O1    O     O_R   0.500000 0.319640 0.618810 -0.501157
O2    O     O_R   0.500010 0.319680 0.381230 -0.502139
O3    O     O_R   0.379070 0.499970 0.618770 -0.516832
O4    O     O_R   0.379080 0.500010 0.381190 -0.510563
O5    O     O_R   0.499990 0.680320 0.618770 -0.507126
O6    O     O_R   0.500000 0.680360 0.381190 -0.504330
O7    O     O_R   0.620920 0.499990 0.618810 -0.491952
O8    O     O_R   0.620930 0.500030 0.381230 -0.501332

loop_
_geom_bond_atom_site_label_1
_geom_bond_atom_site_label_2
_ccdc_geom_bond_type
C1    O1    A    
Cu2   O8    S    
C11   H7    S    
C19   C20   S    
C20   H1    S    
C27   H14   S    
C9    C25   S    
C7    C8    S    
C21   C36   T    
C31   H27   S    
C24   H32   S    
Cu1   O1    S    
C4    O4    A    
C5    C6    A    
C28   H11   S    
C27   H15   S    
C10   C17   S    
C30   H18   S    
C34   C35   S    
C16   O5    A    
C26   H34   S    
C20   C35   S    
C28   H10   S    
C8    C9    S    
C23   C33   S    
C30   H20   S    
C18   O8    A    
C23   C24   S    
Cu2   O4    S    
C12   C36   S    
C8    H12   S    
C9    H6    S    
C1    O2    A    
C25   H4    S    
C26   H3    S    
C5    C29   S    
C31   H28   S    
C29   H21   S    
C17   C27   S    
C23   H31   S    
C32   H24   S    
C4    O3    A    
C10   C14   A    
Cu1   Cu2   S    
C25   C26   S    
C22   C37   T    
C33   C37   S    
C14   N2    A    
C29   C30   S    
Cu2   O6    S    
C10   N1    A    
C2    C38   A    
C31   C32   S    
C13   N2    A    
C23   C34   S    
C30   H19   S    
C12   C20   S    
C16   O6    A    
C18   O7    A    
Cu1   N2    S    
C17   H16   S    
Cu1   O5    S    
C19   C33   S    
Cu2   O2    S    
C19   H29   S    
C12   C34   S    
C25   H5    S    
C26   H2    S    
C32   H26   S    
C15   C17   S    
C34   H30   S    
C29   H22   S    
C18   C22   S    
C8    C31   S    
C3    C5    A    
C13   H8    S    
C28   H13   S    
C6    C7    A    
C12   C24   S    
Cu2   N1    S    
C35   H17   S    
C2    C3    A    
Cu1   O7    S    
C11   N1    A    
C4    C21   S    
C11   C13   A    
C1    C2    S    
C9    C38   S    
C33   C35   S    
C7    C38   A    
C19   C24   S    
C15   H9    S    
C3    H33   S    
C6    C16   S    
C27   C28   S    
C15   H23   S    
C14   C15   S    
Cu1   O3    S    
C32   H25   S    
