data_mof_unit_12208.cif
_audit_creation_date              2012-12-10T17:12:42-0500
_audit_creation_method            fapswitch 2.2
_symmetry_space_group_name_H-M    P1
_symmetry_Int_Tables_number       1
_space_group_crystal_system       triclinic
_cell_length_a                    23.479659
_cell_length_b                    10.636835
_cell_length_c                    10.050214
_cell_angle_alpha                 89.052067
_cell_angle_beta                  91.291214
_cell_angle_gamma                 90.4228
_cell_volume                      2508.99107549

loop_
_atom_site_label
_atom_site_type_symbol
_atom_type_description
_atom_site_fract_x
_atom_site_fract_y
_atom_site_fract_z
_atom_type_partial_charge
C1    C     C_R   0.495518 0.262442 0.501037 0.958934
C2    C     C_R   0.968818 0.269519 0.551330 -0.159411
C3    C     C_R   0.028127 0.268689 0.555745 -0.156065
C4    C     C_R   0.058976 0.381713 0.543989 -0.019978
C5    C     C_R   0.029822 0.496627 0.529214 -0.021102
C6    C     C_R   0.060359 0.610750 0.518508 -0.022534
C7    C     C_R   0.030975 0.724666 0.503176 -0.156731
C8    C     C_R   0.971726 0.725211 0.496308 -0.160085
C9    C     C_R   0.118456 0.383020 0.543246 0.505322
C10   C     C_R   0.119759 0.607324 0.520084 0.513254
C11   C     C_R   0.231562 0.508038 0.388084 0.234655
C12   C     C_R   0.389054 0.500887 0.498307 0.881706
C13   C     C_R   0.291665 0.515994 0.378603 0.158047
C14   C     C_R   0.326057 0.500019 0.496821 -0.106820
C15   C     C_R   0.299814 0.482058 0.620022 -0.260175
C16   C     C_R   0.241331 0.479890 0.628738 -0.150550
C17   C     C_R   0.207351 0.492814 0.514645 0.282521
C18   C     C_R   0.760884 0.449619 0.402477 0.239416
C19   C     C_R   0.701698 0.451705 0.401999 -0.336219
C20   C     C_R   0.672765 0.507037 0.505928 -0.159961
C21   C     C_R   0.703572 0.561965 0.613262 0.109968
C22   C     C_R   0.763364 0.555676 0.616933 0.204762
C23   C     C_R   0.500104 0.737433 0.498632 0.941517
C24   C     C_R   0.791665 0.500386 0.510649 0.213235
C25   C     C_2   0.452385 0.928257 0.433714 0.206212
C26   C     C_2   0.497377 0.870163 0.491793 -0.365108
C27   C     C_2   0.457317 0.063841 0.410548 0.216206
C28   C     C_2   0.482299 0.130781 0.508454 -0.393476
C29   C     C_2   0.503187 0.600564 0.923551 -0.175705
C30   C     C_2   0.517127 0.594314 0.070632 0.318630
C31   C     C_R   0.610530 0.503224 0.501622 0.899083
C32   C     C_R   0.881523 0.610115 0.498215 0.533446
C33   C     C_R   0.879962 0.386517 0.528825 0.530725
C34   C     C_R   0.939414 0.383318 0.534417 -0.027156
C35   C     C_R   0.969997 0.497322 0.523542 -0.021069
C36   C     C_R   0.940923 0.611955 0.505856 -0.022857
H1    H     H_    0.946158 0.180814 0.560243 0.192613
H2    H     H_    0.678230 0.409825 0.319637 0.179496
H3    H     H_    0.535855 0.920208 0.522493 0.106215
H4    H     H_    0.490683 0.086655 0.605374 0.135160
H5    H     H_    0.498570 0.691286 0.874282 0.177247
H6    H     H_    0.517116 0.420680 0.894740 0.181245
H7    H     H_    0.049662 0.179343 0.567428 0.192092
H8    H     H_    0.053620 0.813435 0.494773 0.193293
H9    H     H_    0.950208 0.814456 0.483351 0.192277
H10   H     H_    0.324532 0.469944 0.711566 0.186161
H11   H     H_    0.222060 0.468086 0.725120 0.156771
N1    N     N_R   0.852487 0.498775 0.511371 -0.330348
N2    N     N_R   0.147165 0.494464 0.528913 -0.353611
N3    N     N_2   0.500610 0.501330 0.852150 -0.216315
N4    N     N_2   0.500630 0.501360 0.147810 -0.085088
O1    O     O_R   0.499990 0.319060 0.613040 -0.617306
O2    O     O_2   0.849678 0.278915 0.542657 -0.555283
O3    O     O_2   0.147480 0.274133 0.553957 -0.546304
O4    O     O_2   0.150094 0.715248 0.510168 -0.545423
O5    O     O_R   0.500010 0.319100 0.386900 -0.600418
O6    O     O_R   0.416150 0.499940 0.613100 -0.607706
O7    O     O_R   0.416160 0.499980 0.386960 -0.623256
O8    O     O_R   0.499990 0.680900 0.613100 -0.620070
O9    O     O_R   0.500010 0.680940 0.386960 -0.610135
O10   O     O_R   0.583840 0.500020 0.613040 -0.601977
O11   O     O_R   0.583850 0.500060 0.386900 -0.633735
O12   O     O_2   0.852786 0.718402 0.477448 -0.559465
Zn1   Zn    Zn3+2 0.499990 0.499970 0.650990 0.934986
Zn2   Zn    Zn3+2 0.500010 0.500030 0.349010 0.924965
N5    N     N_2   0.675472 0.629712 0.713720 -0.306044
H12   H     H_    0.642029 0.685875 0.682107 0.232355
C37   C     C_3   0.667371 0.564163 0.839576 -0.710506
H13   H     H_    0.690589 0.615156 0.919762 0.231960
H14   H     H_    0.682898 0.465715 0.837535 0.234832
H15   H     H_    0.621475 0.561350 0.863352 0.245286
N6    N     N_2   0.795657 0.612260 0.722425 -0.271592
H16   H     H_    0.777210 0.689757 0.763579 0.262078
C38   C     C_3   0.818808 0.525710 0.821866 -0.779266
H17   H     H_    0.845189 0.578551 0.895330 0.243526
H18   H     H_    0.846316 0.455025 0.776011 0.256253
H19   H     H_    0.784019 0.476609 0.875077 0.237841
C39   C     C_3   0.398486 0.858602 0.392819 -0.848823
H20   H     H_    0.363731 0.924937 0.365300 0.247415
H21   H     H_    0.406698 0.798793 0.306163 0.235294
H22   H     H_    0.383415 0.798917 0.476842 0.232762
C40   C     C_3   0.437469 0.119303 0.278427 -0.857570
H23   H     H_    0.417672 0.047090 0.213393 0.233010
H24   H     H_    0.405344 0.193106 0.294925 0.235115
H25   H     H_    0.474366 0.157961 0.223915 0.250458
N7    N     N_2   0.552539 0.691165 0.124702 -0.310626
H26   H     H_    0.571992 0.670335 0.214976 0.270259
C41   C     C_3   0.530747 0.817933 0.113230 -0.785659
H27   H     H_    0.559189 0.882888 0.169635 0.243280
H28   H     H_    0.487373 0.822659 0.154519 0.254798
H29   H     H_    0.529620 0.850364 0.007780 0.230859
C42   C     C_3   0.456291 0.415053 0.101859 -0.674680
H30   H     H_    0.432225 0.380651 0.187861 0.250542
H31   H     H_    0.424657 0.460902 0.033266 0.199891
H32   H     H_    0.475217 0.330307 0.058506 0.180367
C43   C     C_3   0.193275 0.513334 0.264533 -0.863538
H33   H     H_    0.147998 0.492074 0.284688 0.235111
H34   H     H_    0.195195 0.608711 0.218240 0.251686
H35   H     H_    0.206984 0.442142 0.192518 0.240656
C44   C     C_3   0.318368 0.541280 0.244600 -0.860752
H36   H     H_    0.348394 0.621870 0.251174 0.251911
H37   H     H_    0.340437 0.455683 0.212507 0.241010
H38   H     H_    0.287736 0.567311 0.163882 0.236570
N8    N     N_2   0.789574 0.394496 0.294921 -0.273900
H39   H     H_    0.767759 0.319870 0.253073 0.236814
C45   C     C_3   0.808709 0.483675 0.195071 -0.779451
H40   H     H_    0.771579 0.530317 0.145174 0.234776
H41   H     H_    0.833149 0.433567 0.119210 0.242847
H42   H     H_    0.837069 0.555943 0.240268 0.264128

loop_
_geom_bond_atom_site_label_1
_geom_bond_atom_site_label_2
_ccdc_geom_bond_type
C11   C43   S    
N5    C37   S    
C30   N4    D    
C21   N5    S    
N3    Zn1   S    
C31   O10   A    
C19   C20   A    
C39   H22   S    
N8    C45   S    
C7    C8    A    
C23   O8    A    
C3    H7    S    
O8    Zn1   S    
C38   H18   S    
C18   C24   A    
C32   C36   A    
C1    O5    A    
C18   C19   A    
N4    Zn2   S    
C5    C6    A    
C39   H21   S    
C26   H3    S    
C45   H40   S    
C28   H4    S    
C15   C16   A    
C43   H35   S    
C34   C35   A    
C8    C36   A    
C23   C26   S    
C8    H9    S    
C44   H36   S    
C35   C36   A    
C16   C17   A    
C38   H19   S    
C43   H34   S    
C1    C28   S    
C30   N7    S    
C12   O7    A    
C2    C34   A    
N5    H12   S    
C21   C22   A    
C32   N1    A    
C31   O11   A    
C16   H11   S    
C22   N6    S    
N8    H39   S    
C29   N3    D    
C33   O2    S    
C23   O9    A    
C38   H17   S    
C25   C39   S    
C24   N1    S    
C9    N2    A    
N6    C38   S    
O1    Zn1   S    
C17   N2    S    
N7    H26   S    
C37   H13   S    
C25   C26   D    
C42   H32   S    
O10   Zn1   S    
C29   C30   S    
C19   H2    S    
N4    C42   S    
O7    Zn2   S    
C41   H29   S    
C43   H33   S    
C42   H31   S    
C33   C34   A    
C18   N8    S    
C7    H8    S    
C20   C21   A    
C10   O4    S    
H6    N3    S    
C12   O6    A    
C12   C14   S    
O9    Zn2   S    
C40   H24   S    
C22   C24   A    
C3    C4    A    
O6    Zn1   S    
C44   H37   S    
C11   C17   A    
O11   Zn2   S    
C29   H5    S    
C39   H20   S    
C27   C40   S    
C32   O12   S    
C41   H28   S    
N6    H16   S    
C6    C10   A    
C6    C7    A    
C25   C27   S    
C40   H25   S    
C13   C44   S    
C2    C3    A    
C11   C13   A    
C2    H1    S    
C45   H41   S    
C37   H15   S    
C5    C35   A    
C42   H30   S    
N7    C41   S    
C44   H38   S    
C1    O1    A    
C4    C5    A    
C41   H27   S    
C37   H14   S    
C40   H23   S    
C27   C28   D    
C33   N1    A    
C14   C15   A    
C9    O3    S    
C15   H10   S    
C4    C9    A    
C13   C14   A    
C10   N2    A    
C45   H42   S    
O5    Zn2   S    
C20   C31   S    
