data_mof_unit_39272.cif
_audit_creation_date              2012-12-10T20:48:18-0500
_audit_creation_method            fapswitch 2.2
_symmetry_space_group_name_H-M    P1
_symmetry_Int_Tables_number       1
_space_group_crystal_system       triclinic
_cell_length_a                    10.634357
_cell_length_b                    8.928562
_cell_length_c                    8.106935
_cell_angle_alpha                 89.999889
_cell_angle_beta                  89.839339
_cell_angle_gamma                 90.000099
_cell_volume                      769.746526727

loop_
_atom_site_label
_atom_site_type_symbol
_atom_type_description
_atom_site_fract_x
_atom_site_fract_y
_atom_site_fract_z
_atom_type_partial_charge
C1    C     C_R   0.500000 0.217989 0.500000 0.898486
C2    C     C_1   0.500000 0.934806 0.500000 -0.207964
C3    C     C_3   0.071730 0.634533 0.498049 -0.508268
C4    C     C_3   0.928271 0.634534 0.501931 -0.508278
C5    C     C_3   0.121943 0.471518 0.500988 0.077173
C6    C     C_3   0.878057 0.471519 0.499014 0.077180
C7    C     C_R   0.258074 0.485122 0.500280 0.836009
C8    C     C_R   0.741925 0.485124 0.499720 0.836019
C9    C     C_R   0.500000 0.781980 0.500000 0.956350
C10   C     C_1   0.500000 0.065211 0.500000 -0.202407
C11   C     C_3   0.072523 0.394113 0.663072 -0.064866
C12   C     C_3   0.073475 0.389154 0.341515 -0.044461
C13   C     C_3   0.926524 0.389173 0.658499 -0.044449
C14   C     C_3   0.927476 0.394097 0.336941 -0.064873
H1    H     H_    0.099697 0.466224 0.769768 0.137084
H2    H     H_    0.098993 0.208153 0.808148 0.206744
H3    H     H_    0.088741 0.163995 0.410855 0.235675
H4    H     H_    0.221694 0.236620 0.329102 0.193236
H5    H     H_    0.911252 0.164008 0.589187 0.235677
H6    H     H_    0.778304 0.236642 0.670942 0.193246
H7    H     H_    0.774571 0.252903 0.301347 0.197829
H8    H     H_    0.901019 0.208108 0.191906 0.206750
H9    H     H_    0.106391 0.453977 0.232065 0.147444
H10   H     H_    0.893610 0.454009 0.767939 0.147441
H11   H     H_    0.900304 0.466197 0.230235 0.137087
H12   H     H_    0.107655 0.698950 0.605825 0.191434
H13   H     H_    0.104725 0.693696 0.384889 0.191066
H14   H     H_    0.895276 0.693709 0.615082 0.191062
H15   H     H_    0.892347 0.698940 0.394146 0.191438
H16   H     H_    0.225427 0.252909 0.698649 0.197826
N1    N     N_1   0.500000 0.500030 0.073640 -0.041760
N2    N     N_1   0.500000 0.500030 0.926360 -0.041760
N3    N     N_3   0.127703 0.245198 0.691530 -0.478011
N4    N     N_3   0.123724 0.236438 0.321036 -0.462456
N5    N     N_3   0.876275 0.236460 0.679000 -0.462448
N6    N     N_3   0.872290 0.245181 0.308502 -0.478025
O1    O     O_R   0.500000 0.285340 0.636850 -0.625267
O2    O     O_R   0.500000 0.285340 0.363150 -0.625265
O3    O     O_R   0.314790 0.499970 0.636880 -0.633199
O4    O     O_R   0.314790 0.499970 0.363120 -0.631544
O5    O     O_R   0.685210 0.499970 0.636880 -0.631549
O6    O     O_R   0.685210 0.499970 0.363120 -0.633199
O7    O     O_R   0.500000 0.714650 0.636900 -0.608558
O8    O     O_R   0.500000 0.714650 0.363100 -0.608558
Zn1   Zn    Zn3+2 0.500000 0.499990 0.682780 0.962454
Zn2   Zn    Zn3+2 0.500000 0.499990 0.317220 0.962456

loop_
_geom_bond_atom_site_label_1
_geom_bond_atom_site_label_2
_ccdc_geom_bond_type
C6    C8    S    
C7    O4    A    
C5    C11   S    
H2    N3    S    
C6    C14   S    
H8    N6    S    
N2    Zn1   S    
N1    N2    T    
C8    O6    A    
C1    O1    A    
O3    Zn1   S    
C3    H13   S    
H7    N6    S    
H5    N5    S    
C6    C13   S    
O4    Zn2   S    
O7    Zn1   S    
C12   H9    S    
C1    O2    A    
C12   N4    S    
C4    H14   S    
C12   C14   S    
C13   N5    S    
H4    N4    S    
C14   H11   S    
C14   N6    S    
O2    Zn2   S    
C11   C13   S    
C9    O7    A    
H3    N4    S    
O1    Zn1   S    
C3    C4    S    
C2    C10   T    
C11   N3    S    
C8    O5    A    
C5    C12   S    
C4    C6    S    
O6    Zn2   S    
C5    C7    S    
C7    O3    A    
C9    O8    A    
O5    Zn1   S    
H16   N3    S    
C2    C9    S    
C11   H1    S    
H6    N5    S    
C3    H12   S    
C1    C10   S    
C4    H15   S    
C13   H10   S    
O8    Zn2   S    
C3    C5    S    
N1    Zn2   S    
