data_mof_unit_41332.cif
_audit_creation_date              2012-10-26T20:16:52-0400
_audit_creation_method            fapswitch 2.2
_symmetry_space_group_name_H-M    P1
_symmetry_Int_Tables_number       1
_space_group_crystal_system       triclinic
_cell_length_a                    10.887271
_cell_length_b                    10.928305
_cell_length_c                    10.460685
_cell_angle_alpha                 90.800717
_cell_angle_beta                  91.736838
_cell_angle_gamma                 88.597821
_cell_volume                      1243.5528423

loop_
_atom_site_label
_atom_site_type_symbol
_atom_type_description
_atom_site_fract_x
_atom_site_fract_y
_atom_site_fract_z
_atom_type_partial_charge
C1    C     C_R   0.499498 0.261547 0.498988 0.594728
C2    C     C_R   0.676167 0.832552 0.764740 -0.083302
C3    C     C_R   0.442419 0.117827 0.259210 0.082771
C4    C     C_R   0.557569 0.882174 0.740789 0.082751
C5    C     C_R   0.529549 0.115808 0.160755 0.095171
C6    C     C_R   0.470456 0.884218 0.839262 0.095156
C7    C     C_R   0.494053 0.163200 0.040596 -0.106959
C8    C     C_R   0.505965 0.836824 0.959418 -0.106955
C9    C     C_R   0.376489 0.213729 0.018767 -0.067908
C10   C     C_R   0.623522 0.786273 0.981226 -0.067905
C11   C     C_R   0.470902 0.933554 0.388549 0.363075
C12   C     C_R   0.500498 0.738453 0.501012 0.594712
C13   C     C_R   0.529083 0.066447 0.611452 0.363118
C14   C     C_R   0.500957 0.871985 0.502552 -0.005745
C15   C     C_R   0.499033 0.128015 0.497448 -0.005705
C16   C     C_R   0.261682 0.497254 0.497743 0.559912
C17   C     C_R   0.738318 0.502741 0.502257 0.559929
C18   C     C_R   0.529630 0.939539 0.615323 -0.030078
C19   C     C_R   0.470356 0.060462 0.384676 -0.030078
C20   C     C_1   0.500071 0.500002 0.072046 0.084485
C21   C     C_1   0.499930 0.499998 0.927954 0.084484
C22   C     C_R   0.184175 0.790428 0.173573 -0.033627
C23   C     C_R   0.872208 0.507504 0.506797 -0.028707
C24   C     C_R   0.815816 0.209544 0.826404 -0.033641
C25   C     C_R   0.136816 0.741006 0.283942 -0.040927
C26   C     C_R   0.863169 0.258974 0.716033 -0.040927
C27   C     C_R   0.117172 0.614782 0.289757 0.052053
C28   C     C_R   0.882829 0.385197 0.710233 0.052061
C29   C     C_R   0.146771 0.538787 0.185326 -0.068027
C30   C     C_R   0.853251 0.461183 0.814677 -0.068024
C31   C     C_R   0.195724 0.588177 0.076427 -0.119938
C32   C     C_R   0.804305 0.411786 0.923578 -0.119921
C33   C     C_R   0.212970 0.713848 0.069851 -0.085051
C34   C     C_R   0.127792 0.492487 0.493200 -0.028715
C35   C     C_R   0.787047 0.286116 0.930143 -0.085063
C36   C     C_R   0.930801 0.572195 0.411150 -0.035193
C37   C     C_R   0.069199 0.427796 0.588846 -0.035199
C38   C     C_2   0.657191 0.065646 0.179997 0.578877
C39   C     C_2   0.342819 0.934409 0.820049 0.578905
C40   C     C_2   0.859145 0.658864 0.326706 0.607388
C41   C     C_2   0.140856 0.341131 0.673293 0.607404
C42   C     C_R   0.941501 0.439300 0.598911 -0.082856
C43   C     C_R   0.058499 0.560686 0.401082 -0.082857
C44   C     C_R   0.291376 0.215416 0.115652 -0.100075
C45   C     C_R   0.708618 0.784563 0.884323 -0.100065
C46   C     C_R   0.323814 0.167426 0.235238 -0.083289
Cu1   Cu    Cu3+1 0.500000 0.500000 0.625300 1.060600
Cu2   Cu    Cu3+1 0.500000 0.500000 0.374700 1.060615
F1    F     F_    0.440178 0.870677 0.279653 -0.647433
F2    F     F_    0.559785 0.129326 0.720353 -0.647421
H1    H     H_    0.248316 0.750988 0.983797 0.141366
H2    H     H_    0.869197 0.558384 0.811447 0.101246
H3    H     H_    0.220193 0.529189 0.997033 0.121862
H4    H     H_    0.779859 0.470767 0.002987 0.121851
H5    H     H_    0.350921 0.250023 0.925733 0.207553
H6    H     H_    0.649097 0.749980 0.074256 0.207548
H7    H     H_    0.199497 0.252090 0.097209 0.126913
H8    H     H_    0.800495 0.747877 0.902750 0.126905
H9    H     H_    0.256180 0.167806 0.309127 0.126060
H10   H     H_    0.743789 0.832153 0.690837 0.126063
H11   H     H_    0.809755 0.994734 0.099260 0.348917
H12   H     H_    0.751712 0.248970 0.016203 0.141348
H13   H     H_    0.190250 0.005260 0.900833 0.348906
H14   H     H_    0.895608 0.563901 0.165438 0.286537
H15   H     H_    0.104416 0.436118 0.834550 0.286536
H16   H     H_    0.557419 0.161616 0.963114 0.200840
H17   H     H_    0.442614 0.838425 0.036916 0.200904
H18   H     H_    0.198091 0.887941 0.168284 0.169438
H19   H     H_    0.801890 0.112030 0.831686 0.169409
H20   H     H_    0.113658 0.800745 0.363552 0.129735
H21   H     H_    0.886309 0.199241 0.636411 0.129748
H22   H     H_    0.130840 0.441585 0.188566 0.101263
N1    N     N_1   0.500010 0.499990 0.186410 -0.182033
N2    N     N_1   0.499990 0.500010 0.813590 -0.182032
O1    O     O_R   0.499990 0.319650 0.605810 -0.406159
O2    O     O_R   0.724184 0.026541 0.074468 -0.728543
O3    O     O_2   0.294983 0.939997 0.712948 -0.506603
O4    O     O_R   0.275816 0.973425 0.925607 -0.728597
O5    O     O_2   0.802862 0.745087 0.374538 -0.462626
O6    O     O_R   0.853826 0.642880 0.193997 -0.694508
O7    O     O_2   0.197124 0.254898 0.625467 -0.462583
O8    O     O_R   0.146191 0.357133 0.805999 -0.694509
O9    O     O_R   0.500010 0.680350 0.394190 -0.406156
O10   O     O_R   0.499990 0.319640 0.394190 -0.530356
O11   O     O_R   0.500010 0.680360 0.605810 -0.530368
O12   O     O_R   0.319640 0.500010 0.605810 -0.489339
O13   O     O_R   0.680360 0.499990 0.394190 -0.489327
O14   O     O_R   0.319650 0.500010 0.394190 -0.503563
O15   O     O_R   0.680350 0.499990 0.605810 -0.503565
O16   O     O_2   0.705040 0.060162 0.287097 -0.506688

loop_
_geom_bond_atom_site_label_1
_geom_bond_atom_site_label_2
_ccdc_geom_bond_type
C46   H9    S    
C27   C29   A    
C34   C37   A    
H14   O6    S    
C14   C18   A    
C38   O2    S    
C1    O10   A    
C15   C19   A    
C11   C19   A    
C17   C23   S    
C23   C42   A    
C12   O11   A    
Cu1   O11   S    
C24   C26   A    
C11   C14   A    
C2    H10   S    
C40   O6    S    
C37   C42   A    
C16   C34   S    
C22   C25   A    
Cu2   O14   S    
C3    C19   S    
C1    C15   S    
C10   H6    S    
C29   H22   S    
C4    C18   S    
C2    C45   A    
C5    C38   S    
C16   O12   A    
C26   H21   S    
Cu1   O15   S    
C32   H4    S    
C44   C46   A    
C24   H19   S    
H11   O2    S    
C45   H8    S    
Cu2   O13   S    
C24   C35   A    
C1    O1    A    
C32   C35   A    
C36   C40   S    
C17   O15   A    
C4    C6    A    
C5    C7    A    
C6    C8    A    
C21   N2    T    
Cu2   O10   S    
C12   O9    A    
C2    C4    A    
Cu1   O12   S    
C11   F1    S    
Cu1   Cu2   S    
C44   H7    S    
C41   O7    D    
C10   C45   A    
C31   C33   A    
C40   O5    D    
C31   H3    S    
C22   H18   S    
C9    H5    S    
C13   C18   A    
C12   C14   S    
C13   C15   A    
C33   H1    S    
C39   O3    D    
C7    C9    A    
C22   C33   A    
C30   H2    S    
C9    C44   A    
C17   O13   A    
Cu2   N1    S    
C34   C43   A    
Cu1   N2    S    
C3    C5    A    
C25   C27   A    
C38   O16   D    
C3    C46   A    
C26   C28   A    
Cu2   O9    S    
C28   C30   A    
Cu1   O1    S    
C29   C31   A    
C7    H16   S    
C30   C32   A    
H15   O8    S    
C41   O8    S    
C28   C42   S    
C20   N1    T    
C35   H12   S    
C37   C41   S    
C13   F2    S    
C27   C43   S    
C20   C21   S    
C8    H17   S    
C8    C10   A    
C23   C36   A    
C16   O14   A    
C6    C39   S    
C36   C43   A    
C25   H20   S    
C39   O4    S    
H13   O4    S    
