data_mof_unit_66338.cif
_audit_creation_date              2012-12-10T17:40:22-0500
_audit_creation_method            fapswitch 2.2
_symmetry_space_group_name_H-M    P1
_symmetry_Int_Tables_number       1
_space_group_crystal_system       triclinic
_cell_length_a                    37.497585
_cell_length_b                    30.383069
_cell_length_c                    21.901638
_cell_angle_alpha                 89.733043
_cell_angle_beta                  125.669532
_cell_angle_gamma                 90.25217
_cell_volume                      20270.8726254

loop_
_atom_site_label
_atom_site_type_symbol
_atom_type_description
_atom_site_fract_x
_atom_site_fract_y
_atom_site_fract_z
_atom_type_partial_charge
C1    C     C_R   0.414914 0.499858 0.915753 0.780006
C2    C     C_R   0.585082 0.499942 0.084211 0.779982
C3    C     C_R   0.914891 0.999850 0.915704 0.779723
C4    C     C_R   0.085088 0.999939 0.084198 0.779930
C5    C     C_2   0.504593 0.502190 0.820878 -0.317130
C6    C     C_2   0.495592 0.501703 0.179318 -0.316819
C7    C     C_2   0.004592 0.002190 0.820877 -0.316888
C8    C     C_2   0.995405 0.997792 0.179120 -0.307915
C9    C     C_R   0.296732 0.463472 0.819163 -0.201302
C10   C     C_R   0.703147 0.464009 0.180392 -0.201452
C11   C     C_R   0.796598 0.963029 0.817226 -0.201360
C12   C     C_R   0.203166 0.963826 0.180849 -0.201399
C13   C     C_R   0.342451 0.462965 0.866947 -0.022202
C14   C     C_R   0.657436 0.463469 0.132585 -0.021955
C15   C     C_R   0.842316 0.962381 0.864885 -0.024533
C16   C     C_R   0.157455 0.963269 0.133079 -0.022298
C17   C     C_R   0.366533 0.499352 0.867948 -0.074036
C18   C     C_R   0.633454 0.499588 0.131913 -0.073895
C19   C     C_R   0.866470 0.999331 0.867825 -0.075237
C20   C     C_R   0.133472 0.999577 0.131862 -0.074835
C21   C     C_R   0.343756 0.535773 0.821458 -0.192133
C22   C     C_R   0.656323 0.535819 0.178688 -0.192268
C23   C     C_R   0.843697 0.036375 0.823232 -0.193669
C24   C     C_R   0.156359 0.036008 0.178042 -0.191502
C25   C     C_R   0.298029 0.536061 0.774360 -0.165752
C26   C     C_R   0.702056 0.536156 0.225795 -0.165506
C27   C     C_R   0.797967 0.036765 0.776234 -0.166471
C28   C     C_R   0.202094 0.036363 0.225084 -0.165739
C29   C     C_R   0.274227 0.499949 0.773047 0.095518
C30   C     C_R   0.725756 0.500285 0.226816 0.095490
C31   C     C_R   0.774134 0.000132 0.773095 0.096476
C32   C     C_R   0.225788 0.000300 0.226673 0.095760
C33   C     C_R   0.202191 0.515519 0.650935 -0.165093
C34   C     C_R   0.797863 0.515400 0.349076 -0.165079
C35   C     C_R   0.702121 0.016923 0.651747 -0.164638
C36   C     C_R   0.297879 0.015923 0.348666 -0.164894
C37   C     C_R   0.156452 0.514699 0.605811 -0.192829
C38   C     C_R   0.843599 0.514479 0.394234 -0.192745
C39   C     C_R   0.656386 0.016008 0.606514 -0.191844
C40   C     C_R   0.343614 0.014985 0.393895 -0.191682
C41   C     C_R   0.133534 0.498853 0.634228 -0.078477
C42   C     C_R   0.866446 0.498996 0.365721 -0.078775
C43   C     C_R   0.633476 0.998871 0.634134 -0.077306
C44   C     C_R   0.366474 0.998934 0.365758 -0.078132
C45   C     C_R   0.501450 0.500257 0.883939 0.846878
C46   C     C_R   0.498580 0.500083 0.116095 0.846816
C47   C     C_R   0.001449 0.000257 0.883938 0.847076
C48   C     C_R   0.998557 0.999740 0.116069 0.845579
C49   C     C_R   0.157530 0.483310 0.709324 -0.023111
C50   C     C_R   0.842364 0.483965 0.290452 -0.023019
C51   C     C_R   0.657420 0.982096 0.708436 -0.021570
C52   C     C_R   0.342434 0.983316 0.290853 -0.021580
C53   C     C_R   0.203252 0.484624 0.754085 -0.201637
C54   C     C_R   0.796657 0.485406 0.245665 -0.201788
C55   C     C_R   0.703144 0.983493 0.753344 -0.201521
C56   C     C_R   0.296726 0.984797 0.245957 -0.201432
C57   C     C_R   0.225876 0.500391 0.725312 0.096112
C58   C     C_R   0.774108 0.500755 0.274558 0.096201
C59   C     C_R   0.725785 0.000576 0.725396 0.095361
C60   C     C_R   0.274147 0.000739 0.274452 0.095939
C61   C     C_R   0.499961 0.414893 0.499902 0.785379
C62   C     C_R   0.999961 0.914893 0.499914 0.789835
C63   C     C_R   0.499799 0.498597 0.617278 0.851237
C64   C     C_R   0.500199 0.498533 0.382741 0.851018
C65   C     C_R   0.999799 0.998598 0.617278 0.851005
C66   C     C_R   0.000202 0.001383 0.382725 0.851349
C67   C     C_R   0.500036 0.585095 0.500068 0.786485
C68   C     C_R   0.000039 0.085091 0.500079 0.781862
C69   C     C_R   0.000032 0.414867 0.500152 0.785488
C70   C     C_R   0.499999 0.914876 0.500118 0.785906
C71   C     C_R   0.085125 0.499377 0.585257 0.785665
C72   C     C_R   0.914867 0.499405 0.414735 0.785668
C73   C     C_R   0.585104 0.999377 0.585225 0.786026
C74   C     C_R   0.414877 0.999383 0.414751 0.785852
C75   C     C_R   0.999975 0.585172 0.499856 0.805691
C76   C     C_R   0.499976 0.085173 0.499855 0.805128
C77   C     C_R   0.460307 0.297280 0.466899 -0.141186
C78   C     C_R   0.539236 0.297413 0.531277 -0.141486
C79   C     C_R   0.960306 0.797278 0.466898 -0.140538
C80   C     C_R   0.039249 0.797410 0.531428 -0.141319
C81   C     C_R   0.000309 0.274170 0.500897 0.098607
C82   C     C_R   0.500089 0.774202 0.500590 0.097706
C83   C     C_R   0.460318 0.343126 0.466998 -0.175501
C84   C     C_R   0.539359 0.343253 0.531778 -0.175389
C85   C     C_R   0.960317 0.843124 0.466992 -0.172843
C86   C     C_R   0.039370 0.843250 0.531920 -0.176750
C87   C     C_R   0.499876 0.366514 0.499575 -0.031277
C88   C     C_R   0.999880 0.866513 0.499627 -0.032550
C89   C     C_R   0.499741 0.274387 0.498962 0.105080
C90   C     C_R   0.999747 0.774384 0.499032 0.104816
C91   C     C_R   0.005662 0.702858 0.450004 -0.005875
C92   C     C_R   0.993843 0.702625 0.548371 -0.006091
C93   C     C_R   0.505543 0.202853 0.449825 -0.005908
C94   C     C_R   0.493957 0.202639 0.548473 -0.006093
C95   C     C_R   0.005576 0.656920 0.450372 -0.220951
C96   C     C_R   0.994078 0.656703 0.548433 -0.220516
C97   C     C_R   0.505463 0.156914 0.450217 -0.221130
C98   C     C_R   0.494193 0.156715 0.548551 -0.220760
C99   C     C_R   0.999878 0.633573 0.499533 -0.062566
C100  C     C_R   0.499880 0.133576 0.499524 -0.062475
C101  C     C_R   0.999721 0.726018 0.499088 -0.014456
C102  C     C_R   0.499717 0.226022 0.499038 -0.014507
C103  C     C_R   0.462509 0.702640 0.444800 -0.166155
C104  C     C_R   0.537651 0.702613 0.556295 -0.165728
C105  C     C_R   0.962840 0.202493 0.482302 -0.166299
C106  C     C_R   0.037662 0.202722 0.519256 -0.165648
C107  C     C_R   0.462388 0.656771 0.444940 -0.179936
C108  C     C_R   0.537784 0.656735 0.555791 -0.180045
C109  C     C_R   0.962625 0.156622 0.481427 -0.181879
C110  C     C_R   0.037718 0.156846 0.519582 -0.179148
C111  C     C_R   0.500089 0.633458 0.500259 -0.029858
C112  C     C_R   0.000127 0.133445 0.500345 -0.027226
C113  C     C_R   0.013540 0.297511 0.461866 -0.165201
C114  C     C_R   0.987026 0.297206 0.539778 -0.164551
C115  C     C_R   0.514084 0.797314 0.566334 -0.165033
C116  C     C_R   0.486056 0.797481 0.434733 -0.165286
C117  C     C_R   0.500079 0.725821 0.500618 0.099222
C118  C     C_R   0.000287 0.225796 0.500898 0.099871
C119  C     C_R   0.000157 0.366519 0.500503 -0.029450
C120  C     C_R   0.499996 0.866545 0.500327 -0.033064
C121  C     C_R   0.013133 0.343377 0.461158 -0.174283
C122  C     C_R   0.987290 0.343088 0.540107 -0.174646
C123  C     C_R   0.513709 0.843196 0.566065 -0.175185
C124  C     C_R   0.486330 0.843345 0.434737 -0.175211
C125  C     C_2   0.529192 0.475476 0.745897 -0.149437
C126  C     C_2   0.470970 0.474907 0.254610 -0.149046
C127  C     C_2   0.029182 0.975468 0.745887 -0.148045
C128  C     C_2   0.970872 0.024547 0.254175 -0.151056
C129  C     C_2   0.498006 0.495517 0.681720 -0.314793
C130  C     C_2   0.502025 0.495309 0.318384 -0.314733
C131  C     C_2   0.998004 0.995522 0.681717 -0.314615
C132  C     C_2   0.002003 0.004425 0.318295 -0.311977
C133  C     C_2   0.524883 0.471119 0.808422 -0.144688
C134  C     C_2   0.475322 0.470519 0.192164 -0.145002
C135  C     C_2   0.024872 0.971113 0.808410 -0.144748
C136  C     C_2   0.975210 0.028913 0.191690 -0.155428
Cu1   Cu    Cu3+1 0.500000 0.544050 0.000000 0.953960
Cu2   Cu    Cu3+1 0.000000 0.044050 0.000000 0.951835
Cu3   Cu    Cu3+1 0.500000 0.455950 0.000000 1.005722
Cu4   Cu    Cu3+1 0.000000 0.955950 0.000000 1.006985
Cu5   Cu    Cu3+1 0.544050 0.500000 0.544060 0.954331
Cu6   Cu    Cu3+1 0.455950 0.500000 0.455940 0.954354
Cu7   Cu    Cu3+1 0.044050 0.000000 0.544060 0.954488
Cu8   Cu    Cu3+1 0.955950 0.000000 0.455940 0.954961
Cu9   Cu    Cu3+1 0.000010 0.500010 0.438990 0.974712
Cu10  Cu    Cu3+1 0.999990 0.500010 0.561010 0.974592
Cu11  Cu    Cu3+1 0.500010 0.000010 0.438990 0.975665
Cu12  Cu    Cu3+1 0.499990 0.000010 0.561010 0.975257
H1    H     H_    0.556949 0.459993 0.751243 0.166303
H2    H     H_    0.443252 0.459250 0.249520 0.166043
H3    H     H_    0.056934 0.959975 0.751227 0.166160
H4    H     H_    0.943157 0.040106 0.248871 0.164322
H5    H     H_    0.138970 0.526801 0.548642 0.157614
H6    H     H_    0.861135 0.526199 0.451518 0.157903
H7    H     H_    0.638888 0.029062 0.549921 0.156970
H8    H     H_    0.361142 0.027146 0.450923 0.157708
H9    H     H_    0.221338 0.473254 0.811830 0.134768
H10   H     H_    0.778520 0.474433 0.187802 0.134708
H11   H     H_    0.721212 0.971126 0.810513 0.135153
H12   H     H_    0.278621 0.973382 0.188342 0.134773
H13   H     H_    0.023641 0.280207 0.431179 0.132973
H14   H     H_    0.976949 0.279657 0.570557 0.132962
H15   H     H_    0.524781 0.779825 0.617559 0.134363
H16   H     H_    0.475397 0.780133 0.383597 0.134316
H17   H     H_    0.429637 0.279594 0.441801 0.135385
H18   H     H_    0.569864 0.279831 0.556250 0.135226
H19   H     H_    0.929631 0.779592 0.441741 0.135630
H20   H     H_    0.069882 0.779828 0.556464 0.135228
H21   H     H_    0.429432 0.360190 0.441915 0.155937
H22   H     H_    0.570299 0.360417 0.557097 0.155983
H23   H     H_    0.929425 0.860188 0.441848 0.156473
H24   H     H_    0.070316 0.860413 0.557297 0.155640
H25   H     H_    0.010128 0.639418 0.412362 0.162129
H26   H     H_    0.989584 0.639039 0.586628 0.162380
H27   H     H_    0.509925 0.139406 0.412102 0.162149
H28   H     H_    0.489792 0.139060 0.586863 0.162377
H29   H     H_    0.023345 0.360711 0.430414 0.154141
H30   H     H_    0.977016 0.360203 0.570678 0.153876
H31   H     H_    0.524559 0.860384 0.617417 0.159833
H32   H     H_    0.475455 0.860637 0.383271 0.159543
H33   H     H_    0.433126 0.720065 0.401651 0.133943
H34   H     H_    0.567033 0.720026 0.599542 0.134082
H35   H     H_    0.933611 0.219831 0.467540 0.133018
H36   H     H_    0.066937 0.220238 0.534152 0.133459
H37   H     H_    0.467931 0.506652 0.673280 0.155492
H38   H     H_    0.532094 0.506606 0.326703 0.155278
H39   H     H_    0.967934 0.006667 0.673281 0.154561
H40   H     H_    0.032050 0.993214 0.326712 0.155156
H41   H     H_    0.432951 0.639577 0.401379 0.153522
H42   H     H_    0.567214 0.639502 0.599216 0.153488
H43   H     H_    0.933288 0.139310 0.466662 0.151881
H44   H     H_    0.066992 0.139712 0.534137 0.152638
H45   H     H_    0.540547 0.443412 0.846709 0.174237
H46   H     H_    0.459630 0.442779 0.154170 0.173785
H47   H     H_    0.040526 0.943399 0.846686 0.173908
H48   H     H_    0.959649 0.056686 0.153532 0.163793
H49   H     H_    0.493273 0.532278 0.787769 0.154377
H50   H     H_    0.506908 0.531810 0.212112 0.154515
H51   H     H_    0.993281 0.032282 0.787778 0.154228
H52   H     H_    0.006631 0.967662 0.212120 0.159657
H53   H     H_    0.278562 0.435224 0.818010 0.135266
H54   H     H_    0.721231 0.435940 0.181316 0.135142
H55   H     H_    0.778389 0.934373 0.814566 0.135091
H56   H     H_    0.221238 0.935602 0.182230 0.134961
H57   H     H_    0.361352 0.564025 0.821090 0.156807
H58   H     H_    0.638794 0.563863 0.179289 0.156695
H59   H     H_    0.861288 0.065073 0.824285 0.157162
H60   H     H_    0.138847 0.064206 0.178229 0.157705
H61   H     H_    0.281263 0.564766 0.739780 0.132930
H62   H     H_    0.718906 0.564708 0.260623 0.133033
H63   H     H_    0.781222 0.065936 0.743163 0.132533
H64   H     H_    0.218947 0.065070 0.259432 0.132965
H65   H     H_    0.219055 0.527407 0.627388 0.132831
H66   H     H_    0.781054 0.526964 0.372712 0.132835
H67   H     H_    0.719000 0.029828 0.628825 0.132825
H68   H     H_    0.281056 0.027934 0.372022 0.132792
O1    O     O_R   0.435730 0.537200 0.935720 -0.589906
O2    O     O_R   0.564270 0.537200 0.064280 -0.589911
O3    O     O_R   0.935730 0.037200 0.935720 -0.592930
O4    O     O_R   0.064270 0.037200 0.064280 -0.588844
O5    O     O_R   0.064280 0.500010 0.512760 -0.589661
O6    O     O_R   0.935720 0.500010 0.487240 -0.589720
O7    O     O_R   0.564280 0.000010 0.512760 -0.587383
O8    O     O_R   0.435720 0.000010 0.487240 -0.587666
O9    O     O_R   0.064270 0.500010 0.615800 -0.571179
O10   O     O_R   0.935730 0.500010 0.384200 -0.571117
O11   O     O_R   0.564270 0.000010 0.615800 -0.572581
O12   O     O_R   0.435730 0.000010 0.384200 -0.572512
O13   O     O_R   0.000010 0.564280 0.448470 -0.588380
O14   O     O_R   0.999990 0.564280 0.551530 -0.588437
O15   O     O_R   0.500010 0.064280 0.448470 -0.588581
O16   O     O_R   0.499990 0.064280 0.551530 -0.588617
O17   O     O_R   0.435730 0.462800 0.935730 -0.574053
O18   O     O_R   0.564270 0.462800 0.064270 -0.574056
O19   O     O_R   0.935730 0.962800 0.935730 -0.572199
O20   O     O_R   0.064270 0.962800 0.064270 -0.575176
O21   O     O_R   0.500010 0.537200 0.910980 -0.588685
O22   O     O_R   0.499990 0.537200 0.089020 -0.588603
O23   O     O_R   0.000010 0.037200 0.910980 -0.588625
O24   O     O_R   0.999990 0.037200 0.089020 -0.583163
O25   O     O_R   0.500010 0.462800 0.910980 -0.570925
O26   O     O_R   0.499990 0.462800 0.089020 -0.571054
O27   O     O_R   0.000010 0.962800 0.910980 -0.570847
O28   O     O_R   0.999990 0.962800 0.089020 -0.576484
O29   O     O_R   0.537200 0.435730 0.537210 -0.591712
O30   O     O_R   0.462800 0.435730 0.462790 -0.591782
O31   O     O_R   0.037200 0.935730 0.537210 -0.592054
O32   O     O_R   0.962800 0.935730 0.462790 -0.587816
O33   O     O_R   0.537190 0.500000 0.626220 -0.579535
O34   O     O_R   0.462810 0.500000 0.373780 -0.579422
O35   O     O_R   0.037190 0.000000 0.626220 -0.577223
O36   O     O_R   0.962810 0.000000 0.373780 -0.576510
O37   O     O_R   0.462790 0.500000 0.551820 -0.584172
O38   O     O_R   0.537210 0.500000 0.448180 -0.584221
O39   O     O_R   0.962790 0.000000 0.551820 -0.586487
O40   O     O_R   0.037210 0.000000 0.448180 -0.586914
O41   O     O_R   0.537200 0.564270 0.537200 -0.587902
O42   O     O_R   0.462800 0.564270 0.462800 -0.587977
O43   O     O_R   0.037200 0.064270 0.537200 -0.587398
O44   O     O_R   0.962800 0.064270 0.462800 -0.591700
O45   O     O_R   0.000000 0.435740 0.448480 -0.583340
O46   O     O_R   0.000000 0.435740 0.551520 -0.583265
O47   O     O_R   0.500000 0.935740 0.448480 -0.583194
O48   O     O_R   0.500000 0.935740 0.551520 -0.583079
C137  C     C_1   0.136647 0.464411 0.741769 0.259396
N1    N     N_1   0.120021 0.449218 0.767881 -0.272007
C138  C     C_1   0.863113 0.465470 0.257799 0.259725
N2    N     N_1   0.879628 0.450601 0.231513 -0.272243
C139  C     C_1   0.636431 0.961772 0.739684 0.255336
N3    N     N_1   0.619704 0.945433 0.764803 -0.279050
C140  C     C_1   0.363254 0.964130 0.258799 0.256432
N4    N     N_1   0.379835 0.948701 0.233014 -0.278720
C141  C     C_1   0.011340 0.725618 0.398132 0.232921
N5    N     N_1   0.015889 0.743878 0.356611 -0.270066
C142  C     C_1   0.988127 0.725131 0.600086 0.232382
N6    N     N_1   0.983550 0.743186 0.641479 -0.270320
C143  C     C_1   0.511096 0.225605 0.397796 0.232326
N7    N     N_1   0.515543 0.243859 0.356151 -0.270433
C144  C     C_1   0.488362 0.225157 0.600321 0.232377
N8    N     N_1   0.483881 0.243223 0.641821 -0.270485
C145  C     C_1   0.363282 0.425312 0.915932 0.254114
N9    N     N_1   0.379882 0.395150 0.955169 -0.273886
C146  C     C_1   0.636508 0.426078 0.083231 0.253866
N10   N     N_1   0.619830 0.396129 0.043698 -0.274433
C147  C     C_1   0.863013 0.923860 0.911565 0.260957
N11   N     N_1   0.879488 0.892984 0.948925 -0.264206
C148  C     C_1   0.136543 0.925625 0.084361 0.254098
N12   N     N_1   0.119882 0.895470 0.045341 -0.274232

loop_
_geom_bond_atom_site_label_1
_geom_bond_atom_site_label_2
_ccdc_geom_bond_type
C43   C73   S    
C104  H34   S    
C71   O5    A    
C129  H37   S    
C89   C102  S    
C8    C136  D    
Cu5   O33   S    
C55   C59   A    
C14   C18   A    
C83   C87   A    
C142  N6    T    
C84   C87   A    
C69   O45   A    
C48   O28   A    
C66   O40   A    
C13   C145  S    
C132  H40   S    
Cu9   Cu10  S    
C62   O31   A    
C34   C58   A    
C70   O48   A    
Cu1   Cu3   S    
C77   C89   A    
C50   C54   A    
Cu6   O37   S    
Cu7   O35   S    
Cu6   O34   S    
Cu5   O38   S    
C6    H50   S    
C2    C18   S    
C135  H47   S    
C127  C135  S    
C82   C115  A    
C136  H48   S    
C84   H22   S    
C128  C136  S    
C106  C110  A    
C51   C139  S    
Cu10  O6    S    
C63   C129  S    
C95   C99   A    
C85   C88   A    
C52   C140  S    
Cu9   O5    S    
C94   C98   A    
Cu12  O8    S    
C61   O29   A    
C140  N4    T    
Cu1   O21   S    
C96   C99   A    
C74   O8    A    
C92   C96   A    
Cu1   O1    S    
C22   H58   S    
C35   C59   A    
C27   H63   S    
Cu6   O42   S    
C46   O26   A    
C21   H57   S    
Cu1   O22   S    
C75   O13   A    
Cu3   O26   S    
C9    C13   A    
C79   C90   A    
C80   C86   A    
C61   C87   S    
Cu11  Cu12  S    
C127  H3    S    
C94   C144  S    
C15   C19   A    
C52   C56   A    
Cu11  O15   S    
C2    O18   A    
C12   C16   A    
C70   C120  S    
Cu6   O30   S    
Cu1   O2    S    
C76   O16   A    
Cu4   O19   S    
C74   O12   A    
C144  N8    T    
Cu2   O24   S    
Cu12  O16   S    
C23   C27   A    
C6    C46   S    
C137  N1    T    
Cu10  O46   S    
C93   C143  S    
C120  C123  A    
C9    C29   A    
C23   H59   S    
C41   C71   S    
C3    O19   A    
C44   C52   A    
C55   H11   S    
Cu8   O36   S    
C6    C134  D    
C11   C31   A    
C72   O10   A    
C143  N7    T    
C106  C118  A    
C7    H51   S    
C71   O9    A    
C30   C58   S    
C108  H42   S    
Cu4   O20   S    
C103  C117  A    
Cu12  O11   S    
C11   C15   A    
C4    C20   S    
C91   C101  A    
Cu3   O25   S    
C128  C132  D    
C41   C49   A    
C105  C109  A    
C65   C131  S    
C4    O20   A    
C128  H4    S    
C64   O38   A    
C119  C121  A    
C78   C89   A    
C25   C29   A    
C70   O47   A    
Cu8   O39   S    
C66   O36   A    
C78   H18   S    
C115  C123  A    
C1    O1    A    
C73   O7    A    
C27   C31   A    
C37   H5    S    
C80   H20   S    
C91   C141  S    
Cu7   O43   S    
C123  H31   S    
C21   C25   A    
C10   C14   A    
C109  C112  A    
C1    O17   A    
C97   H27   S    
C73   O11   A    
C126  C130  D    
C53   C57   A    
C19   C23   A    
C34   C38   A    
C121  H29   S    
C51   C55   A    
C4    O4    A    
C61   O30   A    
C45   O25   A    
C5    C45   S    
C81   C118  S    
C69   C119  S    
C78   C84   A    
Cu5   O41   S    
C56   C60   A    
C39   H7    S    
Cu4   O28   S    
C7    C47   S    
C81   C114  A    
C75   O14   A    
C35   C39   A    
C8    C48   S    
C90   C101  S    
C7    C135  D    
C147  N11   T    
C34   H66   S    
C125  H1    S    
C54   H10   S    
C98   H28   S    
C10   C30   A    
Cu5   O29   S    
C148  N12   T    
C28   C32   A    
C62   O32   A    
C16   C20   A    
C46   O22   A    
C72   O6    A    
C3    C19   S    
C107  H41   S    
Cu3   O18   S    
C75   C99   S    
C141  N5    T    
C5    C133  D    
C113  C121  A    
Cu2   O23   S    
C26   H62   S    
C11   H55   S    
C105  H35   S    
C16   C148  S    
C44   C74   S    
C10   H54   S    
C32   C60   S    
C106  H36   S    
C67   O41   A    
C9    H53   S    
C92   C101  A    
C42   C50   A    
C64   O34   A    
C67   C111  S    
C53   H9    S    
C76   O15   A    
C29   C57   S    
Cu2   O3    S    
C26   C30   A    
C98   C100  A    
Cu7   O40   S    
Cu8   O32   S    
C12   C32   A    
Cu9   O45   S    
C86   H24   S    
C5    H49   S    
C47   O23   A    
C105  C118  A    
C8    H52   S    
C76   C100  S    
C38   H6    S    
Cu11  O47   S    
C25   H61   S    
C93   C97   A    
C134  H46   S    
C104  C108  A    
C36   C40   A    
Cu11  O7    S    
C68   O44   A    
C104  C117  A    
Cu10  O14   S    
C119  C122  A    
C31   C59   S    
C122  H30   S    
Cu9   O13   S    
C50   C138  S    
C33   C57   A    
C97   C100  A    
C116  C124  A    
C63   O33   A    
C18   C22   A    
C107  C111  A    
C116  H16   S    
C24   C28   A    
C64   C130  S    
Cu12  O48   S    
C36   C60   A    
C93   C102  A    
C68   O43   A    
C39   C43   A    
Cu11  O12   S    
C130  H38   S    
C38   C42   A    
C69   O46   A    
Cu2   Cu4   S    
Cu10  O9    S    
C49   C137  S    
C14   C146  S    
C28   H64   S    
C45   O21   A    
C103  H33   S    
Cu9   O10   S    
C48   O24   A    
C77   H17   S    
C125  C133  S    
C54   C58   A    
Cu2   O4    S    
C108  C111  A    
C13   C17   A    
C138  N2    T    
Cu4   O27   S    
C127  C131  D    
C65   O35   A    
C95   H25   S    
C82   C116  A    
C56   H12   S    
C115  H15   S    
Cu5   Cu6   S    
C36   H68   S    
C33   H65   S    
C47   O27   A    
C66   C132  S    
C126  H2    S    
C43   C51   A    
C145  N9    T    
C63   O37   A    
C62   C88   S    
C109  H43   S    
C49   C53   A    
C83   H21   S    
C114  C122  A    
C110  H44   S    
C79   C85   A    
C24   H60   S    
C33   C37   A    
C15   C147  S    
C86   C88   A    
C12   H56   S    
C37   C41   A    
C65   O39   A    
Cu8   O44   S    
C110  C112  A    
C124  H32   S    
C67   O42   A    
C114  H14   S    
C120  C124  A    
C96   H26   S    
C113  H13   S    
C85   H23   S    
C125  C129  D    
C40   C44   A    
Cu7   O31   S    
C92   C142  S    
C1    C17   S    
C126  C134  S    
C91   C95   A    
C3    O3    A    
C22   C26   A    
C81   C113  A    
C146  N10   T    
C2    O2    A    
C133  H45   S    
C77   C83   A    
C40   H8    S    
C103  C107  A    
C82   C117  S    
C79   H19   S    
C42   C72   S    
C139  N3    T    
C35   H67   S    
C80   C90   A    
C20   C24   A    
C68   C112  S    
Cu3   O17   S    
Cu7   Cu8   S    
C94   C102  A    
C131  H39   S    
C17   C21   A    
