data_mof_unit_65461.cif
_audit_creation_date              2012-12-10T17:17:53-0500
_audit_creation_method            fapswitch 2.2
_symmetry_space_group_name_H-M    P1
_symmetry_Int_Tables_number       1
_space_group_crystal_system       orthorhombic
_cell_length_a                    21.746661
_cell_length_b                    30.630588
_cell_length_c                    30.795766
_cell_angle_alpha                 90.0
_cell_angle_beta                  90.0
_cell_angle_gamma                 90.0
_cell_volume                      20513.4604923

loop_
_atom_site_label
_atom_site_type_symbol
_atom_type_description
_atom_site_fract_x
_atom_site_fract_y
_atom_site_fract_z
_atom_type_partial_charge
C1    C     C_R   0.251437 0.559488 0.059301 0.768316
C2    C     C_R   0.748562 0.440512 0.059301 0.768315
C3    C     C_R   0.251437 0.440512 0.940699 0.768316
C4    C     C_R   0.748562 0.559487 0.940699 0.768316
C5    C     C_R   0.751438 0.059488 0.059301 0.768316
C6    C     C_R   0.248562 0.940512 0.059301 0.768315
C7    C     C_R   0.751437 0.940512 0.940699 0.768316
C8    C     C_R   0.248562 0.059488 0.940699 0.768316
C9    C     C_R   0.751438 0.559488 0.559301 0.768316
C10   C     C_R   0.248562 0.440512 0.559301 0.768315
C11   C     C_R   0.751438 0.440512 0.440699 0.768316
C12   C     C_R   0.248562 0.559488 0.440699 0.768316
C13   C     C_R   0.251437 0.059488 0.559301 0.768316
C14   C     C_R   0.748562 0.940512 0.559301 0.768315
C15   C     C_R   0.251437 0.940512 0.440699 0.768316
C16   C     C_R   0.748562 0.059488 0.440699 0.768316
C17   C     C_R   0.250210 0.657940 0.156110 -0.146628
C18   C     C_R   0.749790 0.342060 0.156110 -0.146628
C19   C     C_R   0.250210 0.342060 0.843890 -0.146628
C20   C     C_R   0.749790 0.657940 0.843890 -0.146628
C21   C     C_R   0.750210 0.157940 0.156110 -0.146628
C22   C     C_R   0.249790 0.842060 0.156110 -0.146628
C23   C     C_R   0.750210 0.842060 0.843890 -0.146628
C24   C     C_R   0.249790 0.157940 0.843890 -0.146628
C25   C     C_R   0.750210 0.657940 0.656110 -0.146628
C26   C     C_R   0.249790 0.342060 0.656110 -0.146628
C27   C     C_R   0.750210 0.342060 0.343890 -0.146628
C28   C     C_R   0.249790 0.657940 0.343890 -0.146628
C29   C     C_R   0.250210 0.157940 0.656110 -0.146628
C30   C     C_R   0.749790 0.842060 0.656110 -0.146628
C31   C     C_R   0.250210 0.842060 0.343890 -0.146628
C32   C     C_R   0.749790 0.157940 0.343890 -0.146628
C33   C     C_R   0.210016 0.660452 0.120335 -0.012311
C34   C     C_R   0.789984 0.339548 0.120335 -0.012311
C35   C     C_R   0.210016 0.339548 0.879665 -0.012311
C36   C     C_R   0.789984 0.660452 0.879665 -0.012311
C37   C     C_R   0.710016 0.160452 0.120335 -0.012311
C38   C     C_R   0.289984 0.839548 0.120335 -0.012311
C39   C     C_R   0.710016 0.839548 0.879665 -0.012311
C40   C     C_R   0.289984 0.160452 0.879665 -0.012311
C41   C     C_R   0.710016 0.660452 0.620335 -0.012311
C42   C     C_R   0.289984 0.339548 0.620335 -0.012311
C43   C     C_R   0.710016 0.339548 0.379665 -0.012311
C44   C     C_R   0.289984 0.660452 0.379665 -0.012311
C45   C     C_R   0.210016 0.160452 0.620335 -0.012311
C46   C     C_R   0.789984 0.839548 0.620335 -0.012311
C47   C     C_R   0.210016 0.839548 0.379665 -0.012311
C48   C     C_R   0.789984 0.160452 0.379665 -0.012311
C49   C     C_R   0.212053 0.628100 0.088688 -0.252558
C50   C     C_R   0.787947 0.371900 0.088688 -0.252558
C51   C     C_R   0.212053 0.371900 0.911312 -0.252558
C52   C     C_R   0.787947 0.628100 0.911312 -0.252558
C53   C     C_R   0.712053 0.128100 0.088688 -0.252558
C54   C     C_R   0.287947 0.871900 0.088688 -0.252558
C55   C     C_R   0.712053 0.871900 0.911312 -0.252558
C56   C     C_R   0.287947 0.128100 0.911312 -0.252558
C57   C     C_R   0.712053 0.628100 0.588688 -0.252558
C58   C     C_R   0.287947 0.371900 0.588688 -0.252558
C59   C     C_R   0.712053 0.371900 0.411312 -0.252558
C60   C     C_R   0.287947 0.628100 0.411312 -0.252558
C61   C     C_R   0.212053 0.128100 0.588688 -0.252558
C62   C     C_R   0.787947 0.871900 0.588688 -0.252558
C63   C     C_R   0.212053 0.871900 0.411312 -0.252558
C64   C     C_R   0.787947 0.128100 0.411312 -0.252558
C65   C     C_R   0.253430 0.593276 0.092354 -0.130271
C66   C     C_R   0.746570 0.406724 0.092354 -0.130271
C67   C     C_R   0.253430 0.406724 0.907646 -0.130271
C68   C     C_R   0.746570 0.593276 0.907646 -0.130271
C69   C     C_R   0.753430 0.093276 0.092354 -0.130271
C70   C     C_R   0.246570 0.906724 0.092354 -0.130271
C71   C     C_R   0.753430 0.906724 0.907646 -0.130271
C72   C     C_R   0.246570 0.093276 0.907646 -0.130271
C73   C     C_R   0.753430 0.593276 0.592354 -0.130271
C74   C     C_R   0.246570 0.406724 0.592354 -0.130271
C75   C     C_R   0.753430 0.406724 0.407646 -0.130271
C76   C     C_R   0.246570 0.593276 0.407646 -0.130271
C77   C     C_R   0.253430 0.093276 0.592354 -0.130271
C78   C     C_R   0.746570 0.906724 0.592354 -0.130271
C79   C     C_R   0.253430 0.906724 0.407646 -0.130271
C80   C     C_R   0.746570 0.093276 0.407646 -0.130271
C81   C     C_R   0.467990 0.460363 0.000376 -0.153939
C82   C     C_R   0.532010 0.539637 0.000376 -0.153939
C83   C     C_R   0.467990 0.539637 0.999623 -0.153939
C84   C     C_R   0.532010 0.460363 0.999623 -0.153939
C85   C     C_R   0.967990 0.960363 0.000376 -0.153939
C86   C     C_R   0.032010 0.039637 0.000376 -0.153939
C87   C     C_R   0.967990 0.039637 0.999623 -0.153939
C88   C     C_R   0.032010 0.960363 0.999623 -0.153939
C89   C     C_R   0.967990 0.460363 0.500377 -0.153939
C90   C     C_R   0.032010 0.539637 0.500377 -0.153939
C91   C     C_R   0.967990 0.539637 0.499623 -0.153939
C92   C     C_R   0.032010 0.460363 0.499623 -0.153939
C93   C     C_R   0.467990 0.960363 0.500377 -0.153939
C94   C     C_R   0.532010 0.039637 0.500377 -0.153939
C95   C     C_R   0.467990 0.039637 0.499623 -0.153939
C96   C     C_R   0.532010 0.960363 0.499623 -0.153939
C97   C     C_R   0.564133 0.500000 1.000000 -0.011997
C98   C     C_R   0.435867 0.500000 0.000000 -0.011997
C99   C     C_R   0.064132 0.000000 1.000000 -0.011997
C100  C     C_R   0.935867 0.000000 0.000000 -0.011997
C101  C     C_R   0.064132 0.500000 0.500000 -0.011997
C102  C     C_R   0.935867 0.500000 0.500000 -0.011997
C103  C     C_R   0.564133 0.000000 0.500000 -0.011997
C104  C     C_R   0.435867 0.000000 0.500000 -0.011997
C105  C     C_R   0.250000 0.309020 0.690086 0.800470
C106  C     C_R   0.750000 0.690980 0.690086 0.800470
C107  C     C_R   0.250000 0.690980 0.309914 0.800470
C108  C     C_R   0.750000 0.309020 0.309914 0.800470
C109  C     C_R   0.749999 0.809020 0.690086 0.800470
C110  C     C_R   0.250000 0.190980 0.690086 0.800470
C111  C     C_R   0.750000 0.190980 0.309914 0.800470
C112  C     C_R   0.250000 0.809020 0.309914 0.800470
C113  C     C_R   0.750000 0.309020 0.190086 0.800470
C114  C     C_R   0.250000 0.690980 0.190086 0.800470
C115  C     C_R   0.749999 0.690980 0.809914 0.800470
C116  C     C_R   0.250000 0.309020 0.809914 0.800470
C117  C     C_R   0.249999 0.809020 0.190086 0.800470
C118  C     C_R   0.750000 0.190980 0.190086 0.800470
C119  C     C_R   0.249999 0.190980 0.809914 0.800470
C120  C     C_R   0.750000 0.809020 0.809914 0.800470
C121  C     C_R   0.131354 0.500000 1.000000 0.788675
C122  C     C_R   0.868646 0.500000 0.000000 0.788675
C123  C     C_R   0.631354 0.000000 1.000000 0.788675
C124  C     C_R   0.368646 0.000000 0.000000 0.788675
C125  C     C_R   0.631354 0.500000 0.500000 0.788675
C126  C     C_R   0.368646 0.500000 0.500000 0.788675
C127  C     C_R   0.131354 0.000000 0.500000 0.788675
C128  C     C_R   0.868646 0.000000 0.500000 0.788675
C129  C     C_R   0.368954 0.500000 0.000000 0.753406
C130  C     C_R   0.631046 0.500000 1.000000 0.753406
C131  C     C_R   0.868954 0.000000 0.000000 0.753406
C132  C     C_R   0.131046 0.000000 1.000000 0.753406
C133  C     C_R   0.868954 0.500000 0.500000 0.753406
C134  C     C_R   0.131046 0.500000 0.500000 0.753406
C135  C     C_R   0.368954 0.000000 0.500000 0.753406
C136  C     C_R   0.631046 0.000000 0.500000 0.753406
C137  C     C_R   0.062998 0.419293 0.992534 -0.139553
C138  C     C_R   0.937002 0.580707 0.992534 -0.139553
C139  C     C_R   0.062998 0.580707 0.007466 -0.139552
C140  C     C_R   0.937002 0.419293 0.007466 -0.139553
C141  C     C_R   0.562998 0.919293 0.992534 -0.139553
C142  C     C_R   0.437002 0.080707 0.992534 -0.139553
C143  C     C_R   0.562998 0.080707 0.007466 -0.139552
C144  C     C_R   0.437002 0.919293 0.007466 -0.139553
C145  C     C_R   0.562998 0.419293 0.492534 -0.139553
C146  C     C_R   0.437002 0.580707 0.492534 -0.139553
C147  C     C_R   0.562998 0.580707 0.507466 -0.139552
C148  C     C_R   0.437002 0.419293 0.507466 -0.139553
C149  C     C_R   0.062998 0.919293 0.492534 -0.139553
C150  C     C_R   0.937002 0.080707 0.492534 -0.139553
C151  C     C_R   0.062998 0.080707 0.507466 -0.139552
C152  C     C_R   0.937002 0.919293 0.507466 -0.139553
C153  C     C_R   0.031308 0.379913 0.995656 -0.128298
C154  C     C_R   0.968692 0.620087 0.995656 -0.128297
C155  C     C_R   0.031308 0.620087 0.004344 -0.128297
C156  C     C_R   0.968692 0.379913 0.004344 -0.128298
C157  C     C_R   0.531308 0.879913 0.995656 -0.128298
C158  C     C_R   0.468692 0.120087 0.995656 -0.128297
C159  C     C_R   0.531308 0.120087 0.004344 -0.128297
C160  C     C_R   0.468692 0.879913 0.004344 -0.128298
C161  C     C_R   0.531308 0.379913 0.495656 -0.128298
C162  C     C_R   0.468692 0.620087 0.495656 -0.128297
C163  C     C_R   0.531308 0.620087 0.504344 -0.128297
C164  C     C_R   0.468692 0.379913 0.504344 -0.128298
C165  C     C_R   0.031308 0.879913 0.495656 -0.128298
C166  C     C_R   0.968692 0.120087 0.495656 -0.128297
C167  C     C_R   0.031308 0.120087 0.504344 -0.128297
C168  C     C_R   0.968692 0.879913 0.504344 -0.128298
C169  C     C_R   0.967714 0.459788 0.001911 0.074764
C170  C     C_R   0.032286 0.540211 0.001911 0.074764
C171  C     C_R   0.967714 0.540211 0.998089 0.074764
C172  C     C_R   0.032286 0.459788 0.998089 0.074764
C173  C     C_R   0.467714 0.959789 0.001911 0.074764
C174  C     C_R   0.532286 0.040211 0.001911 0.074764
C175  C     C_R   0.467714 0.040211 0.998089 0.074764
C176  C     C_R   0.532286 0.959789 0.998089 0.074764
C177  C     C_R   0.467714 0.459788 0.501911 0.074764
C178  C     C_R   0.532286 0.540211 0.501911 0.074764
C179  C     C_R   0.467714 0.540211 0.498089 0.074764
C180  C     C_R   0.532286 0.459788 0.498089 0.074764
C181  C     C_R   0.967714 0.959789 0.501911 0.074764
C182  C     C_R   0.032286 0.040211 0.501911 0.074764
C183  C     C_R   0.967714 0.040211 0.498089 0.074764
C184  C     C_R   0.032286 0.959789 0.498089 0.074764
C185  C     C_R   0.935600 0.500000 0.000000 -0.183288
C186  C     C_R   0.064400 0.500000 1.000000 -0.183288
C187  C     C_R   0.435600 0.000000 0.000000 -0.183288
C188  C     C_R   0.564400 0.000000 1.000000 -0.183288
C189  C     C_R   0.435600 0.500000 0.500000 -0.183288
C190  C     C_R   0.564400 0.500000 0.500000 -0.183288
C191  C     C_R   0.935600 0.000000 0.500000 -0.183288
C192  C     C_R   0.064400 0.000000 0.500000 -0.183288
C193  C     C_R   0.295101 0.591334 0.127619 0.421284
C194  C     C_R   0.704899 0.408666 0.127619 0.421283
C195  C     C_R   0.295101 0.408666 0.872381 0.421284
C196  C     C_R   0.704899 0.591334 0.872381 0.421284
C197  C     C_R   0.795101 0.091334 0.127619 0.421284
C198  C     C_R   0.204899 0.908666 0.127619 0.421283
C199  C     C_R   0.795101 0.908666 0.872381 0.421284
C200  C     C_R   0.204899 0.091334 0.872381 0.421284
C201  C     C_R   0.795101 0.591334 0.627619 0.421284
C202  C     C_R   0.204899 0.408666 0.627619 0.421283
C203  C     C_R   0.795101 0.408666 0.372381 0.421284
C204  C     C_R   0.204899 0.591334 0.372381 0.421284
C205  C     C_R   0.295101 0.091334 0.627619 0.421284
C206  C     C_R   0.704899 0.908666 0.627619 0.421283
C207  C     C_R   0.295101 0.908666 0.372381 0.421284
C208  C     C_R   0.704899 0.091334 0.372381 0.421284
C209  C     C_R   0.292420 0.623590 0.159317 -0.158717
C210  C     C_R   0.707580 0.376410 0.159317 -0.158717
C211  C     C_R   0.292420 0.376410 0.840682 -0.158717
C212  C     C_R   0.707580 0.623590 0.840682 -0.158717
C213  C     C_R   0.792420 0.123590 0.159317 -0.158717
C214  C     C_R   0.207580 0.876410 0.159317 -0.158717
C215  C     C_R   0.792420 0.876410 0.840682 -0.158717
C216  C     C_R   0.207580 0.123590 0.840682 -0.158717
C217  C     C_R   0.792420 0.623590 0.659318 -0.158717
C218  C     C_R   0.207580 0.376410 0.659317 -0.158717
C219  C     C_R   0.792420 0.376410 0.340682 -0.158717
C220  C     C_R   0.207580 0.623590 0.340682 -0.158717
C221  C     C_R   0.292420 0.123590 0.659318 -0.158717
C222  C     C_R   0.707580 0.876410 0.659317 -0.158717
C223  C     C_R   0.292420 0.876410 0.340682 -0.158717
C224  C     C_R   0.707580 0.123590 0.340682 -0.158717
Cu1   Cu    Cu3+1 0.250020 0.530890 0.969080 0.985991
Cu2   Cu    Cu3+1 0.749980 0.469110 0.969080 0.985991
Cu3   Cu    Cu3+1 0.250020 0.469110 0.030920 0.985991
Cu4   Cu    Cu3+1 0.749980 0.530890 0.030920 0.985991
Cu5   Cu    Cu3+1 0.750020 0.030890 0.969080 0.985991
Cu6   Cu    Cu3+1 0.249980 0.969110 0.969080 0.985991
Cu7   Cu    Cu3+1 0.750020 0.969110 0.030920 0.985991
Cu8   Cu    Cu3+1 0.249980 0.030890 0.030920 0.985991
Cu9   Cu    Cu3+1 0.750020 0.530890 0.469080 0.985991
Cu10  Cu    Cu3+1 0.249980 0.469110 0.469080 0.985991
Cu11  Cu    Cu3+1 0.750020 0.469110 0.530920 0.985991
Cu12  Cu    Cu3+1 0.249980 0.530890 0.530920 0.985991
Cu13  Cu    Cu3+1 0.250020 0.030890 0.469080 0.985991
Cu14  Cu    Cu3+1 0.749980 0.969110 0.469080 0.985991
Cu15  Cu    Cu3+1 0.250020 0.969110 0.530920 0.985991
Cu16  Cu    Cu3+1 0.749980 0.030890 0.530920 0.985991
Cu17  Cu    Cu3+1 0.311820 0.250000 0.750000 1.010231
Cu18  Cu    Cu3+1 0.688180 0.750000 0.750000 1.010231
Cu19  Cu    Cu3+1 0.311820 0.750000 0.250000 1.010231
Cu20  Cu    Cu3+1 0.688180 0.250000 0.250000 1.010231
Cu21  Cu    Cu3+1 0.811820 0.750000 0.750000 1.010231
Cu22  Cu    Cu3+1 0.188180 0.250000 0.750000 1.010231
Cu23  Cu    Cu3+1 0.811820 0.250000 0.250000 1.010231
Cu24  Cu    Cu3+1 0.188180 0.750000 0.250000 1.010231
H1    H     H_    0.055641 0.650696 0.008065 0.143893
H2    H     H_    0.944359 0.349304 0.008065 0.143893
H3    H     H_    0.055641 0.349304 0.991935 0.143893
H4    H     H_    0.944359 0.650696 0.991935 0.143893
H5    H     H_    0.555641 0.150696 0.008065 0.143893
H6    H     H_    0.444359 0.849304 0.008065 0.143893
H7    H     H_    0.555641 0.849304 0.991935 0.143893
H8    H     H_    0.444359 0.150696 0.991935 0.143893
H9    H     H_    0.555641 0.650696 0.508065 0.143893
H10   H     H_    0.444359 0.349304 0.508065 0.143893
H11   H     H_    0.555641 0.349304 0.491935 0.143893
H12   H     H_    0.444359 0.650696 0.491935 0.143893
H13   H     H_    0.055641 0.150696 0.508065 0.143893
H14   H     H_    0.944359 0.849304 0.508065 0.143893
H15   H     H_    0.055641 0.849304 0.491935 0.143893
H16   H     H_    0.944359 0.150696 0.491935 0.143893
H17   H     H_    0.111522 0.417374 0.985386 0.140773
H18   H     H_    0.888478 0.582626 0.985386 0.140772
H19   H     H_    0.111522 0.582626 0.014614 0.140772
H20   H     H_    0.888478 0.417374 0.014614 0.140773
H21   H     H_    0.611522 0.917374 0.985386 0.140773
H22   H     H_    0.388478 0.082626 0.985386 0.140772
H23   H     H_    0.611522 0.082626 0.014614 0.140772
H24   H     H_    0.388478 0.917374 0.014614 0.140773
H25   H     H_    0.611522 0.417374 0.485386 0.140773
H26   H     H_    0.388478 0.582626 0.485386 0.140772
H27   H     H_    0.611522 0.582626 0.514614 0.140772
H28   H     H_    0.388478 0.417374 0.514614 0.140773
H29   H     H_    0.111522 0.917374 0.485386 0.140773
H30   H     H_    0.888478 0.082626 0.485386 0.140772
H31   H     H_    0.111522 0.082626 0.514614 0.140772
H32   H     H_    0.888478 0.917374 0.514614 0.140773
H33   H     H_    0.323864 0.621923 0.186591 0.174886
H34   H     H_    0.676136 0.378077 0.186591 0.174886
H35   H     H_    0.323864 0.378077 0.813409 0.174886
H36   H     H_    0.676136 0.621923 0.813409 0.174886
H37   H     H_    0.823864 0.121923 0.186591 0.174886
H38   H     H_    0.176136 0.878077 0.186591 0.174886
H39   H     H_    0.823864 0.878077 0.813409 0.174886
H40   H     H_    0.176136 0.121923 0.813409 0.174886
H41   H     H_    0.823864 0.621923 0.686591 0.174886
H42   H     H_    0.176136 0.378077 0.686591 0.174886
H43   H     H_    0.823864 0.378077 0.313409 0.174886
H44   H     H_    0.176136 0.621923 0.313409 0.174886
H45   H     H_    0.323864 0.121923 0.686591 0.174886
H46   H     H_    0.676136 0.878077 0.686591 0.174886
H47   H     H_    0.323864 0.878077 0.313409 0.174886
H48   H     H_    0.676136 0.121923 0.313409 0.174886
H49   H     H_    0.180807 0.629764 0.061273 0.149440
H50   H     H_    0.819193 0.370236 0.061273 0.149440
H51   H     H_    0.180807 0.370236 0.938727 0.149440
H52   H     H_    0.819193 0.629764 0.938727 0.149440
H53   H     H_    0.680807 0.129764 0.061273 0.149440
H54   H     H_    0.319193 0.870236 0.061273 0.149440
H55   H     H_    0.680807 0.870236 0.938727 0.149440
H56   H     H_    0.319193 0.129764 0.938727 0.149440
H57   H     H_    0.680807 0.629764 0.561273 0.149440
H58   H     H_    0.319193 0.370236 0.561273 0.149440
H59   H     H_    0.680807 0.370236 0.438727 0.149440
H60   H     H_    0.319193 0.629764 0.438727 0.149440
H61   H     H_    0.180807 0.129764 0.561273 0.149440
H62   H     H_    0.819193 0.870236 0.561273 0.149440
H63   H     H_    0.180807 0.870236 0.438727 0.149440
H64   H     H_    0.819193 0.129764 0.438727 0.149440
H65   H     H_    0.443524 0.429551 0.000493 0.145878
H66   H     H_    0.556476 0.570449 0.000493 0.145878
H67   H     H_    0.443524 0.570449 0.999507 0.145878
H68   H     H_    0.556476 0.429551 0.999507 0.145878
H69   H     H_    0.943524 0.929551 0.000493 0.145878
H70   H     H_    0.056476 0.070449 0.000493 0.145878
H71   H     H_    0.943524 0.070449 0.999507 0.145878
H72   H     H_    0.056476 0.929551 0.999507 0.145878
H73   H     H_    0.943524 0.429551 0.500493 0.145878
H74   H     H_    0.056476 0.570449 0.500493 0.145878
H75   H     H_    0.943524 0.570449 0.499507 0.145878
H76   H     H_    0.056476 0.429551 0.499507 0.145878
H77   H     H_    0.443524 0.929551 0.500493 0.145878
H78   H     H_    0.556476 0.070449 0.500493 0.145878
H79   H     H_    0.443524 0.070449 0.499507 0.145878
H80   H     H_    0.556476 0.929551 0.499507 0.145878
O1    O     O_R   0.250030 0.571170 0.018980 -0.588725
O2    O     O_R   0.749970 0.428830 0.018980 -0.588725
O3    O     O_R   0.250030 0.428830 0.981020 -0.588725
O4    O     O_R   0.749970 0.571170 0.981020 -0.588725
O5    O     O_R   0.750030 0.071170 0.018980 -0.588725
O6    O     O_R   0.249970 0.928830 0.018980 -0.588725
O7    O     O_R   0.750030 0.928830 0.981020 -0.588725
O8    O     O_R   0.249970 0.071170 0.981020 -0.588725
O9    O     O_R   0.750030 0.571170 0.518980 -0.588725
O10   O     O_R   0.249970 0.428830 0.518980 -0.588725
O11   O     O_R   0.750030 0.428830 0.481020 -0.588725
O12   O     O_R   0.249970 0.571170 0.481020 -0.588725
O13   O     O_R   0.250030 0.071170 0.518980 -0.588725
O14   O     O_R   0.749970 0.928830 0.518980 -0.588725
O15   O     O_R   0.250030 0.928830 0.481020 -0.588725
O16   O     O_R   0.749970 0.071170 0.481020 -0.588725
O17   O     O_R   0.250030 0.519000 0.071200 -0.564678
O18   O     O_R   0.749970 0.481000 0.071200 -0.564677
O19   O     O_R   0.250030 0.481000 0.928800 -0.564677
O20   O     O_R   0.749970 0.519000 0.928800 -0.564678
O21   O     O_R   0.750030 0.019000 0.071200 -0.564678
O22   O     O_R   0.249970 0.981000 0.071200 -0.564677
O23   O     O_R   0.750030 0.981000 0.928800 -0.564677
O24   O     O_R   0.249970 0.019000 0.928800 -0.564678
O25   O     O_R   0.750030 0.519000 0.571200 -0.564678
O26   O     O_R   0.249970 0.481000 0.571200 -0.564677
O27   O     O_R   0.750030 0.481000 0.428800 -0.564677
O28   O     O_R   0.249970 0.519000 0.428800 -0.564678
O29   O     O_R   0.250030 0.019000 0.571200 -0.564678
O30   O     O_R   0.749970 0.981000 0.571200 -0.564677
O31   O     O_R   0.250030 0.981000 0.428800 -0.564677
O32   O     O_R   0.749970 0.019000 0.428800 -0.564678
O33   O     O_R   0.159850 0.526090 0.973890 -0.581839
O34   O     O_R   0.840150 0.473910 0.973890 -0.581839
O35   O     O_R   0.159850 0.473910 0.026110 -0.581839
O36   O     O_R   0.840150 0.526090 0.026110 -0.581840
O37   O     O_R   0.659850 0.026090 0.973890 -0.581839
O38   O     O_R   0.340150 0.973910 0.973890 -0.581839
O39   O     O_R   0.659850 0.973910 0.026110 -0.581839
O40   O     O_R   0.340150 0.026090 0.026110 -0.581840
O41   O     O_R   0.659850 0.526090 0.473890 -0.581839
O42   O     O_R   0.340150 0.473910 0.473890 -0.581839
O43   O     O_R   0.659850 0.473910 0.526110 -0.581839
O44   O     O_R   0.340150 0.526090 0.526110 -0.581840
O45   O     O_R   0.159850 0.026090 0.473890 -0.581839
O46   O     O_R   0.840150 0.973910 0.473890 -0.581839
O47   O     O_R   0.159850 0.973910 0.526110 -0.581839
O48   O     O_R   0.840150 0.026090 0.526110 -0.581840
O49   O     O_R   0.340200 0.526080 0.973890 -0.581396
O50   O     O_R   0.659800 0.473920 0.973890 -0.581396
O51   O     O_R   0.340200 0.473920 0.026110 -0.581396
O52   O     O_R   0.659800 0.526080 0.026110 -0.581396
O53   O     O_R   0.840200 0.026080 0.973890 -0.581396
O54   O     O_R   0.159800 0.973920 0.973890 -0.581396
O55   O     O_R   0.840200 0.973920 0.026110 -0.581396
O56   O     O_R   0.159800 0.026080 0.026110 -0.581396
O57   O     O_R   0.840200 0.526080 0.473890 -0.581396
O58   O     O_R   0.159800 0.473920 0.473890 -0.581396
O59   O     O_R   0.840200 0.473920 0.526110 -0.581396
O60   O     O_R   0.159800 0.526080 0.526110 -0.581396
O61   O     O_R   0.340200 0.026080 0.473890 -0.581396
O62   O     O_R   0.659800 0.973920 0.473890 -0.581396
O63   O     O_R   0.340200 0.973920 0.526110 -0.581396
O64   O     O_R   0.659800 0.026080 0.526110 -0.581396
O65   O     O_R   0.302180 0.295120 0.704840 -0.576242
O66   O     O_R   0.697820 0.704880 0.704840 -0.576242
O67   O     O_R   0.302180 0.704880 0.295160 -0.576242
O68   O     O_R   0.697820 0.295120 0.295160 -0.576242
O69   O     O_R   0.802180 0.795120 0.704840 -0.576242
O70   O     O_R   0.197820 0.204880 0.704840 -0.576242
O71   O     O_R   0.802180 0.204880 0.295160 -0.576242
O72   O     O_R   0.197820 0.795120 0.295160 -0.576242
O73   O     O_R   0.802180 0.295120 0.204840 -0.576242
O74   O     O_R   0.197820 0.704880 0.204840 -0.576242
O75   O     O_R   0.802180 0.704880 0.795160 -0.576242
O76   O     O_R   0.197820 0.295120 0.795160 -0.576242
O77   O     O_R   0.302180 0.795120 0.204840 -0.576242
O78   O     O_R   0.697820 0.204880 0.204840 -0.576242
O79   O     O_R   0.302180 0.204880 0.795160 -0.576242
O80   O     O_R   0.697820 0.795120 0.795160 -0.576242
O81   O     O_R   0.197800 0.295110 0.704850 -0.579035
O82   O     O_R   0.802200 0.704890 0.704850 -0.579035
O83   O     O_R   0.197800 0.704890 0.295150 -0.579035
O84   O     O_R   0.802200 0.295110 0.295150 -0.579035
O85   O     O_R   0.697800 0.795110 0.704850 -0.579035
O86   O     O_R   0.302200 0.204890 0.704850 -0.579035
O87   O     O_R   0.697800 0.204890 0.295150 -0.579035
O88   O     O_R   0.302200 0.795110 0.295150 -0.579035
O89   O     O_R   0.697800 0.295110 0.204850 -0.579035
O90   O     O_R   0.302200 0.704890 0.204850 -0.579035
O91   O     O_R   0.697800 0.704890 0.795150 -0.579035
O92   O     O_R   0.302200 0.295110 0.795150 -0.579035
O93   O     O_R   0.197800 0.795110 0.204850 -0.579035
O94   O     O_R   0.802200 0.204890 0.204850 -0.579035
O95   O     O_R   0.197800 0.204890 0.795150 -0.579035
O96   O     O_R   0.802200 0.795110 0.795150 -0.579035
O97   O     O_3   0.339664 0.559504 0.132051 -0.710353
H81   H     H_    0.346944 0.545329 0.103658 0.325578
O98   O     O_3   0.660336 0.440496 0.132051 -0.710353
H82   H     H_    0.653056 0.454671 0.103658 0.325578
O99   O     O_3   0.339664 0.440496 0.867948 -0.710353
H83   H     H_    0.346944 0.454671 0.896342 0.325578
O100  O     O_3   0.660336 0.559504 0.867948 -0.710353
H84   H     H_    0.653056 0.545329 0.896342 0.325578
O101  O     O_3   0.839664 0.059504 0.132051 -0.710353
H85   H     H_    0.846944 0.045329 0.103658 0.325578
O102  O     O_3   0.160336 0.940496 0.132051 -0.710353
H86   H     H_    0.153056 0.954671 0.103658 0.325578
O103  O     O_3   0.839664 0.940496 0.867948 -0.710353
H87   H     H_    0.846944 0.954671 0.896342 0.325578
O104  O     O_3   0.160336 0.059504 0.867948 -0.710353
H88   H     H_    0.153056 0.045329 0.896342 0.325578
O105  O     O_3   0.839664 0.559504 0.632051 -0.710353
H89   H     H_    0.846944 0.545329 0.603658 0.325578
O106  O     O_3   0.160336 0.440496 0.632051 -0.710353
H90   H     H_    0.153056 0.454671 0.603658 0.325578
O107  O     O_3   0.839664 0.440496 0.367948 -0.710353
H91   H     H_    0.846944 0.454671 0.396342 0.325578
O108  O     O_3   0.160336 0.559504 0.367948 -0.710353
H92   H     H_    0.153056 0.545329 0.396342 0.325578
O109  O     O_3   0.339664 0.059504 0.632051 -0.710353
H93   H     H_    0.346944 0.045329 0.603658 0.325578
O110  O     O_3   0.660336 0.940496 0.632051 -0.710353
H94   H     H_    0.653056 0.954671 0.603658 0.325578
O111  O     O_3   0.339664 0.940496 0.367948 -0.710353
H95   H     H_    0.346944 0.954671 0.396342 0.325578
O112  O     O_3   0.660336 0.059504 0.367948 -0.710353
H96   H     H_    0.653056 0.045329 0.396342 0.325578
C225  C     C_1   0.167890 0.696477 0.114561 0.264663
N1    N     N_1   0.134200 0.725349 0.109906 -0.269906
C226  C     C_1   0.832110 0.303523 0.114561 0.264663
N2    N     N_1   0.865800 0.274651 0.109906 -0.269906
C227  C     C_1   0.167890 0.303523 0.885439 0.264663
N3    N     N_1   0.134200 0.274651 0.890094 -0.269906
C228  C     C_1   0.832110 0.696477 0.885439 0.264663
N4    N     N_1   0.865800 0.725349 0.890094 -0.269906
C229  C     C_1   0.667890 0.196476 0.114561 0.264663
N5    N     N_1   0.634200 0.225349 0.109906 -0.269906
C230  C     C_1   0.332110 0.803523 0.114561 0.264663
N6    N     N_1   0.365800 0.774651 0.109906 -0.269906
C231  C     C_1   0.667890 0.803523 0.885439 0.264663
N7    N     N_1   0.634200 0.774651 0.890094 -0.269906
C232  C     C_1   0.332110 0.196477 0.885439 0.264663
N8    N     N_1   0.365800 0.225349 0.890094 -0.269906
C233  C     C_1   0.667890 0.696477 0.614561 0.264663
N9    N     N_1   0.634200 0.725349 0.609906 -0.269906
C234  C     C_1   0.332110 0.303523 0.614561 0.264663
N10   N     N_1   0.365800 0.274651 0.609906 -0.269906
C235  C     C_1   0.667890 0.303523 0.385439 0.264663
N11   N     N_1   0.634200 0.274651 0.390094 -0.269906
C236  C     C_1   0.332110 0.696477 0.385439 0.264663
N12   N     N_1   0.365800 0.725349 0.390094 -0.269906
C237  C     C_1   0.167890 0.196476 0.614561 0.264663
N13   N     N_1   0.134200 0.225349 0.609906 -0.269906
C238  C     C_1   0.832110 0.803523 0.614561 0.264663
N14   N     N_1   0.865800 0.774651 0.609906 -0.269906
C239  C     C_1   0.167890 0.803523 0.385439 0.264663
N15   N     N_1   0.134200 0.774651 0.390094 -0.269906
C240  C     C_1   0.832110 0.196476 0.385439 0.264663
N16   N     N_1   0.865800 0.225349 0.390094 -0.269906

loop_
_geom_bond_atom_site_label_1
_geom_bond_atom_site_label_2
_ccdc_geom_bond_type
C226  N2    T    
C148  C177  A    
C127  O45   A    
C104  C135  S    
Cu17  O86   S    
C26   C218  A    
O97   H81   S    
O98   H82   S    
C53   C69   A    
C54   H54   S    
C30   C222  A    
C23   C215  A    
C231  N7    T    
C212  H36   S    
Cu6   O6    S    
C9    C73   S    
C46   C62   A    
C95   H79   S    
C18   C210  A    
C196  O100  S    
Cu24  O93   S    
Cu13  O13   S    
C157  H7    S    
Cu15  O29   S    
C22   C38   A    
Cu20  O89   S    
C110  O70   A    
C225  N1    T    
Cu8   O22   S    
C182  C183  A    
C9    O25   A    
C220  H44   S    
C56   C72   A    
C223  H47   S    
Cu21  O69   S    
C31   C112  S    
C165  H15   S    
C166  H16   S    
C144  C160  A    
C90   H74   S    
C1    O1    A    
Cu5   O23   S    
C162  H12   S    
C28   C220  A    
C122  O34   A    
C42   C58   A    
Cu10  Cu12  S    
C142  C158  A    
C26   C105  S    
Cu9   O41   S    
C32   C224  A    
C176  C188  A    
C107  O67   A    
Cu14  Cu16  S    
Cu18  Cu21  S    
Cu14  O62   S    
C171  C185  A    
C30   C109  S    
C105  O65   A    
C228  N4    T    
C127  O47   A    
Cu15  O47   S    
C25   C41   A    
C16   O16   A    
Cu1   O49   S    
C106  O82   A    
O103  H87   S    
C73   C201  A    
C28   C44   A    
C29   C45   A    
C16   C80   S    
C201  O105  S    
C142  H22   S    
C77   C205  A    
Cu23  O73   S    
C153  H3    S    
C8    O24   A    
Cu21  O75   S    
C222  H46   S    
Cu22  O76   S    
C137  C153  A    
C153  C156  A    
Cu6   Cu8   S    
C86   C99   A    
Cu15  O63   S    
C154  C155  A    
Cu14  O32   S    
C218  H42   S    
C141  C157  A    
Cu16  O64   S    
C157  C160  A    
C35   C51   A    
C158  C159  A    
Cu12  O60   S    
C211  H35   S    
C198  C214  A    
C115  O75   A    
C23   C120  S    
C151  C182  A    
C8    O8    A    
C113  O73   A    
Cu21  O82   S    
Cu8   O40   S    
C139  H19   S    
C138  C171  A    
C48   C240  S    
C35   C227  S    
Cu4   O52   S    
C142  C175  A    
Cu17  O79   S    
C2    O2    A    
Cu20  Cu23  S    
Cu18  O80   S    
C50   H50   S    
C19   C35   A    
C145  C161  A    
C27   C108  S    
C79   C207  A    
C98   C129  S    
Cu12  O12   S    
C215  H39   S    
C129  O49   A    
C216  H40   S    
C119  O79   A    
O107  H91   S    
C158  H8    S    
C84   H68   S    
C88   C99   A    
C86   H70   S    
C85   H69   S    
C196  C212  A    
Cu19  Cu24  S    
C96   H80   S    
Cu22  O70   S    
C152  C181  A    
C33   C49   A    
C118  O94   A    
C55   C71   A    
C88   H72   S    
Cu6   O54   S    
C36   C228  S    
Cu10  O10   S    
C207  C223  A    
C140  C169  A    
C32   C111  S    
C130  O52   A    
C194  O98   S    
C145  H25   S    
Cu2   O34   S    
C132  O54   A    
C34   C226  S    
C55   H55   S    
C59   H59   S    
C178  C179  A    
C155  H1    S    
Cu9   O9    S    
C227  N3    T    
C83   H67   S    
C154  H4    S    
C199  C215  A    
Cu11  O59   S    
C144  H24   S    
C56   H56   S    
C151  C167  A    
C60   H60   S    
C170  C171  A    
C150  C166  A    
C62   C78   A    
C209  H33   S    
C57   C73   A    
C174  C175  A    
C1    O17   A    
Cu3   O3    S    
C193  C209  A    
C15   C79   S    
O100  H84   S    
C61   C77   A    
C83   C98   A    
C149  C184  A    
C1    C65   S    
C148  H28   S    
Cu18  O85   S    
C149  H29   S    
C36   C52   A    
C43   C59   A    
C37   C53   A    
C20   C212  A    
C128  O46   A    
C70   C198  A    
Cu23  O94   S    
Cu11  O25   S    
C18   C113  S    
C33   C225  S    
Cu17  O65   S    
C12   O28   A    
C120  O80   A    
Cu9   O57   S    
C148  C164  A    
C149  C165  A    
Cu7   O39   S    
Cu10  O58   S    
C75   C203  A    
C94   H78   S    
C4    C68   S    
C9    O9    A    
C4    O20   A    
Cu5   O53   S    
C103  C136  S    
C125  O41   A    
C239  N15   T    
Cu13  O31   S    
C194  C210  A    
C50   C66   A    
C41   C233  S    
C238  N14   T    
C179  C189  A    
C139  C155  A    
C224  H48   S    
C237  N13   T    
C204  O108  S    
C51   C67   A    
C80   C208  A    
C206  O110  S    
C130  O50   A    
C21   C213  A    
Cu4   O36   S    
Cu11  O11   S    
C132  O56   A    
C7    O23   A    
C58   C74   A    
C116  O76   A    
C87   C100  A    
C85   C88   A    
C2    O18   A    
C173  C187  A    
C30   C46   A    
Cu7   O7    S    
C2    C66   S    
C20   C115  S    
Cu24  O74   S    
C38   C230  S    
C62   H62   S    
Cu23  O71   S    
C163  H9    S    
Cu24  O72   S    
C202  C218  A    
Cu20  O78   S    
C102  C133  S    
C53   H53   S    
C11   C75   S    
C24   C216  A    
C138  C154  A    
Cu19  O77   S    
C168  H14   S    
C19   C116  S    
C206  C222  A    
C146  H26   S    
C200  C216  A    
C121  O33   A    
Cu16  O16   S    
C147  H27   S    
Cu6   O38   S    
C106  O66   A    
Cu4   O18   S    
O110  H94   S    
C114  O74   A    
Cu22  O81   S    
C87   H71   S    
O109  H93   S    
C240  N16   T    
Cu2   O50   S    
C205  O109  S    
C10   O10   A    
C27   C219  A    
C64   C80   A    
C25   C217  A    
C236  N12   T    
C51   H51   S    
C118  O78   A    
C44   C236  S    
C45   C237  S    
C29   C221  A    
C146  C162  A    
C37   C229  S    
C182  C192  A    
C99   C132  S    
C204  C220  A    
C19   C211  A    
C84   C97   A    
C93   C96   A    
Cu14  O14   S    
C97   C130  S    
C125  O43   A    
C17   C209  A    
C47   C63   A    
C178  C190  A    
C156  H2    S    
C48   C64   A    
C81   C98   A    
C13   O29   A    
C119  O95   A    
Cu16  O30   S    
C120  O96   A    
C15   O15   A    
C167  H13   S    
C160  H6    S    
C123  C188  S    
C137  C172  A    
C5    C69   S    
C66   C194  A    
C121  C186  S    
C208  O112  S    
C116  O92   A    
Cu24  O83   S    
C39   C55   A    
C40   C56   A    
C108  O84   A    
C141  C176  A    
C5    O21   A    
C184  C192  A    
C135  O63   A    
C125  C190  S    
C47   C239  S    
C141  H21   S    
C91   H75   S    
C112  O72   A    
Cu13  O45   S    
O112  H96   S    
C31   C47   A    
C32   C48   A    
C17   C33   A    
Cu10  O42   S    
C40   C232  S    
C217  H41   S    
C152  C168  A    
C16   O32   A    
C25   C106  S    
C65   C193  A    
C140  C156  A    
C131  O55   A    
C8    C72   S    
C4    O4    A    
Cu5   O37   S    
O108  H92   S    
C29   C110  S    
Cu1   O1    S    
C86   C87   A    
C117  O77   A    
C74   C202  A    
O99   H83   S    
Cu17  Cu22  S    
C121  O35   A    
C140  H20   S    
O104  H88   S    
C78   C206  A    
C235  N11   T    
C38   C54   A    
C109  O85   A    
C170  C186  A    
Cu19  O90   S    
Cu6   O24   S    
C68   C196  A    
C150  C183  A    
C92   C101  A    
C81   H65   S    
Cu15  O15   S    
C94   C103  A    
C12   C76   S    
C82   C97   A    
C143  H23   S    
C14   O30   A    
C208  C224  A    
C159  H5    S    
C161  C164  A    
C197  C213  A    
C12   O12   A    
C11   O27   A    
C162  C163  A    
C181  C184  A    
C6    C70   S    
C199  O103  S    
C24   C40   A    
C24   C119  S    
Cu3   O17   S    
Cu20  O68   S    
Cu8   O56   S    
C129  O51   A    
C143  C159  A    
C3    O3    A    
C111  O71   A    
C41   C57   A    
Cu5   Cu7   S    
C180  C190  A    
C181  C191  A    
C52   H52   S    
C90   C91   A    
C44   C60   A    
C145  C180  A    
C45   C61   A    
C128  O48   A    
C60   C76   A    
C146  C179  A    
C135  O61   A    
Cu8   O8    S    
C26   C42   A    
C126  O44   A    
C94   C95   A    
C198  O102  S    
Cu21  O96   S    
C169  C185  A    
C20   C36   A    
C27   C43   A    
Cu22  O95   S    
C21   C37   A    
C82   C83   A    
C96   C103  A    
Cu9   Cu11  S    
C221  H45   S    
C147  C163  A    
C143  C174  A    
C136  O62   A    
C92   H76   S    
C22   C117  S    
C131  O53   A    
C164  H10   S    
C89   C102  A    
Cu3   O35   S    
C232  N8    T    
C219  H43   S    
Cu12  O44   S    
C133  O57   A    
C100  C131  S    
C63   C79   A    
C101  C134  S    
C11   O11   A    
C21   C118  S    
C49   C65   A    
Cu20  O87   S    
C134  O60   A    
C123  O39   A    
C7    C71   S    
C23   C39   A    
C28   C107  S    
C5    O5    A    
Cu13  Cu15  S    
Cu7   O55   S    
C139  C170  A    
C7    O7    A    
C151  H31   S    
C112  O88   A    
Cu1   Cu3   S    
C137  H17   S    
Cu2   O2    S    
C172  C186  A    
C54   C70   A    
C144  C173  A    
C122  O36   A    
Cu1   O19   S    
C152  H32   S    
C52   C68   A    
C6    O22   A    
C174  C188  A    
Cu9   O27   S    
C10   O26   A    
Cu7   O21   S    
C69   C197  A    
Cu12  O26   S    
C67   C195  A    
C93   C104  A    
Cu19  O67   S    
C17   C114  S    
C71   C199  A    
C115  O91   A    
C13   C77   S    
C34   C50   A    
C177  C189  A    
C113  O89   A    
C210  H34   S    
C202  O106  S    
C13   O13   A    
C234  N10   T    
C122  C185  S    
C109  O69   A    
C138  H18   S    
C15   O31   A    
C233  N9    T    
C175  C187  A    
C107  O83   A    
C200  O104  S    
Cu17  O92   S    
C126  O42   A    
C126  C189  S    
C105  O81   A    
C150  H30   S    
C90   C101  A    
C195  C211  A    
Cu2   O20   S    
C72   C200  A    
C61   H61   S    
C230  N6    T    
Cu19  O88   S    
C49   H49   S    
C177  C180  A    
Cu1   O33   S    
C229  N5    T    
Cu18  O91   S    
Cu13  O61   S    
C89   C92   A    
C57   H57   S    
C18   C34   A    
C161  H11   S    
Cu5   O5    S    
C31   C223  A    
C43   C235  S    
C195  O99   S    
C42   C234  S    
C165  C168  A    
Cu2   Cu4   S    
C22   C214  A    
C166  C167  A    
C169  C172  A    
C6    O6    A    
C63   H63   S    
C91   C102  A    
C64   H64   S    
C59   C75   A    
C133  O59   A    
C81   C84   A    
C124  O38   A    
C95   C104  A    
C3    O19   A    
C193  O97   S    
C173  C176  A    
Cu16  O48   S    
C111  O87   A    
C214  H38   S    
Cu14  O46   S    
C3    C67   S    
C117  O93   A    
C123  O37   A    
C183  C191  A    
C124  C187  S    
C93   H77   S    
C46   C238  S    
C76   C204  A    
Cu23  O84   S    
C207  O111  S    
C136  O64   A    
C127  C192  S    
C110  O86   A    
C203  C219  A    
C134  O58   A    
C128  C191  S    
C89   H73   S    
Cu18  O66   S    
C201  C217  A    
O106  H90   S    
C58   H58   S    
C85   C100  A    
C10   C74   S    
C147  C178  A    
Cu11  O43   S    
O105  H89   S    
C82   H66   S    
Cu4   O4    S    
C205  C221  A    
C203  O107  S    
Cu10  O28   S    
C14   C78   S    
O111  H95   S    
C124  O40   A    
C213  H37   S    
C114  O90   A    
C39   C231  S    
O102  H86   S    
C14   O14   A    
Cu3   O51   S    
O101  H85   S    
C197  O101  S    
C108  O68   A    
