data_mof_unit_9027.cif
_audit_creation_date              2012-12-11T14:21:18-0500
_audit_creation_method            fapswitch 2.2
_symmetry_space_group_name_H-M    P1
_symmetry_Int_Tables_number       1
_space_group_crystal_system       triclinic
_cell_length_a                    11.739127
_cell_length_b                    11.533923
_cell_length_c                    19.392372
_cell_angle_alpha                 89.137512
_cell_angle_beta                  90.311477
_cell_angle_gamma                 60.463615
_cell_volume                      2283.9561654

loop_
_atom_site_label
_atom_site_type_symbol
_atom_type_description
_atom_site_fract_x
_atom_site_fract_y
_atom_site_fract_z
_atom_type_partial_charge
C1    C     C_R   0.640606 0.116152 0.598986 0.589680
C2    C     C_1   0.654929 0.147573 0.668259 0.023029
C3    C     C_R   0.668332 0.680659 0.191591 0.011672
C4    C     C_R   0.612571 0.744685 0.597928 0.549668
C5    C     C_R   0.541547 0.738941 0.218209 -0.062481
C6    C     C_R   0.529145 0.708711 0.288044 -0.046580
C7    C     C_R   0.752113 0.666467 0.307076 -0.119112
C8    C     C_R   0.774810 0.652052 0.237775 0.211091
C9    C     C_R   0.429796 0.803324 0.174246 0.270709
C10   C     C_R   0.318172 0.798636 0.192971 -0.106034
C11   C     C_R   0.315755 0.738583 0.255136 -0.150107
C12   C     C_1   0.641716 0.701271 0.667421 0.017120
C13   C     C_R   0.413679 0.700305 0.305467 0.246156
C14   C     C_R   0.634381 0.689929 0.333530 -0.011373
C15   C     C_R   0.174616 0.170409 0.182668 0.101739
C16   C     C_R   0.241165 0.144266 0.597903 0.581035
C17   C     C_R   0.258286 0.217565 0.201706 0.044449
C18   C     C_R   0.288335 0.217353 0.272144 0.001703
C19   C     C_R   0.204142 0.064452 0.294232 -0.119627
C20   C     C_R   0.150520 0.090747 0.228392 -0.127555
C21   C     C_R   0.294892 0.282666 0.152180 0.005083
C22   C     C_R   0.320768 0.381183 0.171773 0.279704
C23   C     C_1   0.126401 0.200706 0.859664 0.023055
C24   C     C_R   0.333745 0.397392 0.241709 -0.075894
C25   C     C_R   0.328577 0.309324 0.291301 -0.143916
C26   C     C_R   0.266164 0.133210 0.319241 0.010105
C27   C     C_R   0.718044 0.208137 0.208837 0.005728
C28   C     C_R   0.648119 0.118481 0.405801 0.580070
C29   C     C_R   0.807399 0.090004 0.246458 -0.016555
C30   C     C_R   0.810482 0.096130 0.318732 0.035967
C31   C     C_R   0.604258 0.295664 0.315888 -0.142903
C32   C     C_R   0.625612 0.315886 0.246895 -0.161249
C33   C     C_R   0.888912 0.964815 0.217393 -0.110658
C34   C     C_1   0.171953 0.168418 0.727750 -0.021896
C35   C     C_R   0.985562 0.862414 0.257287 -0.155750
C36   C     C_R   0.008541 0.884355 0.325443 -0.126418
C37   C     C_R   0.922987 0.004285 0.356397 0.230220
C38   C     C_R   0.691021 0.177710 0.350253 0.046089
C39   C     C_R   0.081171 0.232105 0.928812 0.571453
C40   C     C_R   0.612320 0.740724 0.402630 0.562852
C41   C     C_R   0.683517 0.605386 0.930063 0.576823
C42   C     C_R   0.708363 0.207273 0.930433 0.566016
C43   C     C_R   0.088004 0.230769 0.122995 0.613425
C44   C     C_R   0.687575 0.607391 0.127108 0.596925
C45   C     C_1   0.150222 0.182822 0.799239 -0.021995
C46   C     C_R   0.736428 0.229447 0.135011 0.548971
C47   C     C_R   0.302453 0.116594 0.393460 0.544850
C48   C     C_1   0.669284 0.648782 0.860573 0.019105
C49   C     C_1   0.655066 0.682171 0.728258 -0.025505
C50   C     C_1   0.662799 0.667888 0.799734 -0.027278
C51   C     C_1   0.195842 0.158041 0.667172 0.019763
C52   C     C_1   0.677280 0.192873 0.860979 0.019424
C53   C     C_1   0.659819 0.166127 0.728753 -0.023183
C54   C     C_1   0.665153 0.181622 0.800272 -0.022031
Cr1   Cr    Cr6+3 0.404720 0.198220 0.499960 1.053230
Cr2   Cr    Cr6+3 0.698290 0.897110 0.500380 1.047886
Cr3   Cr    Cr6+3 0.396970 0.904720 0.499610 1.183166
Cr4   Cr    Cr6+3 0.926180 0.151990 0.028120 1.042236
Cr5   Cr    Cr6+3 0.921330 0.451820 0.027470 1.152954
Cr6   Cr    Cr6+3 0.626260 0.446870 0.028710 1.165756
H1    H     H_    0.351907 0.476017 0.256729 0.186487
H2    H     H_    0.180136 0.681092 0.063372 0.345894
H3    H     H_    0.347535 0.321165 0.344060 0.185079
H4    H     H_    0.875197 0.939466 0.165937 0.196813
H5    H     H_    0.008507 0.859757 0.490646 0.339276
H6    H     H_    0.266409 0.902448 0.039563 0.343296
H7    H     H_    0.060044 0.506481 0.315825 0.368163
H8    H     H_    0.234413 0.836218 0.158308 0.143120
H9    H     H_    0.277512 0.532716 0.414683 0.369794
H10   H     H_    0.086147 0.052557 0.214141 0.130540
H11   H     H_    0.518259 0.367589 0.341239 0.205390
H12   H     H_    0.564668 0.411813 0.222464 0.174326
H13   H     H_    0.044804 0.768039 0.233212 0.226032
H14   H     H_    0.090074 0.807558 0.354531 0.208926
H15   H     H_    0.236461 0.720902 0.264622 0.165951
H16   H     H_    0.186961 0.998260 0.327084 0.183988
H17   H     H_    0.287194 0.268550 0.097578 0.183102
H18   H     H_    0.830643 0.650077 0.342441 0.180214
O1    O     O_R   0.267740 0.231960 0.575440 -0.503298
O2    O     O_R   0.596130 0.579390 0.952730 -0.472110
O3    O     O_R   0.639060 0.321160 0.958670 -0.462212
O4    O     O_R   0.527280 0.186640 0.570530 -0.490403
O5    O     O_R   0.821240 0.124200 0.104370 -0.530121
O6    O     O_R   0.036890 0.167040 0.097840 -0.504539
O7    O     O_R   0.056180 0.349610 0.102880 -0.436711
O8    O     O_R   0.797660 0.564870 0.097950 -0.434650
O9    O     O_R   0.595880 0.584250 0.104270 -0.448883
O10   O     O_R   0.638830 0.325670 0.099150 -0.425255
O11   O     O_3   0.824590 0.350230 0.028100 -0.327127
O12   O     O_R   0.685970 0.784660 0.430010 -0.524432
O13   O     O_R   0.728090 0.003450 0.576380 -0.478448
O14   O     O_R   0.682970 0.789190 0.570490 -0.501543
O15   O     O_R   0.499290 0.771880 0.575530 -0.474202
O16   O     O_R   0.285330 0.030870 0.569730 -0.456130
O17   O     O_R   0.270980 0.227080 0.423890 -0.510258
O18   O     O_R   0.530280 0.182120 0.430050 -0.529989
O19   O     O_R   0.731330 0.998570 0.424830 -0.494002
O20   O     O_2   0.402893 0.549147 0.132948 -0.329065
O21   O     O_2   0.377798 0.417427 0.042475 -0.268091
O22   O     O_3   0.169256 0.615385 0.091950 -0.488911
O23   O     O_R   0.502530 0.767000 0.423990 -0.429020
O24   O     O_2   0.032765 0.121717 0.426030 -0.237971
O25   O     O_2   0.844872 0.130488 0.480491 -0.260507
O26   O     O_3   0.060944 0.904907 0.484069 -0.468777
O27   O     O_2   0.463361 0.997962 0.119366 -0.295150
O28   O     O_2   0.518371 0.813818 0.043654 -0.260808
O29   O     O_3   0.275294 0.973483 0.062875 -0.531564
O30   O     O_2   0.973983 0.419288 0.225165 -0.337597
O31   O     O_2   0.976082 0.596858 0.152584 -0.186936
O32   O     O_3   0.032153 0.582594 0.282976 -0.558037
O33   O     O_2   0.510038 0.535217 0.418855 -0.277580
O34   O     O_R   0.288330 0.026350 0.429250 -0.420899
O35   O     O_2   0.303511 0.744875 0.430826 -0.219042
O36   O     O_3   0.294020 0.558624 0.368458 -0.619376
O37   O     O_3   0.499990 0.000020 0.499980 -0.323012
O38   O     O_R   0.821500 0.119340 0.952830 -0.502233
O39   O     O_R   0.037130 0.162530 0.957360 -0.490557
O40   O     O_R   0.056440 0.344740 0.951340 -0.497134
O41   O     O_R   0.797900 0.560360 0.957470 -0.496891
S1    S     S_3+6 0.321983 0.490842 0.108078 0.012281
S2    S     S_3+6 0.962889 0.044381 0.438321 0.047467
S3    S     S_3+6 0.425740 0.896443 0.098641 0.001091
S4    S     S_3+6 0.942695 0.561474 0.221355 0.003368
S5    S     S_3+6 0.383693 0.632699 0.383217 -0.027937

loop_
_geom_bond_atom_site_label_1
_geom_bond_atom_site_label_2
_ccdc_geom_bond_type
C28   O19   A    
C24   H1    S    
C23   C45   T    
C27   C29   A    
C19   C20   A    
C18   C26   A    
C16   C51   S    
H6    O29   S    
C41   O2    A    
C12   C49   T    
Cr6   O10   S    
C7    C8    A    
C32   H12   S    
C53   C54   S    
C22   S1    S    
C18   C25   A    
C34   C51   T    
C19   H16   S    
C36   C37   A    
Cr3   O37   S    
C25   H3    S    
C5    C6    A    
Cr3   O34   S    
C47   O34   A    
C29   C33   A    
C30   C38   A    
C1    C2    S    
Cr5   O11   S    
C19   C26   A    
O21   S1    D    
Cr2   O37   S    
Cr2   O13   S    
C35   H13   S    
C35   C36   A    
O22   S1    S    
C4    C12   S    
O24   S2    D    
C9    C10   A    
O36   S5    S    
Cr2   O12   S    
C27   C32   A    
C1    O13   A    
Cr3   O15   S    
C21   C22   A    
Cr4   O38   S    
C43   O6    A    
C20   H10   S    
C42   O3    A    
Cr2   O19   S    
C44   O8    A    
Cr6   O9    S    
C52   C54   T    
C9    S3    S    
C46   O10   A    
C7    C14   A    
C15   C20   A    
H9    O36   S    
C3    C44   S    
C43   O7    A    
C24   C25   A    
Cr1   O17   S    
C3    C8    A    
C13   S5    S    
O31   S4    D    
O26   S2    S    
C1    O4    A    
Cr6   O11   S    
Cr4   O39   S    
C17   C21   A    
C46   O5    A    
C30   C37   A    
Cr5   O7    S    
C5    C9    A    
C29   C30   A    
Cr4   O6    S    
O32   S4    S    
C6    C14   A    
Cr1   O1    S    
Cr6   O3    S    
H7    O32   S    
C31   C32   A    
C28   C38   S    
O28   S3    D    
C17   C18   A    
C34   C45   S    
C41   O41   A    
Cr1   O4    S    
C36   H14   S    
C26   C47   S    
C7    H18   S    
H2    O22   S    
C27   C46   S    
C42   O38   A    
Cr5   O40   S    
Cr3   O16   S    
C37   S2    S    
O30   S4    D    
C44   O9    A    
C15   C17   A    
Cr6   O2    S    
Cr5   O41   S    
O33   S5    D    
C40   O23   A    
Cr1   O18   S    
C3    C5    A    
C2    C53   T    
C8    S4    S    
O20   S1    D    
C10   H8    S    
C39   O40   A    
Cr3   O23   S    
C16   O16   A    
H5    O26   S    
C31   C38   A    
C28   O18   A    
C16   O1    A    
Cr5   O8    S    
C15   C43   S    
C39   O39   A    
Cr4   O5    S    
C6    C13   A    
C11   C13   A    
O35   S5    D    
Cr1   O37   S    
C33   H4    S    
C23   C39   S    
C48   C50   T    
C33   C35   A    
C41   C48   S    
O27   S3    D    
C22   C24   A    
Cr4   O11   S    
C10   C11   A    
C14   C40   S    
C4    O15   A    
Cr2   O14   S    
C49   C50   S    
C21   H17   S    
C47   O17   A    
C11   H15   S    
O29   S3    S    
C40   O12   A    
C42   C52   S    
C31   H11   S    
C4    O14   A    
O25   S2    D    
