data_mof_unit_28164.cif
_audit_creation_date              2012-12-11T15:48:45-0500
_audit_creation_method            fapswitch 2.2
_symmetry_space_group_name_H-M    P1
_symmetry_Int_Tables_number       1
_space_group_crystal_system       triclinic
_cell_length_a                    11.062542
_cell_length_b                    10.967507
_cell_length_c                    18.682742
_cell_angle_alpha                 90.200904
_cell_angle_beta                  89.751657
_cell_angle_gamma                 60.51468
_cell_volume                      1973.10404138

loop_
_atom_site_label
_atom_site_type_symbol
_atom_type_description
_atom_site_fract_x
_atom_site_fract_y
_atom_site_fract_z
_atom_type_partial_charge
C1    C     C_R   0.236981 0.645848 0.609868 0.538063
C2    C     C_3   0.744476 0.508656 0.802064 -0.296775
C3    C     C_3   0.695506 0.666799 0.813625 0.048543
C4    C     C_3   0.655322 0.617907 0.681957 0.020713
C5    C     C_3   0.735180 0.701611 0.683650 -0.214056
C6    C     C_3   0.741650 0.478074 0.722158 -0.261572
C7    C     C_R   0.686438 0.163797 0.827682 0.036651
C8    C     C_R   0.784051 0.074992 0.777943 0.050084
C9    C     C_R   0.764380 0.093993 0.705094 -0.000851
C10   C     C_R   0.539884 0.292464 0.728731 -0.125781
C11   C     C_R   0.559806 0.271209 0.802526 -0.128719
C12   C     C_R   0.630629 0.589014 0.608547 0.551499
C13   C     C_3   0.931526 0.035873 0.772071 -0.133521
C14   C     C_3   0.910208 0.059077 0.691568 -0.264731
C15   C     C_R   0.643871 0.204629 0.679652 0.036806
C16   C     C_R   0.193284 0.658802 0.838450 0.000298
C17   C     C_R   0.187956 0.555154 0.797076 0.011681
C18   C     C_R   0.187509 0.557430 0.724236 -0.003256
C19   C     C_R   0.214845 0.759275 0.726742 -0.193424
C20   C     C_R   0.223356 0.751867 0.801632 -0.197166
C21   C     C_3   0.168099 0.430376 0.800220 -0.274513
C22   C     C_3   0.170155 0.431310 0.717674 -0.264816
C23   C     C_R   0.622573 0.236235 0.604522 0.538185
C24   C     C_R   0.200844 0.658788 0.685770 -0.000246
C25   C     C_R   0.647051 0.669822 0.165778 0.020575
C26   C     C_R   0.702481 0.538256 0.197288 0.002291
C27   C     C_R   0.706766 0.525883 0.270205 0.033315
C28   C     C_R   0.579762 0.775268 0.285066 -0.168801
C29   C     C_R   0.573831 0.788083 0.210299 -0.163612
C30   C     C_3   0.832092 0.400225 0.187092 -0.262030
C31   C     C_3   0.837385 0.386196 0.268672 -0.106362
C32   C     C_R   0.652173 0.642738 0.315976 0.014906
C33   C     C_R   0.694615 0.056438 0.187989 0.015558
C34   C     C_R   0.282432 0.622952 0.392612 0.566066
C35   C     C_R   0.574590 0.083992 0.224646 0.004418
C36   C     C_R   0.559360 0.117850 0.296082 0.024677
C37   C     C_R   0.792468 0.079517 0.301042 -0.173192
C38   C     C_R   0.809152 0.039841 0.228476 -0.161179
C39   C     C_3   0.425805 0.182282 0.208189 -0.272012
C40   C     C_3   0.408229 0.218354 0.286909 -0.268511
C41   C     C_R   0.660723 0.134885 0.332705 0.021338
C42   C     C_R   0.176087 0.656355 0.174997 0.023641
C43   C     C_R   0.251760 0.718233 0.202086 0.026649
C44   C     C_R   0.279704 0.710285 0.274068 0.017397
C45   C     C_R   0.642108 0.620937 0.391722 0.546571
C46   C     C_R   0.179327 0.560742 0.291277 -0.177824
C47   C     C_R   0.149911 0.568449 0.218820 -0.174160
C48   C     C_3   0.223496 0.867185 0.199318 -0.264684
C49   C     C_3   0.239101 0.861481 0.279454 -0.267722
C50   C     C_R   0.241567 0.634984 0.319298 0.020062
C51   C     C_R   0.699283 0.108175 0.898876 0.551677
C52   C     C_R   0.724466 0.687896 0.888199 0.548827
C53   C     C_R   0.122103 0.703326 0.907364 0.542991
C54   C     C_R   0.702437 0.039710 0.110433 0.562609
C55   C     C_R   0.694517 0.688892 0.096347 0.539464
C56   C     C_R   0.618749 0.223905 0.396634 0.539410
C57   C     C_R   0.097435 0.707489 0.110585 0.546834
C58   C     C_3   0.537134 0.753170 0.794418 0.152660
C59   C     C_3   0.516208 0.699180 0.722000 -0.217228
C60   C     C_3   0.783162 0.702670 0.760814 -0.206777
Cr1   Cr    Cr6+3 0.392960 0.397920 0.502240 1.009709
Cr2   Cr    Cr6+3 0.398340 0.708480 0.501250 1.014557
Cr3   Cr    Cr6+3 0.708670 0.393570 0.496460 0.983003
Cr4   Cr    Cr6+3 0.937650 0.938540 0.007610 0.993940
Cr5   Cr    Cr6+3 0.625330 0.937370 0.994520 1.054402
Cr6   Cr    Cr6+3 0.937940 0.625230 0.001190 0.992608
H1    H     H_    0.849357 0.422488 0.700435 0.142820
H2    H     H_    0.893326 0.622168 0.764827 0.108663
H3    H     H_    0.827436 0.653615 0.647483 0.128352
H4    H     H_    0.447559 0.381816 0.709542 0.126612
H5    H     H_    0.478069 0.337709 0.839592 0.109396
H6    H     H_    0.986702 0.926767 0.788486 0.168036
H7    H     H_    0.916274 0.150061 0.669992 0.152937
H8    H     H_    0.967100 0.961327 0.659489 0.138801
H9    H     H_    0.221216 0.843909 0.701050 0.157818
H10   H     H_    0.478401 0.730696 0.835780 0.107597
H11   H     H_    0.230813 0.833909 0.830181 0.178545
H12   H     H_    0.067453 0.453449 0.824389 0.151190
H13   H     H_    0.259355 0.338064 0.823345 0.148548
H14   H     H_    0.262049 0.339483 0.693740 0.192385
H15   H     H_    0.069742 0.455341 0.693080 0.122679
H16   H     H_    0.529975 0.868226 0.318483 0.125475
H17   H     H_    0.521412 0.890826 0.187250 0.136146
H18   H     H_    0.919413 0.408960 0.163089 0.158304
H19   H     H_    0.810700 0.322362 0.160105 0.135886
H20   H     H_    0.816322 0.302824 0.286948 0.160307
H21   H     H_    0.476702 0.625116 0.731665 0.081262
H22   H     H_    0.877410 0.079441 0.329623 0.115518
H23   H     H_    0.907107 0.007906 0.202768 0.137685
H24   H     H_    0.367953 0.128477 0.190986 0.126649
H25   H     H_    0.411056 0.271288 0.173937 0.162976
H26   H     H_    0.386857 0.325860 0.297813 0.163313
H27   H     H_    0.341520 0.184635 0.315554 0.134590
H28   H     H_    0.151240 0.499116 0.325484 0.133445
H29   H     H_    0.093487 0.518206 0.198948 0.131456
H30   H     H_    0.119050 0.947817 0.182793 0.151391
H31   H     H_    0.439728 0.784457 0.688592 0.199529
H32   H     H_    0.307300 0.875031 0.170572 0.137766
H33   H     H_    0.320957 0.881956 0.298929 0.144632
H34   H     H_    0.138210 0.923189 0.307972 0.138552
H35   H     H_    0.784808 0.800310 0.773096 0.171774
H36   H     H_    0.666574 0.810807 0.665369 0.189852
H37   H     H_    0.852988 0.443574 0.820390 0.146190
H38   H     H_    0.677003 0.478455 0.832909 0.108609
H39   H     H_    0.697419 0.408139 0.715028 0.125369
O1    O     O_R   0.507380 0.255700 0.581440 -0.503363
O2    O     O_R   0.524480 0.695810 0.424040 -0.511164
O3    O     O_R   0.736390 0.504290 0.414790 -0.519022
O4    O     O_R   0.691300 0.277290 0.422170 -0.513709
O5    O     O_3   0.499990 0.499990 0.499980 -0.291090
O6    O     O_R   0.089400 0.825690 0.930570 -0.525796
O7    O     O_R   0.818460 0.054440 0.929850 -0.521334
O8    O     O_R   0.606060 0.077150 0.915510 -0.462610
O9    O     O_R   0.646550 0.806680 0.917570 -0.430186
O10   O     O_R   0.837170 0.593410 0.915250 -0.548096
O11   O     O_R   0.065200 0.635530 0.931570 -0.501614
O12   O     O_R   0.280320 0.527350 0.578930 -0.499478
O13   O     O_R   0.068260 0.828890 0.091840 -0.538814
O14   O     O_R   0.798870 0.057410 0.079340 -0.517135
O15   O     O_R   0.584930 0.080350 0.076780 -0.527473
O16   O     O_R   0.626960 0.809650 0.067060 -0.524411
O17   O     O_R   0.816040 0.596610 0.076510 -0.526320
O18   O     O_R   0.045610 0.638500 0.081060 -0.511707
O19   O     O_3   0.833640 0.833710 0.001100 -0.276545
O20   O     O_R   0.260510 0.739590 0.584590 -0.529680
O21   O     O_R   0.532300 0.695080 0.573820 -0.499139
O22   O     O_R   0.744840 0.503500 0.576370 -0.523433
O23   O     O_R   0.699120 0.276560 0.571960 -0.525240
O24   O     O_R   0.498940 0.256500 0.419860 -0.525623
O25   O     O_R   0.272500 0.528080 0.429150 -0.510890
O26   O     O_R   0.252060 0.740380 0.423010 -0.514504
S1    S     S_3+6 0.462525 0.943021 0.792733 -0.048681
O27   O     O_2   0.571778 0.984587 0.795625 -0.290596
O28   O     O_2   0.381115 0.007241 0.725942 -0.345847
O29   O     O_3   0.358624 0.009219 0.864996 -0.560339
H40   H     H_    0.355987 0.099009 0.875597 0.358648
C61   C     C_3   0.968578 0.133128 0.814908 -0.295842
C62   C     C_3   0.082813 0.150679 0.780352 -0.396269
H41   H     H_    0.166614 0.046019 0.765389 0.237085
H42   H     H_    0.046596 0.217224 0.732161 0.137775
H43   H     H_    0.120927 0.200490 0.819056 0.169796
H44   H     H_    0.876725 0.236649 0.822885 0.145637
H45   H     H_    0.004654 0.087529 0.868748 0.196496
C63   C     C_3   0.966277 0.382871 0.302935 -0.259836
C64   C     C_3   0.034390 0.265512 0.357666 -0.431288
H46   H     H_    0.958626 0.272892 0.398891 0.193582
H47   H     H_    0.078075 0.162441 0.330264 0.125179
H48   H     H_    0.120033 0.272346 0.384719 0.131643
H49   H     H_    0.046602 0.363343 0.261872 0.127525
H50   H     H_    0.938229 0.484331 0.329358 0.173501

loop_
_geom_bond_atom_site_label_1
_geom_bond_atom_site_label_2
_ccdc_geom_bond_type
C44   C49   S    
C8    C9    A    
C61   H44   S    
C55   O16   A    
C51   O7    A    
C54   O15   A    
C32   C45   S    
C37   H22   S    
C35   C36   A    
C40   H27   S    
C9    C14   S    
C64   H46   S    
C58   H10   S    
O29   H40   S    
C12   O22   A    
C7    C11   A    
C38   H23   S    
C26   C27   A    
C51   O8    A    
Cr4   O14   S    
Cr6   O11   S    
C20   H11   S    
C18   C24   A    
C14   H8    S    
C28   C29   A    
C1    O20   A    
C29   H17   S    
C10   C15   A    
C30   C31   S    
C11   H5    S    
Cr4   O7    S    
C12   O21   A    
Cr4   O13   S    
Cr5   O9    S    
Cr5   O19   S    
C31   C63   S    
C16   C53   S    
C63   H50   S    
C13   C14   S    
C5    H36   S    
Cr5   O15   S    
C19   C20   A    
C58   S1    S    
S1    O27   D    
C46   H28   S    
C21   H12   S    
C5    H3    S    
Cr6   O17   S    
Cr5   O16   S    
C4    C12   S    
C43   C48   S    
C39   H24   S    
C56   O24   A    
C5    C60   S    
C53   O11   A    
Cr1   O24   S    
C3    C58   S    
C3    C60   S    
C53   O6    A    
C15   C23   S    
C61   H45   S    
C55   O17   A    
C31   H20   S    
C21   C22   S    
C30   H18   S    
C36   C41   A    
C2    C6    S    
Cr1   O5    S    
C42   C57   S    
C39   H25   S    
C64   H47   S    
Cr3   O23   S    
C25   C29   A    
C34   C50   S    
Cr6   O10   S    
Cr1   O12   S    
C22   H15   S    
C28   C32   A    
C4    C6    S    
C10   C11   A    
C39   C40   S    
Cr2   O21   S    
C16   C17   A    
Cr4   O6    S    
Cr2   O2    S    
C58   C59   S    
Cr4   O19   S    
C23   O1    A    
C27   C31   S    
C17   C21   S    
C13   C61   S    
Cr3   O4    S    
C35   C39   S    
C43   C44   A    
C14   H7    S    
C41   C56   S    
C37   C38   A    
C57   O18   A    
Cr2   O5    S    
C28   H16   S    
C36   C40   S    
C16   C20   A    
C21   H13   S    
C17   C18   A    
C1    O12   A    
C40   H26   S    
C30   H19   S    
Cr1   O1    S    
C34   O25   A    
C62   H42   S    
Cr1   O25   S    
C10   H4    S    
C48   C49   S    
C2    H38   S    
C26   C30   S    
C59   H31   S    
Cr6   O19   S    
C42   C43   A    
C60   H35   S    
C56   O4    A    
C64   H48   S    
C52   O10   A    
C44   C50   A    
C33   C54   S    
C46   C47   A    
C6    H1    S    
C48   H30   S    
C63   H49   S    
C27   C32   A    
C18   C22   S    
Cr5   O8    S    
Cr2   O26   S    
C25   C55   S    
C63   C64   S    
C62   H43   S    
C34   O26   A    
Cr2   O20   S    
C3    C52   S    
C45   O3    A    
C13   H6    S    
C52   O9    A    
C48   H32   S    
C61   C62   S    
C46   C50   A    
C33   C38   A    
Cr3   O5    S    
C19   H9    S    
C2    C3    S    
C25   C26   A    
C7    C51   S    
C49   H34   S    
C49   H33   S    
C2    H37   S    
S1    O29   S    
C4    C59   S    
C33   C35   A    
C6    H39   S    
C19   C24   A    
C42   C47   A    
C37   C41   A    
C59   H21   S    
C7    C8    A    
C62   H41   S    
C22   H14   S    
C8    C13   S    
C4    C5    S    
C60   H2    S    
C1    C24   S    
S1    O28   D    
C47   H29   S    
Cr6   O18   S    
C23   O23   A    
Cr3   O3    S    
C54   O14   A    
Cr3   O22   S    
C45   O2    A    
C9    C15   A    
C57   O13   A    
