data_mof_unit_34792.cif
_audit_creation_date              2012-10-26T19:00:15-0400
_audit_creation_method            fapswitch 2.2
_symmetry_space_group_name_H-M    P1
_symmetry_Int_Tables_number       1
_space_group_crystal_system       triclinic
_cell_length_a                    10.82276
_cell_length_b                    10.843115
_cell_length_c                    9.529577
_cell_angle_alpha                 89.7789
_cell_angle_beta                  90.064714
_cell_angle_gamma                 90.137399
_cell_volume                      1118.30678636

loop_
_atom_site_label
_atom_site_type_symbol
_atom_type_description
_atom_site_fract_x
_atom_site_fract_y
_atom_site_fract_z
_atom_type_partial_charge
C1    C     C_R   0.501856 0.262325 0.499914 0.593604
C2    C     C_R   0.851987 0.338272 0.980556 -0.119965
C3    C     C_R   0.777267 0.235790 0.954251 -0.084592
C4    C     C_R   0.262385 0.502655 0.499802 0.556983
C5    C     C_R   0.755641 0.198274 0.816300 -0.097376
C6    C     C_R   0.806636 0.264447 0.703996 -0.045905
C7    C     C_R   0.880879 0.368471 0.729543 0.050003
C8    C     C_R   0.508667 0.062743 0.624099 -0.058093
C9    C     C_R   0.513162 0.129332 0.498802 -0.013198
C10   C     C_R   0.534959 0.065007 0.372870 0.367212
C11   C     C_R   0.534305 0.936541 0.372558 0.364446
C12   C     C_R   0.243667 0.759991 0.061231 -0.044623
C13   C     C_R   0.513706 0.870799 0.498397 -0.041385
C14   C     C_R   0.510192 0.936011 0.624142 -0.116342
C15   C     C_3   0.422232 0.927410 0.744424 -0.183471
C16   C     C_R   0.502057 0.737707 0.499535 0.564677
C17   C     C_3   0.420114 0.067533 0.744095 0.261124
C18   C     C_R   0.548204 0.597562 0.073164 0.206690
C19   C     C_R   0.441072 0.410132 0.074777 0.020535
C20   C     C_R   0.441354 0.409945 0.925807 0.033068
C21   C     C_R   0.546203 0.598615 0.925711 0.169334
C22   C     C_3   0.674001 0.648831 0.916991 -0.284106
C23   C     C_R   0.933476 0.552317 0.390876 -0.147942
C24   C     C_3   0.678634 0.642665 0.075970 -0.266444
C25   C     C_R   0.737712 0.496014 0.500389 0.534160
C26   C     C_R   0.243145 0.806539 0.197776 -0.125357
C27   C     C_R   0.182788 0.741910 0.304889 -0.095275
C28   C     C_R   0.121835 0.630457 0.275438 -0.006620
C29   C     C_R   0.122045 0.584528 0.137931 -0.067876
C30   C     C_R   0.183344 0.649028 0.031227 0.371658
C31   C     C_R   0.871744 0.492725 0.501076 -0.001282
C32   C     C_R   0.939153 0.437365 0.611938 -0.030931
C33   C     C_R   0.067298 0.444758 0.609725 -0.091221
C34   C     C_R   0.128553 0.504231 0.499547 0.017167
C35   C     C_R   0.061419 0.559731 0.389452 -0.029577
C36   C     C_R   0.904726 0.403556 0.868841 -0.111320
Cu1   Cu    Cu3+1 0.499990 0.499980 0.640670 0.997847
Cu2   Cu    Cu3+1 0.500010 0.500020 0.359330 1.009749
F1    F     F_    0.550679 0.124966 0.248722 -0.625203
F2    F     F_    0.546947 0.878121 0.247856 -0.635251
F3    F     F_    0.306226 0.114412 0.704722 -0.634659
F4    F     F_    0.185130 0.603612 0.898901 -0.661197
H1    H     H_    0.737036 0.184769 0.040753 0.180692
H2    H     H_    0.881820 0.597729 0.308176 0.125096
H3    H     H_    0.962137 0.483070 0.890501 0.154151
H4    H     H_    0.290903 0.809898 0.978830 0.134570
H5    H     H_    0.789392 0.234059 0.597605 0.099833
H6    H     H_    0.289766 0.892538 0.220688 0.169722
H7    H     H_    0.739275 0.585294 0.865180 0.166183
H8    H     H_    0.675306 0.744718 0.875281 0.139503
H9    H     H_    0.688603 0.734596 0.125304 0.206790
H10   H     H_    0.184036 0.778131 0.410672 0.126171
H11   H     H_    0.119840 0.400371 0.692708 0.183577
H12   H     H_    0.700348 0.117105 0.796839 0.106785
H13   H     H_    0.869334 0.366911 0.087488 0.115545
H14   H     H_    0.332607 0.884246 0.714841 0.183103
H15   H     H_    0.467068 0.887983 0.839469 0.112842
H16   H     H_    0.459839 0.110021 0.840075 0.127057
H17   H     H_    0.395007 0.336350 0.130801 0.158165
H18   H     H_    0.395491 0.336128 0.870260 0.155216
H19   H     H_    0.743833 0.571577 0.115362 0.127969
H20   H     H_    0.076957 0.497796 0.114543 0.110337
N1    N     N_R   0.500790 0.500930 0.147930 -0.243399
N2    N     N_R   0.500790 0.500890 0.852020 -0.228021
O1    O     O_R   0.500000 0.319640 0.618810 -0.507985
O2    O     O_R   0.500010 0.319680 0.381230 -0.454425
O3    O     O_R   0.319640 0.499990 0.618790 -0.460241
O4    O     O_R   0.319650 0.500030 0.381210 -0.509580
O5    O     O_R   0.499990 0.680320 0.618770 -0.508894
O6    O     O_R   0.500000 0.680360 0.381190 -0.443610
O7    O     O_R   0.680350 0.499970 0.618790 -0.510677
O8    O     O_R   0.680360 0.500010 0.381210 -0.515519

loop_
_geom_bond_atom_site_label_1
_geom_bond_atom_site_label_2
_ccdc_geom_bond_type
C20   N2    A    
C4    O3    A    
C1    O1    A    
Cu2   O6    S    
C19   H17   S    
C25   C31   S    
C6    C7    A    
C25   O7    A    
Cu1   O5    S    
C20   H18   S    
C18   C21   A    
C11   C13   A    
C9    C10   A    
C19   C20   A    
C23   C35   A    
C8    C17   S    
C26   H6    S    
C17   H16   S    
C22   H8    S    
C10   C11   A    
C15   H14   S    
C2    C36   A    
C24   H9    S    
C2    C3    A    
C8    C9    A    
C1    C9    S    
C36   H3    S    
C25   O8    A    
C21   C22   S    
C32   C33   A    
C15   H15   S    
C3    H1    S    
C26   C27   A    
C24   H19   S    
C22   H7    S    
C18   C24   S    
Cu1   O3    S    
C28   C29   A    
C33   C34   A    
Cu1   Cu2   S    
Cu2   O4    S    
C1    O2    A    
C22   C24   S    
C2    H13   S    
Cu1   O7    S    
C4    C34   S    
C33   H11   S    
C5    C6    A    
C34   C35   A    
Cu2   O8    S    
C18   N1    A    
C17   F3    S    
C6    H5    S    
C16   O5    A    
C29   C30   A    
C11   F2    S    
C5    H12   S    
Cu1   N2    S    
C16   O6    A    
C27   H10   S    
C29   H20   S    
C12   H4    S    
Cu2   N1    S    
C7    C36   A    
C13   C16   S    
C12   C26   A    
C27   C28   A    
C15   C17   S    
C14   C15   S    
C30   F4    S    
C21   N2    A    
C8    C14   A    
C7    C32   S    
C12   C30   A    
C13   C14   A    
C4    O4    A    
C31   C32   A    
C23   H2    S    
Cu2   O2    S    
C28   C35   S    
C19   N1    A    
C10   F1    S    
C3    C5    A    
C23   C31   A    
Cu1   O1    S    
