data_mof_unit_68225.cif
_audit_creation_date              2012-12-11T17:16:04-0500
_audit_creation_method            fapswitch 2.2
_symmetry_space_group_name_H-M    P1
_symmetry_Int_Tables_number       1
_space_group_crystal_system       triclinic
_cell_length_a                    14.638191
_cell_length_b                    7.220931
_cell_length_c                    13.467368
_cell_angle_alpha                 89.999978
_cell_angle_beta                  99.639661
_cell_angle_gamma                 89.999989
_cell_volume                      1403.41963254

loop_
_atom_site_label
_atom_site_type_symbol
_atom_type_description
_atom_site_fract_x
_atom_site_fract_y
_atom_site_fract_z
_atom_type_partial_charge
O1    O     O_R   0.398210 0.494340 0.401550 -0.526587
O2    O     O_R   0.601790 0.994340 0.598450 -0.526588
O3    O     O_R   0.586310 0.821730 0.403360 -0.496198
O4    O     O_R   0.413690 0.321730 0.596640 -0.496197
C1    C     C_R   0.615688 0.655796 0.382139 0.892053
C2    C     C_R   0.384312 0.155796 0.617861 0.892054
O5    O     O_R   0.397970 0.823900 0.389580 -0.555158
O6    O     O_R   0.602030 0.323900 0.610420 -0.555159
O7    O     O_R   0.412100 0.996500 0.584560 -0.501544
O8    O     O_R   0.587900 0.496500 0.415440 -0.501544
C3    C     C_R   0.364994 0.655246 0.363060 0.739999
C4    C     C_R   0.635006 0.155246 0.636940 0.739997
O9    O     O_3   0.504860 0.661550 0.563990 -0.368228
O10   O     O_3   0.495140 0.161550 0.436010 -0.368228
V1    V     V_3+5 0.499100 0.935510 0.488130 1.793531
V2    V     V_3+5 0.500900 0.435510 0.511870 1.793532
C5    C     C_1   0.716054 0.144681 0.716810 -0.047712
C6    C     C_1   0.283946 0.644681 0.283190 -0.047713
C7    C     C_1   0.783946 0.134134 0.783201 -0.035230
C8    C     C_1   0.216053 0.634134 0.216799 -0.035231
C9    C     C_3   0.275958 0.016169 0.854413 0.067067
C10   C     C_3   0.724041 0.516176 0.145586 0.067062
H1    H     H_    0.253158 0.869582 0.857529 0.253488
H2    H     H_    0.746838 0.369587 0.142466 0.253489
C11   C     C_3   0.347732 0.025380 0.780845 0.409479
C12   C     C_3   0.652267 0.525387 0.219154 0.409477
H3    H     H_    0.414635 0.083514 0.819503 0.191514
H4    H     H_    0.585364 0.583526 0.180496 0.191514
C13   C     C_3   0.216912 0.339895 0.795320 0.993719
C14   C     C_3   0.783092 0.839895 0.204684 0.993723
C15   C     C_3   0.145206 0.051525 0.707317 0.974218
C16   C     C_3   0.854793 0.551517 0.292682 0.974221
C17   C     C_3   0.187512 0.134794 0.812710 -0.711711
C18   C     C_3   0.812488 0.634794 0.187291 -0.711712
C19   C     C_3   0.311201 0.148629 0.686718 -0.705749
C20   C     C_3   0.688799 0.648629 0.313282 -0.705748
C21   C     C_3   0.293964 0.346225 0.729059 0.947761
C22   C     C_3   0.706039 0.846226 0.270945 0.947761
C23   C     C_3   0.216675 0.062269 0.631812 0.676767
C24   C     C_3   0.783324 0.562262 0.368187 0.676765
O11   O     O_R   0.912140 0.786650 0.084610 -0.510076
O12   O     O_R   0.087860 0.286650 0.915390 -0.510073
O13   O     O_R   0.102040 0.454810 0.110430 -0.549341
O14   O     O_R   0.897960 0.954810 0.889570 -0.549343
C25   C     C_R   0.135008 0.623559 0.136929 0.749838
C26   C     C_R   0.864992 0.123560 0.863071 0.749834
O15   O     O_R   0.913690 0.457060 0.096650 -0.517492
O16   O     O_R   0.086310 0.957060 0.903350 -0.517493
O17   O     O_R   0.898200 0.284560 0.901540 -0.527738
O18   O     O_R   0.101800 0.784560 0.098460 -0.527737
C27   C     C_R   0.884703 0.625651 0.117638 0.935856
C28   C     C_R   0.115297 0.125651 0.882362 0.935867
O19   O     O_3   0.995160 0.617270 0.936040 -0.369343
O20   O     O_3   0.004840 0.117270 0.063960 -0.369342
V3    V     V_3+5 0.000900 0.343280 0.011870 1.770842
V4    V     V_3+5 0.999100 0.843280 0.988130 1.770838
S1    S     S_3+6 0.331294 0.066361 0.982254 0.134318
O21   O     O_2   0.394435 0.907677 0.018935 -0.214740
O22   O     O_2   0.388903 0.239507 0.986242 -0.221245
O23   O     O_3   0.253299 0.088130 0.060212 -0.510190
H5    H     H_    0.248631 0.222822 0.072274 0.351929
S2    S     S_3+6 0.668704 0.566377 0.017745 0.134318
O24   O     O_2   0.605557 0.407703 0.981063 -0.214734
O25   O     O_2   0.611102 0.739532 0.013759 -0.221246
O26   O     O_3   0.746700 0.588136 0.939786 -0.510188
H6    H     H_    0.751377 0.722828 0.927731 0.351923
S3    S     S_3+6 0.166863 0.176662 0.514836 0.242069
O27   O     O_2   0.091483 0.055133 0.459903 -0.179606
O28   O     O_2   0.124663 0.360406 0.533579 -0.151364
O29   O     O_3   0.246737 0.209802 0.440232 -0.507653
H7    H     H_    0.257558 0.085572 0.413269 0.328807
S4    S     S_3+6 0.833138 0.676649 0.485164 0.242070
O30   O     O_2   0.908514 0.555111 0.540097 -0.179608
O31   O     O_2   0.875343 0.860389 0.466423 -0.151363
O32   O     O_3   0.753263 0.709797 0.559767 -0.507650
H8    H     H_    0.742439 0.585568 0.586730 0.328805
F1    F     F_    0.140686 0.439953 0.748642 -0.515022
F2    F     F_    0.859320 0.939947 0.251365 -0.515018
F3    F     F_    0.270066 0.473061 0.651919 -0.497907
F4    F     F_    0.729939 0.973057 0.348087 -0.497908
F5    F     F_    0.367527 0.846951 0.752645 -0.512193
F6    F     F_    0.632469 0.346957 0.247350 -0.512195
F7    F     F_    0.247918 0.427112 0.886433 -0.588297
F8    F     F_    0.752087 0.927121 0.113573 -0.588295
F9    F     F_    0.375524 0.410748 0.786404 -0.556419
F10   F     F_    0.624480 0.910757 0.213600 -0.556417
F11   F     F_    0.063120 0.142724 0.670192 -0.549322
F12   F     F_    0.936881 0.642708 0.329808 -0.549323
F13   F     F_    0.121440 0.867437 0.718721 -0.515883
F14   F     F_    0.878555 0.367426 0.281275 -0.515881
F15   F     F_    0.234626 0.882829 0.603393 -0.511310
F16   F     F_    0.765371 0.382821 0.396604 -0.511308

loop_
_geom_bond_atom_site_label_1
_geom_bond_atom_site_label_2
_ccdc_geom_bond_type
C3    C6    S    
S4    O31   D    
O1    C3    A    
O2    C4    A    
C2    O7    A    
C7    C26   S    
C17   C28   S    
O5    C3    A    
C21   F3    S    
C26   O17   A    
C18   C27   S    
C22   F10   S    
C21   F9    S    
C19   C21   S    
C13   F7    S    
S1    O22   D    
C9    C17   S    
C16   F12   S    
C1    C20   S    
C13   C17   S    
C2    C19   S    
C14   C22   S    
S2    O25   D    
C16   F14   S    
C15   F13   S    
C4    C5    S    
C15   C17   S    
O29   H7    S    
C8    C25   S    
O5    V1    S    
C12   F6    S    
C11   F5    S    
S4    O32   S    
C23   F15   S    
O14   C26   A    
C10   C18   S    
C15   F11   S    
C14   C18   S    
S3    O27   D    
C20   C24   S    
O4    C2    A    
S1    O23   S    
O15   C27   A    
O17   V3    S    
O18   V4    S    
O23   H5    S    
S3    O28   D    
C16   C18   S    
O4    V2    S    
C19   C23   S    
O32   H8    S    
O11   V4    S    
C9    S1    S    
S2    O24   D    
O12   V3    S    
C10   S2    S    
O14   V4    S    
O6    C4    A    
O1    V2    S    
C24   F16   S    
O2    V1    S    
O13   C25   A    
C11   C19   S    
O13   V3    S    
C9    H1    S    
C10   H2    S    
O3    V1    S    
O15   V3    S    
O19   V4    S    
C12   C20   S    
O16   V4    S    
C9    C11   S    
O20   V3    S    
C24   S4    S    
S2    O26   S    
C23   S3    S    
S4    O30   D    
O3    C1    A    
C11   H3    S    
C12   H4    S    
S3    O29   S    
C20   C22   S    
O7    V1    S    
C1    O8    A    
O8    V2    S    
S1    O21   D    
C22   F4    S    
C25   O18   A    
C5    C7    T    
C15   C23   S    
C6    C8    T    
C16   C24   S    
C14   F8    S    
C14   F2    S    
O16   C28   A    
C13   F1    S    
O6    V2    S    
O26   H6    S    
C10   C12   S    
O9    V2    S    
C13   C21   S    
O10   V1    S    
O11   C27   A    
O12   C28   A    
