data_mof_unit_45376.cif
_audit_creation_date              2012-12-10T16:53:11-0500
_audit_creation_method            fapswitch 2.2
_symmetry_space_group_name_H-M    P1
_symmetry_Int_Tables_number       1
_space_group_crystal_system       triclinic
_cell_length_a                    10.776998
_cell_length_b                    10.932278
_cell_length_c                    9.721926
_cell_angle_alpha                 89.800123
_cell_angle_beta                  90.843171
_cell_angle_gamma                 90.776221
_cell_volume                      1145.17417656

loop_
_atom_site_label
_atom_site_type_symbol
_atom_type_description
_atom_site_fract_x
_atom_site_fract_y
_atom_site_fract_z
_atom_type_partial_charge
C1    C     C_R   0.496271 0.265489 0.500289 0.874001
C2    C     C_R   0.072256 0.621212 0.514077 0.089250
C3    C     C_R   0.129384 0.507498 0.495448 -0.059041
C4    C     C_R   0.059280 0.400842 0.477607 -0.186494
C5    C     C_R   0.931299 0.405541 0.479433 -0.184226
C6    C     C_R   0.871973 0.515280 0.508133 -0.070844
C7    C     C_2   0.469692 0.933974 0.385116 0.480203
C8    C     C_2   0.496332 0.867495 0.498714 -0.420989
C9    C     C_2   0.484233 0.068245 0.386938 -0.273605
C10   C     C_2   0.481714 0.133853 0.502799 -0.395715
C11   C     C_2   0.555080 0.419995 0.925557 -0.004464
C12   C     C_R   0.262694 0.498026 0.498782 0.770427
C13   C     C_2   0.539004 0.409924 0.079042 -0.014393
C14   C     C_R   0.497542 0.734734 0.499353 0.830851
C15   C     C_R   0.737307 0.510653 0.501750 0.784419
C16   C     C_R   0.142422 0.731148 0.511798 -0.173275
C17   C     C_R   0.086345 0.842919 0.532745 -0.152269
C18   C     C_R   0.962066 0.846490 0.567279 -0.180634
C19   C     C_R   0.891266 0.738341 0.577131 -0.029575
C20   C     C_R   0.942428 0.624713 0.534866 0.078184
Cu1   Cu    Cu3+1 0.500020 0.500020 0.638630 0.984133
Cu2   Cu    Cu3+1 0.499980 0.499980 0.361370 0.983857
H1    H     H_    0.103909 0.314001 0.460750 0.134197
H2    H     H_    0.463440 0.092674 0.602033 0.155217
H3    H     H_    0.619741 0.358033 0.878691 0.134903
H4    H     H_    0.566778 0.325710 0.129134 0.136879
H5    H     H_    0.495517 0.583937 0.108397 0.213828
H6    H     H_    0.240514 0.731776 0.490633 0.125723
H7    H     H_    0.141011 0.926674 0.529081 0.133436
H8    H     H_    0.923154 0.933624 0.595695 0.128251
H9    H     H_    0.877876 0.322335 0.460632 0.136457
H10   H     H_    0.520625 0.910061 0.595838 0.114606
H11   H     H_    0.496991 0.113713 0.288508 0.180695
N1    N     N_2   0.498640 0.498660 0.846910 -0.230262
N2    N     N_2   0.498610 0.498630 0.153040 -0.255175
O1    O     O_R   0.500020 0.321960 0.617040 -0.588771
O2    O     O_R   0.499980 0.321920 0.382900 -0.584634
O3    O     O_R   0.319670 0.500020 0.617100 -0.585579
O4    O     O_R   0.319630 0.499980 0.382950 -0.559922
O5    O     O_R   0.500020 0.678080 0.617100 -0.601281
O6    O     O_R   0.499980 0.678040 0.382960 -0.521641
O7    O     O_R   0.680370 0.500020 0.617050 -0.532695
O8    O     O_R   0.680330 0.499980 0.382900 -0.579213
C21   C     C_2   0.385448 0.551939 0.890364 0.594423
H12   H     H_    0.363637 0.644184 0.857736 0.036679
O9    O     O_2   0.307786 0.492193 0.953015 -0.564885
C22   C     C_2   0.778003 0.748659 0.658405 0.364864
H13   H     H_    0.715980 0.823840 0.638985 0.043761
O10   O     O_2   0.761948 0.683769 0.759144 -0.503443
O11   O     O_3   0.443559 0.875884 0.261018 -0.553981
C23   C     C_3   0.326487 0.912794 0.210045 0.060285
H14   H     H_    0.332484 0.006869 0.166502 0.147800
H15   H     H_    0.254829 0.909640 0.291608 0.135939
C24   C     C_3   0.284813 0.826157 0.095889 -0.748413
H16   H     H_    0.278034 0.731152 0.136325 0.263224
H17   H     H_    0.192461 0.853549 0.055106 0.209090
H18   H     H_    0.352579 0.829388 0.010966 0.229836

loop_
_geom_bond_atom_site_label_1
_geom_bond_atom_site_label_2
_ccdc_geom_bond_type
C16   H6    S    
C24   H17   S    
C18   H8    S    
C17   H7    S    
C9    C10   D    
C15   O7    A    
Cu2   O8    S    
Cu1   N1    S    
C1    O2    A    
C23   C24   S    
C10   H2    S    
C12   O4    A    
C17   C18   A    
C6    C15   S    
C15   O8    A    
C7    C8    D    
C22   O10   D    
Cu1   O1    S    
Cu1   Cu2   S    
C9    H11   S    
Cu2   N2    S    
C11   C13   S    
C23   H14   S    
Cu1   O7    S    
Cu1   O5    S    
C6    C20   A    
C14   O6    A    
Cu2   O4    S    
C21   O9    D    
C13   N2    D    
C2    C3    A    
C12   O3    A    
C5    C6    A    
C19   C22   S    
C13   H4    S    
C5    H9    S    
Cu2   O6    S    
C11   H3    S    
C2    C20   A    
C3    C4    A    
C8    H10   S    
C22   H13   S    
C2    C16   A    
C21   H12   S    
C7    O11   S    
C18   C19   A    
C1    C10   S    
C7    C9    S    
N1    C21   S    
C24   H16   S    
C16   C17   A    
C8    C14   S    
C3    C12   S    
O11   C23   S    
H5    N2    S    
C4    H1    S    
Cu2   O2    S    
C14   O5    A    
C11   N1    D    
Cu1   O3    S    
C19   C20   A    
C1    O1    A    
C4    C5    A    
C23   H15   S    
C24   H18   S    
