data_mof_unit_28007.cif
_audit_creation_date              2013-03-05T15:54:00-0500
_audit_creation_method            fapswitch 2.2
_symmetry_space_group_name_H-M    P1
_symmetry_Int_Tables_number       1
_space_group_crystal_system       triclinic
_cell_length_a                    15.713802
_cell_length_b                    10.689997
_cell_length_c                    9.910792
_cell_angle_alpha                 88.792772
_cell_angle_beta                  90.082545
_cell_angle_gamma                 93.215374
_cell_volume                      1661.82990722

loop_
_atom_site_label
_atom_site_type_symbol
_atom_site_description
_atom_site_fract_x
_atom_site_fract_y
_atom_site_fract_z
_atom_type_partial_charge
O1    O     O_R   0.500000 0.316780 0.614690 -0.658075
O2    O     O_R   0.499990 0.316750 0.385360 -0.622141
C1    C     C_R   0.502144 0.260477 0.501795 0.828334
O3    O     O_R   0.377150 0.500020 0.614720 -0.628618
O4    O     O_R   0.377140 0.499990 0.385380 -0.636781
C2    C     C_R   0.338303 0.499073 0.499989 0.885053
Zn1   Zn    Zn3+2 0.500010 0.500020 0.653130 0.965161
Zn2   Zn    Zn3+2 0.499990 0.499980 0.346870 0.976903
O5    O     O_R   0.500010 0.683250 0.614640 -0.629328
O6    O     O_R   0.500000 0.683220 0.385310 -0.594696
O7    O     O_R   0.622860 0.500010 0.614620 -0.584515
O8    O     O_R   0.622850 0.499980 0.385280 -0.595639
C3    C     C_R   0.506918 0.739872 0.498474 0.895159
C4    C     C_R   0.660917 0.491473 0.500131 0.912754
C5    C     C_3   0.048240 0.447900 0.643970 -0.445322
C6    C     C_3   0.046809 0.383725 0.399490 -0.446299
C7    C     C_3   0.947821 0.376740 0.401466 0.117177
H1    H     H_    0.927267 0.342216 0.667553 0.118966
H2    H     H_    0.071099 0.355217 0.676420 0.162615
H3    H     H_    0.071831 0.407385 0.296561 0.224044
H4    H     H_    0.070005 0.290197 0.427822 0.156014
H5    H     H_    0.926290 0.282135 0.442094 0.108116
C8    C     C_1   0.749177 0.479974 0.500184 -0.055533
C9    C     C_3   0.081839 0.482964 0.500331 0.226234
C10   C     C_3   0.949312 0.441356 0.644418 0.132871
C11   C     C_3   0.915962 0.476241 0.500365 0.055280
C12   C     C_3   0.952599 0.608949 0.457071 -0.325738
C13   C     C_3   0.050693 0.612746 0.457634 -0.375879
C14   C     C_1   0.824284 0.474930 0.500248 0.011789
C15   C     C_1   0.173567 0.488388 0.500061 -0.062974
C16   C     C_1   0.249128 0.493736 0.499945 -0.176844
H6    H     H_    0.075640 0.685427 0.528590 0.193391
H7    H     H_    0.075023 0.640108 0.355125 0.197470
H8    H     H_    0.929918 0.681424 0.524810 0.232792
H9    H     H_    0.074624 0.517338 0.717309 0.225727
H10   H     H_    0.929314 0.636024 0.355414 0.220826
H11   H     H_    0.408059 0.106562 0.356835 0.141764
C17   C     C_R   0.623701 0.136993 0.678806 -0.269362
H12   H     H_    0.621679 0.236444 0.690596 0.211625
C18   C     C_R   0.683471 0.076412 0.757483 0.309099
C19   C     C_R   0.697622 0.951623 0.731417 -0.245640
H13   H     H_    0.750471 0.908346 0.780582 0.229231
C20   C     C_R   0.651362 0.887440 0.630615 -0.088689
C21   C     C_R   0.578939 0.941287 0.571707 0.042904
C22   C     C_R   0.569569 0.070154 0.587278 0.042272
C23   C     C_R   0.508519 0.128451 0.505570 -0.046168
C24   C     C_R   0.454678 0.060877 0.418618 -0.198293
H14   H     H_    0.411367 0.881320 0.353456 0.155372
C25   C     C_R   0.457490 0.933583 0.414975 -0.194234
C26   C     C_R   0.517085 0.873476 0.493155 -0.048040
H15   H     H_    0.596811 0.642902 0.122255 0.173891
C27   C     C_R   0.386661 0.333815 0.143280 -0.143487
H16   H     H_    0.382061 0.329344 0.250474 0.191572
C28   C     C_R   0.331551 0.251022 0.074480 -0.188625
H17   H     H_    0.287944 0.187154 0.130117 0.150648
C29   C     C_R   0.332291 0.250240 0.934735 -0.175158
H18   H     H_    0.289298 0.185729 0.881505 0.154733
C30   C     C_R   0.387992 0.332486 0.862893 -0.142310
H19   H     H_    0.384878 0.326988 0.755757 0.198475
C31   C     C_R   0.444667 0.417517 0.929266 0.165530
C32   C     C_R   0.444360 0.417892 0.073886 0.175914
N1    N     N_R   0.499210 0.498800 0.142780 -0.128019
C33   C     C_R   0.553307 0.578637 0.069834 -0.066390
H20   H     H_    0.596672 0.643041 0.871477 0.169817
C34   C     C_R   0.553232 0.578692 0.926677 -0.052691
N2    N     N_R   0.499180 0.498720 0.857170 -0.129280
N3    N     N_R   0.915813 0.519259 0.750505 0.249651
O9    O     O_R   0.943251 0.635463 0.764136 -0.366685
O10   O     O_R   0.862178 0.469120 0.838657 -0.258158
N4    N     N_R   0.734109 0.144225 0.856183 0.223615
O11   O     O_R   0.719033 0.259411 0.883842 -0.322425
O12   O     O_R   0.793948 0.090169 0.922579 -0.333394
C35   C     C_2   0.694858 0.786445 0.564354 0.887003
O13   O     O_2   0.742540 0.721783 0.629600 -0.609351
O14   O     O_R   0.689457 0.775718 0.424098 -0.797143
H21   H     H_    0.731238 0.716540 0.386750 0.339027
N5    N     N_R   0.912322 0.389392 0.264766 0.234274
O15   O     O_R   0.938907 0.479969 0.182807 -0.347264
O16   O     O_R   0.857398 0.303965 0.221124 -0.303908

loop_
_geom_bond_atom_site_label_1
_geom_bond_atom_site_label_2
_geom_bond_distance
_ccdc_geom_bond_type
C20   C35   1.475782 S    
C33   C34   1.418777 A    
C6    H4    1.113588 S    
C35   O14   1.399249 S    
C35   O13   1.222801 D    
C10   N3    1.470964 S    
C20   C21   1.422942 A    
C24   C25   1.365201 A    
N5    O15   1.301656 A    
C27   H16   1.064815 S    
Zn1   O7    1.968354 S    
C11   C12   1.552919 S    
C18   N4    1.441686 S    
C7    C11   1.564542 S    
C8    C14   1.184462 T    
C27   C32   1.409686 A    
C15   C16   1.185526 T    
O7    C4    1.290694 A    
C5    C10   1.552190 S    
C30   C31   1.408833 A    
C29   H18   1.082752 S    
C19   H13   1.083305 S    
O5    C3    1.291230 A    
C17   C22   1.419102 A    
C28   H17   1.082812 S    
C6    C7    1.553210 S    
N4    O11   1.301765 A    
H11   C24   1.084590 S    
C6    H3    1.112802 S    
C2    C16   1.399238 S    
C31   N2    1.374797 A    
C6    C9    1.550767 S    
C19   C20   1.402875 A    
H1    C10   1.115609 S    
O3    Zn1   1.967234 S    
C5    H9    1.112890 S    
C27   C28   1.391382 A    
N5    O16   1.301186 A    
C12   H8    1.109751 S    
C17   H12   1.074220 S    
C28   C29   1.385254 A    
N3    O9    1.301565 A    
C13   H6    1.113519 S    
H15   C33   1.081916 S    
O3    C2    1.289748 A    
C10   C11   1.565025 S    
C22   C23   1.417036 A    
C31   C32   1.433400 A    
N3    O10   1.301015 A    
C4    C8    1.399193 S    
C5    H2    1.113672 S    
O14   H21   1.012626 S    
N1    C33   1.366772 A    
Zn2   O8    1.967232 S    
C7    N5    1.470892 S    
C5    C9    1.550264 S    
H14   C25   1.084801 S    
O8    C4    1.288995 A    
C13   H7    1.113517 S    
C34   N2    1.366927 A    
C21   C22   1.405356 A    
C21   C26   1.420860 A    
Zn1   O5    1.987623 S    
C23   C24   1.391331 A    
C18   C19   1.394172 A    
O1    Zn1   2.003393 S    
O2    Zn2   1.987624 S    
C9    C13   1.547332 S    
O6    C3    1.287369 A    
O4    Zn2   1.968354 S    
C12   H10   1.109616 S    
C1    C23   1.420205 S    
C7    H5    1.115461 S    
H20   C34   1.082120 S    
O2    C1    1.291345 A    
C30   H19   1.065560 S    
Zn1   N2    2.022010 S    
C17   C18   1.397988 A    
O4    C2    1.289803 A    
C29   C30   1.391095 A    
C32   N1    1.377205 A    
C9    C15   1.439300 S    
C3    C26   1.428072 S    
C11   C14   1.439892 S    
Zn2   O6    2.003393 S    
C25   C26   1.390905 A    
C12   C13   1.539687 S    
N4    O12   1.301640 A    
O1    C1    1.282985 A    
Zn2   N1    2.023014 S    
