data_mof_unit_61846.cif
_audit_creation_date              2012-12-10T16:52:56-0500
_audit_creation_method            fapswitch 2.2
_symmetry_space_group_name_H-M    P1
_symmetry_Int_Tables_number       1
_space_group_crystal_system       monoclinic
_cell_length_a                    23.561825
_cell_length_b                    30.72636
_cell_length_c                    19.302348
_cell_angle_alpha                 90.0
_cell_angle_beta                  127.201355
_cell_angle_gamma                 90.0
_cell_volume                      11130.7512816

loop_
_atom_site_label
_atom_site_type_symbol
_atom_type_description
_atom_site_fract_x
_atom_site_fract_y
_atom_site_fract_z
_atom_type_partial_charge
C1    C     C_R   0.807201 0.190340 0.119134 0.953140
C2    C     C_R   0.359415 0.749907 0.999856 0.906912
C3    C     C_R   0.359415 0.250093 0.999856 0.906911
C4    C     C_R   0.640585 0.749907 0.000144 0.906911
C5    C     C_R   0.140585 0.750093 0.000144 0.906912
C6    C     C_R   0.859415 0.249907 0.999856 0.906912
C7    C     C_R   0.859415 0.750093 0.999856 0.906911
C8    C     C_R   0.140585 0.249907 0.000144 0.906912
C9    C     C_1   0.580465 0.250298 0.000240 -0.186843
C10   C     C_1   0.419535 0.749702 0.999760 -0.186843
C11   C     C_1   0.419535 0.250298 0.999760 -0.186843
C12   C     C_R   0.192799 0.809659 0.880866 0.953141
C13   C     C_1   0.580465 0.749702 0.000240 -0.186843
C14   C     C_1   0.080465 0.750298 0.000240 -0.186843
C15   C     C_1   0.919535 0.249702 0.999760 -0.186843
C16   C     C_1   0.919535 0.750298 0.999760 -0.186843
C17   C     C_1   0.080465 0.249702 0.000240 -0.186843
C18   C     C_1   0.529671 0.250387 0.000118 0.006477
C19   C     C_1   0.470329 0.749613 0.999882 0.006477
C20   C     C_1   0.470329 0.250387 0.999882 0.006477
C21   C     C_1   0.529671 0.749613 0.000118 0.006477
C22   C     C_1   0.029671 0.750387 0.000118 0.006477
C23   C     C_R   0.192799 0.190340 0.880866 0.953140
C24   C     C_1   0.970329 0.249613 0.999882 0.006477
C25   C     C_1   0.970329 0.750387 0.999882 0.006477
C26   C     C_1   0.029671 0.249613 0.000118 0.006477
C27   C     C_2   0.879602 0.131226 0.329400 0.269010
C28   C     C_2   0.120398 0.868774 0.670600 0.269010
C29   C     C_2   0.120398 0.131226 0.670600 0.269010
C30   C     C_2   0.879602 0.868774 0.329400 0.269010
C31   C     C_2   0.379602 0.631226 0.329400 0.269010
C32   C     C_2   0.620398 0.368774 0.670600 0.269010
C33   C     C_2   0.620398 0.631226 0.670600 0.269010
C34   C     C_R   0.807201 0.809659 0.119134 0.953140
C35   C     C_2   0.379602 0.368774 0.329400 0.269010
C36   C     C_2   0.915710 0.098220 0.326439 -0.425152
C37   C     C_2   0.084290 0.901780 0.673561 -0.425151
C38   C     C_2   0.084290 0.098220 0.673561 -0.425152
C39   C     C_2   0.915710 0.901780 0.326439 -0.425151
C40   C     C_2   0.415710 0.598220 0.326439 -0.425152
C41   C     C_2   0.584290 0.401780 0.673561 -0.425151
C42   C     C_2   0.584290 0.598220 0.673561 -0.425151
C43   C     C_2   0.415710 0.401780 0.326439 -0.425151
C44   C     C_2   0.853929 0.166192 0.264470 -0.185667
C45   C     C_R   0.307201 0.690340 0.119134 0.953140
C46   C     C_2   0.146071 0.833808 0.735530 -0.185667
C47   C     C_2   0.146071 0.166192 0.735530 -0.185667
C48   C     C_2   0.853928 0.833808 0.264470 -0.185667
C49   C     C_2   0.353928 0.666192 0.264470 -0.185667
C50   C     C_2   0.646071 0.333808 0.735530 -0.185667
C51   C     C_2   0.646071 0.666192 0.735530 -0.185667
C52   C     C_2   0.353928 0.333808 0.264470 -0.185667
C53   C     C_2   0.831137 0.156807 0.183641 -0.387391
C54   C     C_2   0.168863 0.843193 0.816359 -0.387391
C55   C     C_2   0.168863 0.156807 0.816359 -0.387391
C56   C     C_R   0.692799 0.309659 0.880866 0.953141
C57   C     C_2   0.831137 0.843193 0.183641 -0.387391
C58   C     C_2   0.331137 0.656807 0.183641 -0.387391
C59   C     C_2   0.668863 0.343193 0.816359 -0.387391
C60   C     C_2   0.668863 0.656807 0.816359 -0.387391
C61   C     C_2   0.331137 0.343193 0.183641 -0.387391
C62   C     C_R   0.442285 0.438848 0.383883 0.919221
C63   C     C_R   0.557715 0.561152 0.616117 0.919221
C64   C     C_R   0.557715 0.438848 0.616117 0.919220
C65   C     C_R   0.442285 0.561152 0.383883 0.919220
C66   C     C_R   0.942285 0.938848 0.383883 0.919221
C67   C     C_R   0.692799 0.690340 0.880866 0.953140
C68   C     C_R   0.057715 0.061151 0.616117 0.919221
C69   C     C_R   0.057715 0.938848 0.616117 0.919220
C70   C     C_R   0.942285 0.061151 0.383883 0.919220
C71   C     C_3   0.829683 0.168977 0.395392 -0.783339
C72   C     C_3   0.170317 0.831023 0.604608 -0.783338
C73   C     C_3   0.170318 0.168977 0.604609 -0.783336
C74   C     C_3   0.829683 0.831023 0.395392 -0.783340
C75   C     C_3   0.329683 0.668977 0.395392 -0.783340
C76   C     C_3   0.670317 0.331023 0.604608 -0.783339
C77   C     C_3   0.670317 0.668977 0.604608 -0.783339
C78   C     C_R   0.307201 0.309659 0.119134 0.953140
C79   C     C_3   0.329683 0.331023 0.395392 -0.783340
C80   C     C_R   0.640585 0.250093 0.000144 0.906911
H1    H     H_    0.931148 0.099836 0.283605 0.147434
H2    H     H_    0.146768 0.800484 0.717326 0.177658
H3    H     H_    0.146769 0.199516 0.717326 0.177658
H4    H     H_    0.853231 0.800484 0.282674 0.177658
H5    H     H_    0.353231 0.699516 0.282674 0.177658
H6    H     H_    0.646768 0.300484 0.717326 0.177658
H7    H     H_    0.646768 0.699516 0.717326 0.177658
H8    H     H_    0.353231 0.300484 0.282674 0.177658
H9    H     H_    0.826062 0.123285 0.162597 0.163692
H10   H     H_    0.173938 0.876715 0.837403 0.163692
H11   H     H_    0.173938 0.123285 0.837403 0.163692
H12   H     H_    0.068851 0.900164 0.716395 0.147433
H13   H     H_    0.826062 0.876715 0.162597 0.163692
H14   H     H_    0.326062 0.623285 0.162597 0.163692
H15   H     H_    0.673938 0.376715 0.837403 0.163692
H16   H     H_    0.673938 0.623285 0.837403 0.163692
H17   H     H_    0.326062 0.376715 0.162597 0.163692
H18   H     H_    0.913986 0.124414 0.457484 0.225177
H19   H     H_    0.820787 0.162984 0.444889 0.242144
H20   H     H_    0.776815 0.171493 0.330783 0.254153
H21   H     H_    0.859553 0.199970 0.411622 0.226574
H22   H     H_    0.086014 0.875586 0.542516 0.225177
H23   H     H_    0.068851 0.099836 0.716395 0.147434
H24   H     H_    0.179214 0.837016 0.555111 0.242144
H25   H     H_    0.140448 0.800030 0.588379 0.226574
H26   H     H_    0.223186 0.828507 0.669217 0.254153
H27   H     H_    0.086015 0.124414 0.542516 0.225177
H28   H     H_    0.179214 0.162984 0.555112 0.242144
H29   H     H_    0.223186 0.171492 0.669218 0.254152
H30   H     H_    0.140448 0.199970 0.588379 0.226573
H31   H     H_    0.913985 0.875586 0.457484 0.225177
H32   H     H_    0.820786 0.837016 0.444889 0.242144
H33   H     H_    0.859552 0.800030 0.411621 0.226575
H34   H     H_    0.931148 0.900164 0.283605 0.147434
H35   H     H_    0.776814 0.828507 0.330783 0.254153
H36   H     H_    0.413986 0.624414 0.457484 0.225177
H37   H     H_    0.320787 0.662984 0.444889 0.242144
H38   H     H_    0.276814 0.671493 0.330783 0.254153
H39   H     H_    0.359553 0.699970 0.411621 0.226574
H40   H     H_    0.586014 0.375586 0.542516 0.225177
H41   H     H_    0.679213 0.337016 0.555111 0.242144
H42   H     H_    0.640447 0.300030 0.588379 0.226574
H43   H     H_    0.723186 0.328507 0.669217 0.254153
H44   H     H_    0.586015 0.624414 0.542516 0.225177
H45   H     H_    0.431148 0.599836 0.283605 0.147434
H46   H     H_    0.679213 0.662984 0.555111 0.242144
H47   H     H_    0.723186 0.671493 0.669217 0.254153
H48   H     H_    0.640447 0.699970 0.588379 0.226574
H49   H     H_    0.413985 0.375586 0.457484 0.225177
H50   H     H_    0.320787 0.337016 0.444889 0.242145
H51   H     H_    0.359552 0.300030 0.411621 0.226575
H52   H     H_    0.276814 0.328507 0.330783 0.254153
H53   H     H_    0.568851 0.400164 0.716395 0.147434
H54   H     H_    0.568851 0.599836 0.716395 0.147434
H55   H     H_    0.431148 0.400164 0.283605 0.147434
H56   H     H_    0.853232 0.199516 0.282674 0.177658
N1    N     N_2   0.870159 0.133315 0.396143 -0.273636
N2    N     N_2   0.129841 0.866685 0.603857 -0.273636
N3    N     N_2   0.129841 0.133314 0.603857 -0.273636
N4    N     N_2   0.870159 0.866685 0.396143 -0.273636
N5    N     N_2   0.370159 0.633314 0.396143 -0.273636
N6    N     N_2   0.629841 0.366685 0.603857 -0.273636
N7    N     N_2   0.629841 0.633314 0.603857 -0.273636
N8    N     N_2   0.370159 0.366685 0.396143 -0.273636
O1    O     O_R   0.820770 0.230320 0.141550 -0.620668
O2    O     O_R   0.230290 0.820740 0.960580 -0.620603
O3    O     O_R   0.230290 0.179260 0.960580 -0.620603
O4    O     O_R   0.769710 0.820740 0.039420 -0.620603
O5    O     O_R   0.269710 0.679260 0.039420 -0.620603
O6    O     O_R   0.730290 0.320740 0.960580 -0.620602
O7    O     O_R   0.730290 0.679260 0.960580 -0.620602
O8    O     O_R   0.269710 0.320740 0.039420 -0.620603
O9    O     O_R   0.692770 0.275550 0.051090 -0.618237
O10   O     O_R   0.307230 0.724450 0.948910 -0.618237
O11   O     O_R   0.307230 0.275550 0.948910 -0.618237
O12   O     O_R   0.179230 0.769680 0.858450 -0.620668
O13   O     O_R   0.692770 0.724450 0.051090 -0.618237
O14   O     O_R   0.192770 0.775550 0.051090 -0.618237
O15   O     O_R   0.807230 0.224450 0.948910 -0.618237
O16   O     O_R   0.807230 0.775550 0.948910 -0.618237
O17   O     O_R   0.192770 0.224450 0.051090 -0.618237
O18   O     O_R   0.641720 0.224490 0.948960 -0.613794
O19   O     O_R   0.358280 0.775510 0.051040 -0.613794
O20   O     O_R   0.358280 0.224490 0.051040 -0.613794
O21   O     O_R   0.641720 0.775510 0.948960 -0.613794
O22   O     O_R   0.141720 0.724490 0.948960 -0.613794
O23   O     O_R   0.179230 0.230320 0.858450 -0.620668
O24   O     O_R   0.858280 0.275510 0.051040 -0.613794
O25   O     O_R   0.858280 0.724490 0.051040 -0.613794
O26   O     O_R   0.141720 0.275510 0.948960 -0.613794
O27   O     O_R   0.501540 0.454790 0.409570 -0.626827
O28   O     O_R   0.498460 0.545210 0.590430 -0.626827
O29   O     O_R   0.498460 0.454790 0.590430 -0.626827
O30   O     O_R   0.501540 0.545210 0.409570 -0.626827
O31   O     O_R   0.001540 0.954790 0.409570 -0.626827
O32   O     O_R   0.998460 0.045210 0.590430 -0.626827
O33   O     O_R   0.998460 0.954790 0.590430 -0.626827
O34   O     O_R   0.820770 0.769680 0.141550 -0.620668
O35   O     O_R   0.001540 0.045210 0.409570 -0.626827
O36   O     O_R   0.408080 0.454790 0.409570 -0.597977
O37   O     O_R   0.591920 0.545210 0.590430 -0.597977
O38   O     O_R   0.591920 0.454790 0.590430 -0.597976
O39   O     O_R   0.408080 0.545210 0.409570 -0.597976
O40   O     O_R   0.908080 0.954790 0.409570 -0.597977
O41   O     O_R   0.091920 0.045210 0.590430 -0.597977
O42   O     O_R   0.091920 0.954790 0.590430 -0.597976
O43   O     O_R   0.908080 0.045210 0.409570 -0.597976
O44   O     O_R   0.320770 0.730320 0.141550 -0.620668
O45   O     O_R   0.679230 0.269680 0.858450 -0.620668
O46   O     O_R   0.679230 0.730320 0.858450 -0.620668
O47   O     O_R   0.320770 0.269680 0.141550 -0.620668
O48   O     O_R   0.769710 0.179260 0.039420 -0.620603
Zn1   Zn    Zn3+2 0.784110 0.284120 0.068220 0.962385
Zn2   Zn    Zn3+2 0.062380 0.000000 0.499980 0.972311
Zn3   Zn    Zn3+2 0.437620 0.500000 0.500020 0.972311
Zn4   Zn    Zn3+2 0.562380 0.500000 0.499980 0.972311
Zn5   Zn    Zn3+2 0.215890 0.715880 0.931780 0.962385
Zn6   Zn    Zn3+2 0.215890 0.284120 0.931780 0.962385
Zn7   Zn    Zn3+2 0.784110 0.715880 0.068220 0.962385
Zn8   Zn    Zn3+2 0.284110 0.784120 0.068220 0.962385
Zn9   Zn    Zn3+2 0.715890 0.215880 0.931780 0.962385
Zn10  Zn    Zn3+2 0.715890 0.784120 0.931780 0.962385
Zn11  Zn    Zn3+2 0.284110 0.215880 0.068220 0.962385
Zn12  Zn    Zn3+2 0.937620 0.000000 0.500020 0.972311

loop_
_geom_bond_atom_site_label_1
_geom_bond_atom_site_label_2
_ccdc_geom_bond_type
C44   H56   S    
O34   Zn7   S    
O30   Zn4   S    
O40   Zn12  S    
C37   C69   S    
C65   O30   A    
C42   C63   S    
C48   C57   D    
O32   Zn12  S    
C1    O1    A    
O12   Zn5   S    
C75   H37   S    
O42   Zn2   S    
O41   Zn2   S    
C41   H53   S    
C6    O15   A    
C68   O32   A    
C67   O46   A    
C78   O8    A    
C80   O9    A    
C71   N1    S    
H49   N8    S    
C31   C40   D    
C62   O27   A    
C28   C46   S    
C27   N1    S    
C59   H15   S    
C29   C47   S    
C63   O37   A    
C33   C42   D    
C30   C48   S    
O24   Zn1   S    
C19   C21   S    
C12   O12   A    
C54   H10   S    
C52   C61   D    
C62   O36   A    
C70   O35   A    
O15   Zn9   S    
C40   H45   S    
C4    O21   A    
H22   N2    S    
C12   O2    A    
C4    C13   S    
O37   Zn4   S    
C1    C53   S    
C55   H11   S    
C75   N5    S    
C69   O33   A    
C6    C15   S    
C46   H2    S    
C34   O4    A    
C27   C44   S    
C79   N8    S    
C60   C67   S    
C8    O26   A    
C22   C25   S    
C29   C38   D    
O29   Zn3   S    
C34   C57   S    
O39   Zn3   S    
O48   Zn9   S    
H44   N7    S    
C47   H3    S    
C35   C43   D    
C36   H1    S    
O31   Zn2   S    
O1    Zn1   S    
C77   H47   S    
C74   N4    S    
C35   N8    S    
O25   Zn7   S    
C64   O38   A    
C72   N2    S    
C71   H21   S    
C2    O10   A    
C57   H13   S    
H27   N3    S    
C74   H35   S    
C75   H38   S    
O47   Zn11  S    
C31   C49   S    
C44   C53   D    
C36   C70   S    
H31   N4    S    
C29   N3    S    
C6    O24   A    
C45   C58   S    
C30   N4    S    
O18   Zn9   S    
C67   O7    A    
C49   H5    S    
C73   H30   S    
C74   H32   S    
H40   N6    S    
C45   O5    A    
C51   H7    S    
O10   Zn5   S    
O46   Zn10  S    
C73   H28   S    
C7    O16   A    
C73   N3    S    
O45   Zn9   S    
C74   H33   S    
C71   H19   S    
C11   C20   T    
C33   N7    S    
C49   C58   D    
C48   H4    S    
O13   Zn7   S    
C9    C80   S    
C31   N5    S    
O21   Zn10  S    
C77   N7    S    
O6    Zn1   S    
C38   H23   S    
O20   Zn11  S    
O7    Zn7   S    
O14   Zn8   S    
C4    O13   A    
C52   H8    S    
C10   C19   T    
C32   C41   D    
C39   H34   S    
C79   H51   S    
C46   C54   D    
C3    O11   A    
O33   Zn12  S    
O8    Zn6   S    
C5    O22   A    
C43   H55   S    
C77   H48   S    
C32   C50   S    
C5    C14   S    
O36   Zn3   S    
C70   O43   A    
C23   O23   A    
C3    O20   A    
C7    C16   S    
C72   H26   S    
C68   O41   A    
C40   C65   S    
C7    O25   A    
C53   H9    S    
C39   C66   S    
C66   O31   A    
C34   O34   A    
O38   Zn4   S    
C50   C59   D    
C56   O6    A    
C2    C10   S    
C28   N2    S    
C60   H16   S    
O26   Zn6   S    
C47   C55   D    
C65   O39   A    
C16   C25   T    
C66   O40   A    
C56   O45   A    
C15   C24   T    
O11   Zn6   S    
C37   H12   S    
O4    Zn10  S    
C76   H43   S    
C32   N6    S    
O17   Zn11  S    
C61   H17   S    
C78   O47   A    
C24   C26   S    
C38   C68   S    
O27   Zn4   S    
C2    O19   A    
O19   Zn8   S    
C45   O44   A    
C23   C55   S    
H18   N1    S    
C27   C36   D    
C33   C51   S    
C72   H24   S    
C71   H20   S    
C8    C17   S    
C56   C59   S    
C42   H54   S    
C8    O17   A    
C76   H42   S    
C14   C22   T    
O3    Zn11  S    
C58   H14   S    
O22   Zn5   S    
C75   H39   S    
C13   C21   T    
O16   Zn10  S    
C79   H50   S    
C63   O28   A    
C23   O3    A    
C28   C37   D    
C79   H52   S    
O43   Zn12  S    
O23   Zn6   S    
C17   C26   T    
C30   C39   D    
C18   C20   S    
C73   H29   S    
O2    Zn8   S    
C76   H41   S    
C61   C78   S    
C3    C11   S    
C50   H6    S    
H36   N5    S    
C1    O48   A    
C9    C18   T    
O9    Zn1   S    
C72   H25   S    
C5    O14   A    
C80   O18   A    
C35   C52   S    
O44   Zn8   S    
O28   Zn3   S    
C51   C60   D    
C41   C64   S    
C64   O29   A    
C69   O42   A    
C12   C54   S    
C77   H46   S    
C43   C62   S    
O5    Zn5   S    
O35   Zn2   S    
C76   N6    S    
