data_mof_unit_6175.cif
_audit_creation_date              2013-03-05T16:07:51-0500
_audit_creation_method            fapswitch 2.2
_symmetry_space_group_name_H-M    P1
_symmetry_Int_Tables_number       1
_space_group_crystal_system       triclinic
_cell_length_a                    8.247883
_cell_length_b                    14.933027
_cell_length_c                    18.85411
_cell_angle_alpha                 101.309058
_cell_angle_beta                  91.322199
_cell_angle_gamma                 98.780108
_cell_volume                      2247.04104364

loop_
_atom_site_label
_atom_site_type_symbol
_atom_site_description
_atom_site_fract_x
_atom_site_fract_y
_atom_site_fract_z
_atom_type_partial_charge
P1    P     P_3+3 0.039440 0.410950 0.333260 0.454390
O1    O     O_2   0.871970 0.437290 0.322980 -0.384673
O2    O     O_3   0.121420 0.444460 0.412460 -0.402781
O3    O     O_3   0.661430 0.607560 0.372520 -0.375766
O4    O     O_2   0.767946 0.543689 0.248082 -0.354456
O5    O     O_3   0.008670 0.290309 0.306417 -0.566799
O6    O     O_3   0.738301 0.718517 0.276599 -0.443160
H1    H     H_    0.609465 0.772015 0.364259 0.057739
C1    C     C_3   0.727052 0.879811 0.314332 -0.858195
H2    H     H_    0.835170 0.893730 0.353320 0.272820
H3    H     H_    0.768684 0.890232 0.260533 0.284827
P2    P     P_3+3 0.676740 0.714970 0.563520 0.492204
P3    P     P_3+3 0.128361 0.775313 0.414331 0.443825
O7    O     O_2   0.852280 0.726960 0.542370 -0.391710
O8    O     O_3   0.083990 0.657360 0.410240 -0.377251
O9    O     O_2   0.002015 0.821843 0.461803 -0.391103
O10   O     O_3   0.687230 0.747960 0.657877 -0.513850
O11   O     O_3   0.088166 0.796256 0.328040 -0.523820
C2    C     C_3   0.137175 0.726033 0.275998 0.499711
H4    H     H_    0.048949 0.660853 0.271369 0.157356
H5    H     H_    0.261982 0.713360 0.289843 -0.035950
C3    C     C_3   0.138639 0.755167 0.203100 -0.848731
H6    H     H_    0.015067 0.768859 0.188149 0.311060
H7    H     H_    0.229779 0.818891 0.205910 0.240402
C4    C     C_3   0.247501 0.745524 0.628128 0.257885
H8    H     H_    0.370709 0.728056 0.617499 0.114456
H9    H     H_    0.163680 0.717365 0.579264 0.091691
C5    C     C_3   0.256666 0.850721 0.644822 -0.140199
H10   H     H_    0.313425 0.880865 0.600340 0.068648
H11   H     H_    0.130137 0.867645 0.648387 0.126714
Ba1   Ba    Ba6+2 0.853510 0.540900 0.466480 1.573617
C6    C     C_3   0.949034 0.249381 0.362868 0.419991
H12   H     H_    0.826465 0.267596 0.374596 0.091360
H13   H     H_    0.034003 0.271777 0.411863 0.113288
C7    C     C_3   0.933516 0.144821 0.338452 -0.989262
H14   H     H_    0.848011 0.120597 0.289739 0.279033
H15   H     H_    0.885350 0.109420 0.381799 0.211516
H16   H     H_    0.055814 0.125624 0.325180 0.266868
C8    C     C_3   0.793719 0.700345 0.688920 0.380580
H17   H     H_    0.887373 0.676232 0.652525 0.090677
H18   H     H_    0.720305 0.638723 0.703106 0.121425
C9    C     C_3   0.881833 0.765096 0.755891 -0.647309
H19   H     H_    0.968138 0.820972 0.739641 0.239815
H20   H     H_    0.951459 0.726491 0.787262 0.198202
H21   H     H_    0.792522 0.798304 0.790759 0.318239
P4    P     P_3+3 0.150270 0.589130 0.666750 0.473892
O12   O     O_2   0.317740 0.562750 0.677070 -0.327176
O13   O     O_3   0.068290 0.555610 0.587550 -0.406685
O14   O     O_3   0.528280 0.392520 0.627490 -0.356451
O15   O     O_3   0.190860 0.710324 0.688084 -0.557554
P5    P     P_3+3 0.065067 0.223036 0.583090 0.490495
O16   O     O_3   0.609300 0.386850 0.459730 -0.390551
O17   O     O_3   0.105720 0.342720 0.589770 -0.397597
O18   O     O_2   0.212414 0.180580 0.549567 -0.427990
O19   O     O_3   0.061473 0.201947 0.671594 -0.498322
Ba2   Ba    Ba6+2 0.336320 0.459170 0.533530 1.589715
P6    P     P_3+3 0.645503 0.606501 0.281462 0.501542
C10   C     C_3   0.637962 0.781395 0.308852 0.485001
H22   H     H_    0.522826 0.772752 0.274956 0.041562
H23   H     H_    0.643026 0.929782 0.333571 0.198197
O20   O     O_3   0.580410 0.613230 0.540280 -0.388579
C11   C     C_3   0.460685 0.320514 0.309404 0.440785
H24   H     H_    0.347820 0.343254 0.332368 0.097667
H25   H     H_    0.565164 0.378414 0.323031 0.124594
C12   C     C_3   0.434690 0.293986 0.227386 -0.996611
H26   H     H_    0.323458 0.240646 0.212188 0.279292
H27   H     H_    0.418660 0.355424 0.204737 0.219678
H28   H     H_    0.543073 0.265900 0.203757 0.261583
P7    P     P_3+3 0.516233 0.272028 0.430186 0.425266
O21   O     O_2   0.337420 0.273080 0.457680 -0.374178
O22   O     O_3   0.494304 0.243296 0.335554 -0.575333
H29   H     H_    0.172236 0.699636 0.160580 0.217852
C13   C     C_3   0.097468 0.286543 0.722005 0.534847
H30   H     H_    0.217068 0.324052 0.712541 0.135541
H31   H     H_    0.007420 0.332800 0.717579 0.108900
C14   C     C_3   0.097590 0.269714 0.799098 -0.918249
H32   H     H_    0.131666 0.336652 0.837947 0.213837
H33   H     H_    0.973406 0.237143 0.810586 0.289110
H34   H     H_    0.187682 0.224284 0.807419 0.272818
P8    P     P_3+3 0.546944 0.401718 0.722084 0.473417
C15   C     C_3   0.498883 0.219080 0.691257 0.743485
O23   O     O_2   0.425539 0.464753 0.756439 -0.395779
O24   O     O_3   0.478074 0.294345 0.746614 -0.622752
H35   H     H_    0.444172 0.226080 0.638846 0.087094
H36   H     H_    0.432829 0.069015 0.667176 0.235375
C16   C     C_3   0.410467 0.128795 0.709065 -0.833108
H37   H     H_    0.276610 0.127245 0.709545 0.257911
H38   H     H_    0.455403 0.120398 0.763008 0.285726
C17   C     C_R   0.994012 0.461510 0.047327 0.061047
C18   C     C_R   0.896453 0.413782 0.092723 0.142263
C19   C     C_R   0.737216 0.369070 0.067639 -0.145936
C20   C     C_R   0.675425 0.371268 0.998325 -0.165392
C21   C     C_R   0.772650 0.416581 0.951777 0.119887
C22   C     C_R   0.932555 0.461792 0.976104 0.028749
C23   C     C_R   0.712302 0.416596 0.881335 -0.204271
C24   C     C_R   0.811959 0.457356 0.832402 -0.067171
C25   C     C_R   0.972066 0.503938 0.856967 -0.012322
C26   C     C_R   0.030216 0.507506 0.929420 0.027146
C27   C     C_R   0.757300 0.453538 0.759700 0.321686
C28   C     C_R   0.864998 0.489810 0.712045 -0.463320
C29   C     C_R   0.022379 0.537310 0.735145 0.169149
C30   C     C_R   0.074081 0.547524 0.809489 -0.099727
C31   C     C_R   0.152482 0.508398 0.072800 0.003190
C32   C     C_R   0.213476 0.509511 0.144807 -0.017453
C33   C     C_R   0.111487 0.462995 0.191590 -0.014095
C34   C     C_R   0.957056 0.412528 0.162864 -0.141885
H39   H     H_    0.659437 0.332947 0.101953 0.128689
H40   H     H_    0.551770 0.336504 0.980817 0.139462
H41   H     H_    0.823287 0.483762 0.656227 0.183208
H42   H     H_    0.587769 0.383406 0.865280 0.187325
H43   H     H_    0.880184 0.372690 0.194938 0.164624
C35   C     C_R   0.224642 0.600511 0.837881 -0.022172
C36   C     C_R   0.282226 0.605872 0.909705 -0.077052
C37   C     C_R   0.186803 0.556134 0.955089 0.005817
C38   C     C_R   0.248065 0.555740 0.026325 -0.017694
C39   C     C_R   0.436081 0.657466 0.936917 0.463509
C40   C     C_R   0.499059 0.650461 0.004016 -0.228357
C41   C     C_R   0.406398 0.602015 0.050225 -0.074719
C42   C     C_R   0.375479 0.556843 0.169273 -0.205413
C43   C     C_R   0.471910 0.601237 0.119783 0.324409
C44   C     C_R   0.430823 0.559146 0.242298 0.150587
C45   C     C_R   0.322841 0.518882 0.288857 -0.503483
C46   C     C_R   0.165482 0.469359 0.265576 0.254369
H44   H     H_    0.299041 0.636321 0.803150 0.231620
H45   H     H_    0.623763 0.683742 0.019254 0.236002
H46   H     H_    0.365368 0.522484 0.344189 0.172193
C47   C     C_R   0.340009 0.820146 0.452205 0.152623
H47   H     H_    0.369927 0.688159 0.475654 0.183176
H48   H     H_    0.210535 0.951478 0.399969 0.186004
C48   C     C_R   0.578342 0.791380 0.516622 0.327263
C49   C     C_R   0.776109 0.227558 0.504904 -0.429063
C50   C     C_R   0.869922 0.170316 0.531565 0.357609
C51   C     C_R   0.806210 0.077024 0.526828 -0.262169
C52   C     C_R   0.646474 0.039505 0.494824 0.038580
C53   C     C_R   0.556261 0.098560 0.464596 -0.000909
C54   C     C_R   0.573140 0.945548 0.491505 0.040310
C55   C     C_R   0.413751 0.912750 0.456627 0.002430
C56   C     C_R   0.331319 0.972766 0.426555 -0.199238
C57   C     C_R   0.401660 0.063071 0.429671 -0.108354
C58   C     C_R   0.650797 0.883519 0.523027 -0.235140
C59   C     C_R   0.425896 0.759483 0.479604 -0.557455
C60   C     C_R   0.621853 0.192538 0.470520 0.193641
H49   H     H_    0.766517 0.904604 0.553835 0.163196
H50   H     H_    0.824505 0.300361 0.510750 0.170543
H51   H     H_    0.883313 0.036610 0.549588 0.160184
H52   H     H_    0.330694 0.104428 0.404405 0.169817
N1    N     N_R   0.352411 0.892211 0.712473 0.298182
O25   O     O_R   0.510712 0.894655 0.715998 -0.308624
O26   O     O_R   0.281538 0.932109 0.768262 -0.334612
N2    N     N_R   0.672741 0.214629 0.683987 0.205353
O27   O     O_R   0.759539 0.275594 0.654391 -0.500657
O28   O     O_R   0.740158 0.148713 0.702671 -0.378312
S1    S     S_3+6 0.564207 0.724057 0.886539 -0.039432
O29   O     O_2   0.469641 0.782509 0.850121 -0.203893
O30   O     O_2   0.703321 0.786137 0.933397 -0.280249
O31   O     O_3   0.639428 0.647443 0.824377 -0.582597
H53   H     H_    0.734870 0.632418 0.849799 0.337472
N3    N     N_R   0.635435 0.649348 0.138653 0.241989
O32   O     O_R   0.757320 0.605412 0.119995 -0.398845
O33   O     O_R   0.660647 0.739197 0.147429 -0.414886

loop_
_geom_bond_atom_site_label_1
_geom_bond_atom_site_label_2
_geom_bond_distance
_ccdc_geom_bond_type
O5    C6    1.391338 S    
C57   H52   1.078803 S    
C21   C22   1.408695 A    
C13   H30   1.094209 S    
Ba1   O20   2.911083 S    
C30   C35   1.399263 A    
C23   C24   1.414128 A    
C58   H49   1.076306 S    
Ba1   O16   2.797148 S    
C54   C58   1.414548 A    
C48   C58   1.394751 A    
C37   C38   1.425467 A    
C8    H18   1.104019 S    
H36   C16   1.111359 S    
C4    C5    1.530116 S    
C53   C57   1.399462 A    
C5    H10   1.107692 S    
C29   C30   1.427785 A    
P2    C48   1.840573 S    
P3    O11   1.749549 S    
C20   C21   1.403872 A    
O31   H53   0.989165 S    
C2    H5    1.109075 S    
C14   H33   1.109982 S    
C35   H44   1.070982 S    
O10   C8    1.396327 S    
C16   H38   1.110986 S    
C26   C37   1.405898 A    
C22   C26   1.410694 A    
C15   N2    1.453969 S    
C24   C27   1.420708 A    
P1    Ba1   3.406008 S    
C39   C40   1.385418 A    
C33   C46   1.435132 A    
P1    O1    1.511160 D    
C47   C59   1.397093 A    
C17   C22   1.425350 A    
P7    O22   1.749664 S    
C48   C59   1.393283 A    
C4    O15   1.398155 S    
C32   C33   1.436763 A    
C11   H25   1.109665 S    
O16   P7    1.744526 S    
N1    O25   1.300377 A    
H1    C10   1.106720 S    
C20   H40   1.083636 S    
C53   C60   1.406606 A    
H48   C56   1.078210 S    
C2    H4    1.109966 S    
C50   C51   1.396594 A    
C12   H27   1.108893 S    
P2    O10   1.746775 S    
C14   H34   1.107813 S    
Ba1   Ba2   4.560901 S    
S1    O30   1.504574 D    
P5    O18   1.546578 D    
H47   C59   1.081779 S    
O7    Ba1   2.866566 S    
O6    C10   1.404575 S    
P5    O19   1.757861 S    
C15   C16   1.533276 S    
C32   C42   1.432861 A    
C12   H28   1.110424 S    
C55   C56   1.398011 A    
C28   H41   1.081934 S    
C21   C23   1.407585 A    
C17   C31   1.410333 A    
C43   N3    1.429550 S    
C13   H31   1.100948 S    
C9    H20   1.109540 S    
P8    O24   1.769865 S    
C3    H29   1.107598 S    
C35   C36   1.407820 A    
C15   O24   1.410349 S    
C25   C26   1.425611 A    
C8    C9    1.523720 S    
C34   H43   1.079462 S    
C42   C44   1.432761 A    
P4    C29   1.891904 S    
P4    O13   1.579387 S    
N1    O26   1.300745 A    
P1    O5    1.750129 S    
C6    C7    1.523347 S    
C19   H39   1.082336 S    
C7    H16   1.110895 S    
C14   H32   1.110061 S    
C18   C34   1.407524 A    
P8    O23   1.544935 D    
C8    H17   1.099845 S    
C16   H37   1.101027 S    
O11   C2    1.403548 S    
C52   C54   1.429362 A    
P7    C60   1.839938 S    
O1    Ba1   2.861166 S    
P1    O2    1.579374 S    
C9    H21   1.107576 S    
C6    H13   1.110725 S    
C45   H46   1.081484 S    
C31   C38   1.412014 A    
P1    C46   1.921188 S    
C11   H24   1.107597 S    
P3    C47   1.844893 S    
O2    Ba2   2.810381 S    
C27   C28   1.403749 A    
C42   C43   1.434801 A    
C38   C41   1.400433 A    
C24   C25   1.416754 A    
C2    C3    1.520573 S    
C39   S1    1.761742 S    
C4    H8    1.100317 S    
S1    O31   1.670857 S    
O2    Ba1   2.914475 S    
C1    H3    1.110258 S    
C44   C45   1.415949 A    
C49   C60   1.392238 A    
P2    O7    1.504260 D    
Ba2   O21   2.866551 S    
Ba1   O13   2.809784 S    
P3    O8    1.729461 S    
P2    Ba1   3.412451 S    
C51   C52   1.420973 A    
C13   C14   1.522880 S    
N2    O28   1.302383 A    
C51   H51   1.076530 S    
C9    H19   1.107170 S    
C49   C50   1.390868 A    
C19   C20   1.399951 A    
C15   H35   1.106957 S    
C36   C37   1.416027 A    
C1    H2    1.109951 S    
O17   Ba2   2.751785 S    
O13   Ba2   2.915307 S    
P4    O12   1.511533 D    
C1    C10   1.522404 S    
C5    N1    1.458978 S    
C11   C12   1.520766 S    
C7    H15   1.107038 S    
C3    H6    1.110417 S    
C25   C30   1.424424 A    
C54   C55   1.427490 A    
C23   H42   1.078744 S    
P5    C50   1.842599 S    
O8    Ba1   2.751275 S    
C52   C53   1.426179 A    
C4    H9    1.110632 S    
O14   Ba2   2.771064 S    
C33   C34   1.413755 A    
P4    O15   1.752866 S    
N2    O27   1.292835 A    
O14   P8    1.762996 S    
O4    P6    1.543617 D    
C1    H23   1.109976 S    
C6    H12   1.102519 S    
C36   C39   1.408396 A    
C5    H11   1.111112 S    
C10   H22   1.108647 S    
P8    C27   1.852055 S    
C40   C41   1.405578 A    
P2    O20   1.576647 S    
N3    O33   1.302684 A    
C18   C19   1.405063 A    
N3    O32   1.300764 A    
C28   C29   1.396228 A    
C11   O22   1.401383 S    
C3    H7    1.110599 S    
P7    O21   1.575835 D    
C41   C43   1.409672 A    
O3    Ba1   2.771755 S    
C56   C57   1.373707 A    
P6    C44   1.879670 S    
O19   C13   1.410300 S    
C12   H26   1.110626 S    
P3    O9    1.545970 D    
P4    Ba2   3.406630 S    
C31   C32   1.433036 A    
C45   C46   1.406215 A    
Ba2   O20   2.796665 S    
C7    H14   1.110704 S    
C47   C55   1.408845 A    
P5    O17   1.746233 S    
C17   C18   1.408535 A    
C40   H45   1.077844 S    
O6    P6    1.750659 S    
C49   H50   1.082549 S    
O16   Ba2   2.910190 S    
O3    P6    1.715598 S    
O12   Ba2   2.861792 S    
S1    O29   1.503305 D    
