data_mof_unit_62800.cif
_audit_creation_date              2012-12-10T17:04:19-0500
_audit_creation_method            fapswitch 2.2
_symmetry_space_group_name_H-M    P1
_symmetry_Int_Tables_number       1
_space_group_crystal_system       triclinic
_cell_length_a                    18.897311
_cell_length_b                    18.473199
_cell_length_c                    19.071244
_cell_angle_alpha                 108.392139
_cell_angle_beta                  109.788747
_cell_angle_gamma                 108.151754
_cell_volume                      5251.6154797

loop_
_atom_site_label
_atom_site_type_symbol
_atom_type_description
_atom_site_fract_x
_atom_site_fract_y
_atom_site_fract_z
_atom_type_partial_charge
Br1   Br    Br    0.778382 0.001866 0.508328 -0.459167
Br2   Br    Br    0.320991 0.326572 0.820892 -0.468515
Br3   Br    Br    0.946423 0.074514 0.203339 -0.470181
Br4   Br    Br    0.310107 0.543946 0.120323 -0.334470
Br5   Br    Br    0.650503 0.603043 0.015148 -0.455574
Br6   Br    Br    0.328526 0.885285 0.307036 -0.414706
Br7   Br    Br    0.335961 0.917354 0.490951 -0.481046
Br8   Br    Br    0.156295 0.832244 0.495729 -0.477709
Br9   Br    Br    0.851734 0.718583 0.366078 -0.489514
Br10  Br    Br    0.665119 0.654467 0.204183 -0.245400
Br11  Br    Br    0.050127 0.101040 0.964176 -0.540180
Br12  Br    Br    0.984974 0.891964 0.703164 -0.419327
Br13  Br    Br    0.907045 0.408807 0.725497 -0.518061
Br14  Br    Br    0.066642 0.555941 0.726533 -0.487945
Br15  Br    Br    0.169308 0.472932 0.646241 -0.453946
Br16  Br    Br    0.862506 0.018416 0.706417 -0.455224
Br17  Br    Br    0.140851 0.102668 0.824726 -0.372990
Br18  Br    Br    0.085824 0.319446 0.175422 -0.535030
Br19  Br    Br    0.198845 0.461792 0.388244 -0.451724
Br20  Br    Br    0.513739 0.641715 0.349926 -0.401479
Br21  Br    Br    0.698208 0.511154 0.382843 -0.443380
Br22  Br    Br    0.500771 0.180542 0.491684 -0.526343
Br23  Br    Br    0.757659 0.710015 0.703401 -0.494897
Br24  Br    Br    0.731682 0.791782 0.880454 -0.394202
Br25  Br    Br    0.371780 0.705612 0.315001 -0.431087
Br26  Br    Br    0.777335 0.283843 0.784076 -0.478459
Br27  Br    Br    0.500912 0.397798 0.668660 -0.571605
C1    C     C_R   0.621858 0.617986 0.501706 0.841554
C2    C     C_R   0.671679 0.752995 0.490370 -0.025773
C3    C     C_3   0.987770 0.674769 0.835347 -0.677612
C4    C     C_3   0.578634 0.195960 0.679403 -0.327475
C5    C     C_3   0.562766 0.228319 0.753977 -0.776355
C6    C     C_3   0.657633 0.335433 0.514713 -0.289932
C7    C     C_3   0.736084 0.407769 0.528403 -0.768305
C8    C     C_3   0.105805 0.136302 0.165076 -0.283881
C9    C     C_3   0.133263 0.066610 0.142998 -0.866339
C10   C     C_3   0.437091 0.479697 0.798993 -0.319492
C11   C     C_3   0.388244 0.528889 0.816414 -0.650575
C12   C     C_3   0.310917 0.175440 0.665905 -0.300426
C13   C     C_R   0.818336 0.835216 0.525299 -0.047192
C14   C     C_3   0.327857 0.123018 0.599202 -0.712256
C15   C     C_3   0.092536 0.015675 0.317260 -0.382213
C16   C     C_3   0.009708 0.941602 0.238631 -0.772104
C17   C     C_3   0.264178 0.288871 0.304416 -0.298786
C18   C     C_3   0.319075 0.250263 0.279651 -0.714423
C19   C     C_3   0.140212 0.811658 0.159782 -0.284337
C20   C     C_3   0.169552 0.903567 0.172451 -0.866261
C21   C     C_3   0.810204 0.586290 0.011699 -0.358656
C22   C     C_3   0.754149 0.489032 0.975721 -0.656747
C23   C     C_3   0.307926 0.389726 0.176638 -0.318545
C24   C     C_R   0.385172 0.506160 0.381499 0.859841
C25   C     C_3   0.243233 0.325080 0.084705 -0.744127
C26   C     C_3   0.099641 0.276899 0.597029 -0.373768
C27   C     C_3   0.038352 0.255052 0.507382 -0.627461
C28   C     C_3   0.021015 0.264423 0.970788 -0.339185
C29   C     C_3   0.932436 0.227907 0.963377 -0.527128
C30   C     C_3   0.890027 0.559988 0.492863 -0.372926
C31   C     C_3   0.909517 0.562911 0.421986 -0.657048
C32   C     C_3   0.504604 0.798041 0.511989 -0.393219
C33   C     C_3   0.540593 0.825708 0.606348 -0.741665
C34   C     C_R   0.833774 0.770681 0.544404 -0.013692
C35   C     C_R   0.765402 0.688468 0.508063 -0.020916
C36   C     C_R   0.685772 0.683979 0.494804 -0.015748
C37   C     C_R   0.913607 0.784363 0.601023 0.288276
C38   C     C_R   0.930268 0.713594 0.594162 0.069736
C39   C     C_R   0.866818 0.630536 0.526538 0.072775
C40   C     C_R   0.781872 0.616857 0.486330 0.231935
C41   C     C_3   0.186278 0.423548 0.212780 0.190663
C42   C     C_R   0.750272 0.658146 0.774697 0.221552
C43   C     C_R   0.781028 0.716147 0.857662 0.283474
C44   C     C_R   0.854067 0.724416 0.919105 0.028608
C45   C     C_R   0.376947 0.381015 0.494998 0.851182
C46   C     C_R   0.884134 0.664311 0.894215 0.024914
C47   C     C_R   0.822140 0.581330 0.821875 -0.006263
C48   C     C_R   0.756587 0.581182 0.757861 -0.062787
C49   C     C_R   0.818005 0.500152 0.814989 -0.099750
C50   C     C_R   0.746540 0.420674 0.742772 -0.006803
C51   C     C_R   0.700544 0.426693 0.670759 0.023597
C52   C     C_3   0.229714 0.487460 0.307846 0.226918
C53   C     C_R   0.697773 0.505034 0.680898 -0.111076
C54   C     C_R   0.713540 0.335009 0.735867 0.241079
C55   C     C_R   0.630003 0.271153 0.670555 0.088662
C56   C     C_R   0.599389 0.275707 0.594916 0.202007
C57   C     C_R   0.624093 0.503300 0.617706 0.882918
C58   C     C_R   0.646933 0.349112 0.592907 0.117650
C59   C     C_R   0.388738 0.378769 0.647564 0.204770
C60   C     C_R   0.378986 0.393680 0.719774 0.064195
C61   C     C_R   0.324553 0.321951 0.719888 0.171773
C62   C     C_R   0.284845 0.241377 0.648536 0.083405
C63   C     C_3   0.318805 0.511581 0.314953 -0.246752
C64   C     C_R   0.263183 0.241112 0.568809 -0.013495
C65   C     C_R   0.319582 0.310823 0.567871 -0.020483
C66   C     C_R   0.187145 0.176663 0.493252 -0.121183
C67   C     C_R   0.172718 0.175242 0.415084 -0.074673
C68   C     C_R   0.231104 0.242367 0.410637 0.000784
C69   C     C_3   0.315503 0.586559 0.293341 0.263885
C70   C     C_R   0.307286 0.310854 0.489856 -0.074576
C71   C     C_R   0.099367 0.105384 0.339847 0.126301
C72   C     C_R   0.067309 0.121686 0.273091 0.252202
C73   C     C_R   0.125339 0.170669 0.256912 0.127080
C74   C     C_R   0.588962 0.739699 0.459890 0.185632
C75   C     C_R   0.207752 0.233621 0.325875 0.079839
C76   C     C_R   0.997737 0.620205 0.116174 0.764997
C77   C     C_R   0.121599 0.499347 0.123454 0.832359
C78   C     C_R   0.005876 0.380763 0.887100 0.848324
C79   C     C_R   0.884580 0.500135 0.883758 0.873702
C80   C     C_R   0.998973 0.876715 0.383955 0.821241
C81   C     C_3   0.226469 0.560261 0.285984 0.022768
C82   C     C_R   0.882651 0.892404 0.511103 0.894146
C83   C     C_R   0.003081 0.123250 0.616500 0.793989
C84   C     C_R   0.118579 0.115390 0.497158 0.746436
C85   C     C_R   0.574016 0.809526 0.487288 0.141973
C86   C     C_R   0.144401 0.804794 0.238562 0.061157
C87   C     C_R   0.224016 0.849626 0.312792 0.241255
C88   C     C_R   0.227383 0.863991 0.390856 0.199880
C89   C     C_R   0.151779 0.841395 0.396140 0.186517
C90   C     C_R   0.072531 0.803158 0.322065 -0.076478
C91   C     C_R   0.068892 0.765920 0.243202 -0.080084
C92   C     C_R   0.996897 0.799734 0.322625 -0.041333
C93   C     C_3   0.185702 0.497705 0.192217 -0.234115
C94   C     C_R   0.918073 0.733094 0.252663 -0.065051
C95   C     C_R   0.912369 0.683578 0.174569 -0.018192
C96   C     C_R   0.635990 0.891058 0.509040 0.117757
C97   C     C_R   0.990924 0.692458 0.174124 -0.117095
C98   C     C_R   0.844331 0.711567 0.261243 0.161338
C99   C     C_R   0.764540 0.669490 0.190573 0.268482
C100  C     C_R   0.757744 0.638849 0.110567 0.196385
C101  C     C_R   0.828563 0.635579 0.101126 0.029558
C102  C     C_R   0.009629 0.403062 0.745789 0.207709
C103  C     C_R   0.058484 0.446717 0.717976 0.253140
C104  C     C_R   0.096429 0.407774 0.679210 0.219634
C105  C     C_3   0.273826 0.521079 0.199252 0.264297
C106  C     C_R   0.074899 0.320105 0.658579 0.027459
C107  C     C_R   0.712561 0.898081 0.506597 0.258484
C108  C     C_R   0.032014 0.279563 0.696659 -0.019018
C109  C     C_R   0.014952 0.331708 0.754133 -0.037754
C110  C     C_R   0.006099 0.192819 0.683943 -0.044908
C111  C     C_R   0.992441 0.172687 0.745501 -0.027534
C112  C     C_R   0.004619 0.236046 0.820264 0.008792
C113  C     C_R   0.005391 0.313524 0.819071 -0.058816
C114  C     C_R   0.977994 0.091388 0.740071 0.189533
C115  C     C_R   0.033189 0.095070 0.811717 0.334794
C116  C     C_R   0.035677 0.144358 0.884361 0.231705
C117  C     C_3   0.275520 0.447027 0.219889 -0.027311
C118  C     C_R   0.735755 0.830221 0.505626 0.004254
C119  C     C_R   0.018839 0.215553 0.890257 0.000139
C120  C     C_3   0.191183 0.619040 0.320397 -0.345741
C121  C     C_3   0.245958 0.677711 0.415656 -0.663262
C122  C     C_3   0.618645 0.968309 0.530993 -0.406178
C123  C     C_3   0.565257 0.969602 0.451344 -0.606901
C124  C     C_3   0.013792 0.727496 0.659125 -0.404151
C125  C     C_3   0.086180 0.761302 0.640439 -0.616340
C126  C     C_3   0.904957 0.803419 0.004701 -0.428941
C127  C     C_3   0.943767 0.885842 0.998115 -0.669798
C128  C     C_3   0.977036 0.704634 0.913845 -0.354910
Cu1   Cu    Cu3+1 0.500490 0.438210 0.438660 1.003872
Cu2   Cu    Cu3+1 0.499510 0.561790 0.561340 1.066356
Cu3   Cu    Cu3+1 0.942070 0.438200 0.003850 0.995188
Cu4   Cu    Cu3+1 0.065670 0.561760 0.003800 1.024161
Cu5   Cu    Cu3+1 0.062280 0.000030 0.562300 1.075776
Cu6   Cu    Cu3+1 0.937720 0.000000 0.437720 1.079009
H1    H     H_    0.258455 0.640776 0.449881 0.277143
H2    H     H_    0.678390 0.030254 0.572467 0.262930
H3    H     H_    0.146909 0.776398 0.692383 0.255179
H4    H     H_    0.092552 0.821052 0.635431 0.280506
H5    H     H_    0.074691 0.711899 0.580801 0.256791
H6    H     H_    0.031379 0.773293 0.723557 0.243960
H7    H     H_    0.008105 0.668215 0.664189 0.229342
H8    H     H_    0.906593 0.880457 0.935903 0.309057
H9    H     H_    0.946525 0.940662 0.046639 0.266401
H10   H     H_    0.008532 0.900540 0.006972 0.224889
H11   H     H_    0.862522 0.808155 0.032541 0.253496
H12   H     H_    0.307626 0.727872 0.431170 0.275522
H13   H     H_    0.956269 0.797551 0.048824 0.184940
H14   H     H_    0.965323 0.604285 0.805091 0.303150
H15   H     H_    0.950988 0.690749 0.788757 0.248277
H16   H     H_    0.056023 0.708294 0.853390 0.249628
H17   H     H_    0.004363 0.775448 0.939748 0.212797
H18   H     H_    0.018428 0.696768 0.964540 0.213786
H19   H     H_    0.623732 0.268707 0.814305 0.270311
H20   H     H_    0.528859 0.267030 0.745809 0.272753
H21   H     H_    0.522756 0.172408 0.757437 0.253284
H22   H     H_    0.515464 0.151331 0.622700 0.252339
H23   H     H_    0.212206 0.710210 0.438654 0.275922
H24   H     H_    0.611409 0.156329 0.687227 0.239710
H25   H     H_    0.731417 0.468541 0.542235 0.260616
H26   H     H_    0.794685 0.419863 0.580733 0.285060
H27   H     H_    0.740964 0.387070 0.469724 0.248395
H28   H     H_    0.664940 0.276012 0.493874 0.222895
H29   H     H_    0.599470 0.322939 0.461400 0.244368
H30   H     H_    0.197442 0.085631 0.191672 0.264166
H31   H     H_    0.089383 0.009248 0.139864 0.243127
H32   H     H_    0.132062 0.049660 0.081330 0.299167
H33   H     H_    0.036838 0.108191 0.121782 0.269896
H34   H     H_    0.187291 0.659414 0.288101 0.217988
H35   H     H_    0.136243 0.185317 0.149229 0.241920
H36   H     H_    0.362909 0.543882 0.764149 0.267659
H37   H     H_    0.334586 0.490744 0.822779 0.281844
H38   H     H_    0.431779 0.590547 0.876051 0.269145
H39   H     H_    0.467771 0.470039 0.853814 0.271233
H40   H     H_    0.489082 0.520945 0.792565 0.246174
H41   H     H_    0.268767 0.079294 0.537646 0.267139
H42   H     H_    0.375804 0.166958 0.590561 0.272435
H43   H     H_    0.353399 0.082905 0.620757 0.268325
H44   H     H_    0.371671 0.209827 0.726422 0.211867
H45   H     H_    0.125686 0.577973 0.305849 0.230641
H46   H     H_    0.264202 0.132038 0.675974 0.252965
H47   H     H_    0.953345 0.940090 0.245143 0.308863
H48   H     H_    0.003734 0.947631 0.181563 0.249199
H49   H     H_    0.009289 0.879176 0.227529 0.228386
H50   H     H_    0.101269 0.000783 0.370202 0.186320
H51   H     H_    0.146934 0.016402 0.306841 0.197482
H52   H     H_    0.330198 0.209157 0.309499 0.261122
H53   H     H_    0.287809 0.211387 0.210095 0.227360
H54   H     H_    0.382022 0.300641 0.298481 0.265113
H55   H     H_    0.228700 0.299903 0.253543 0.202408
H56   H     H_    0.599806 0.976331 0.415011 0.274810
H57   H     H_    0.295375 0.354521 0.353983 0.199185
H58   H     H_    0.124968 0.925010 0.184636 0.246041
H59   H     H_    0.234727 0.949218 0.225565 0.304582
H60   H     H_    0.167340 0.904536 0.113824 0.253982
H61   H     H_    0.178422 0.784633 0.138279 0.255200
H62   H     H_    0.073598 0.776241 0.108230 0.185947
H63   H     H_    0.790750 0.460896 0.006104 0.265913
H64   H     H_    0.698309 0.475009 0.986158 0.264454
H65   H     H_    0.729072 0.455641 0.906454 0.234640
H66   H     H_    0.776447 0.609598 0.971433 0.225768
H67   H     H_    0.504032 0.909035 0.410738 0.297723
H68   H     H_    0.868105 0.598563 0.006097 0.158925
H69   H     H_    0.193609 0.271846 0.082502 0.260425
H70   H     H_    0.213856 0.355566 0.050587 0.264340
H71   H     H_    0.274776 0.297272 0.052635 0.283295
H72   H     H_    0.367510 0.431602 0.180660 0.270957
H73   H     H_    0.323749 0.352832 0.208941 0.223755
H74   H     H_    0.975439 0.200302 0.482587 0.263948
H75   H     H_    0.028157 0.310697 0.506085 0.266941
H76   H     H_    0.064941 0.238711 0.464572 0.245632
H77   H     H_    0.165426 0.319717 0.614148 0.227578
H78   H     H_    0.551632 0.025011 0.468941 0.271707
H79   H     H_    0.105084 0.221698 0.601832 0.175374
H80   H     H_    0.882264 0.214239 0.902445 0.263399
H81   H     H_    0.916865 0.166369 0.966744 0.258809
H82   H     H_    0.931063 0.274308 0.015968 0.252925
H83   H     H_    0.062972 0.257360 0.021037 0.242240
H84   H     H_    0.054871 0.334482 0.995653 0.184282
H85   H     H_    0.851868 0.547515 0.366241 0.294336
H86   H     H_    0.960202 0.627772 0.443423 0.265039
H87   H     H_    0.931394 0.514572 0.402280 0.244036
H88   H     H_    0.945437 0.564104 0.541860 0.228277
H89   H     H_    0.585195 0.967868 0.568696 0.215269
H90   H     H_    0.837764 0.495528 0.468730 0.226855
H91   H     H_    0.568733 0.784767 0.622286 0.279851
H92   H     H_    0.590423 0.894184 0.645234 0.259782
H93   H     H_    0.488528 0.817780 0.622677 0.257138
H94   H     H_    0.470675 0.834281 0.494785 0.258656
H95   H     H_    0.456708 0.728781 0.478269 0.243288
O1    O     O_R   0.590580 0.537990 0.448200 -0.531397
O2    O     O_R   0.948140 0.909840 0.357940 -0.577721
O3    O     O_R   0.962430 0.909850 0.552620 -0.547365
O4    O     O_R   0.589760 0.642350 0.551790 -0.568938
O5    O     O_R   0.857240 0.909830 0.447420 -0.517644
O6    O     O_R   0.051860 0.090180 0.642080 -0.563710
O7    O     O_R   0.946670 0.090160 0.536880 -0.546402
O8    O     O_R   0.142760 0.090200 0.552610 -0.596801
O9    O     O_R   0.037570 0.090170 0.447410 -0.576316
O10   O     O_R   0.409540 0.447820 0.357340 -0.613815
O11   O     O_R   0.408720 0.552180 0.460940 -0.569389
O12   O     O_R   0.055380 0.642340 0.093300 -0.624598
O13   O     O_R   0.410240 0.357650 0.448210 -0.575823
O14   O     O_R   0.409420 0.462010 0.551800 -0.545947
O15   O     O_R   0.591280 0.447820 0.539060 -0.591772
O16   O     O_R   0.590460 0.552180 0.642660 -0.530026
O17   O     O_R   0.951000 0.537990 0.093340 -0.570169
O18   O     O_R   0.042560 0.447800 0.094700 -0.574887
O19   O     O_R   0.146930 0.552150 0.094670 -0.531561
O20   O     O_R   0.952370 0.357620 0.914350 -0.548571
O21   O     O_R   0.056740 0.461970 0.914310 -0.561053
O22   O     O_R   0.860810 0.447810 0.912980 -0.568731
O23   O     O_R   0.965190 0.552160 0.912950 -0.579748
O24   O     O_R   0.053330 0.909870 0.463140 -0.533586

loop_
_geom_bond_atom_site_label_1
_geom_bond_atom_site_label_2
_ccdc_geom_bond_type
Cu6   O2    S    
C105  C117  S    
C116  C119  A    
C45   O14   A    
C28   C29   S    
C96   C122  S    
C112  C119  A    
C38   C124  S    
C99   C100  A    
C10   H40   S    
C23   H72   S    
C9    H30   S    
C78   O21   A    
C46   C47   A    
Br23  C42   S    
C120  C121  S    
Cu5   O24   S    
C27   H75   S    
C30   C39   S    
C53   C57   S    
Br25  C69   S    
C2    C36   A    
C54   C55   A    
Cu1   O1    S    
Br24  C43   S    
C108  C109  A    
C12   C14   S    
Cu1   O15   S    
C50   C51   A    
C74   C85   A    
C66   C67   A    
C4    C55   S    
C47   C49   A    
C35   C40   A    
C80   O2    A    
C5    H21   S    
C31   H86   S    
C86   C87   A    
C90   C92   A    
C24   C63   S    
C93   C105  S    
Br12  C37   S    
C62   C64   A    
C51   C53   A    
Cu3   O22   S    
Cu2   O4    S    
C64   C66   A    
C67   C71   A    
Br18  C41   S    
C88   C89   A    
C44   C126  S    
C24   O10   A    
C22   H64   S    
Cu4   O23   S    
C89   C90   A    
C127  H9    S    
C6    H28   S    
C10   H39   S    
C3    H15   S    
C23   H73   S    
C16   H49   S    
C81   C93   S    
C9    H32   S    
Br6   C87   S    
C52   C63   S    
C6    C58   S    
C8    H33   S    
C18   H54   S    
C46   C128  S    
C123  H56   S    
C8    C9    S    
Cu6   O9    S    
C1    O4    A    
C12   H46   S    
C52   C81   S    
C23   C25   S    
C124  C125  S    
C11   H37   S    
C100  C101  A    
C120  H34   S    
C43   C44   A    
C122  H2    S    
C30   H90   S    
C48   C53   A    
C32   H95   S    
C57   O15   A    
C128  H17   S    
C109  C113  A    
C69   C105  S    
C81   C120  S    
C41   C52   S    
C7    H25   S    
C39   C40   A    
C69   C81   S    
Br16  C114  S    
C32   C33   S    
C9    H31   S    
Br21  C40   S    
Cu5   O6    S    
Br5   C100  S    
C42   C43   A    
C27   H74   S    
C76   C97   S    
C126  H11   S    
C26   H79   S    
C80   C92   S    
Br22  C56   S    
C128  H18   S    
C65   C70   A    
Cu3   O18   S    
C45   C70   S    
C92   C94   A    
C125  H4    S    
Cu2   O11   S    
C120  H45   S    
C123  H67   S    
C47   C48   A    
C57   O16   A    
C96   C107  A    
C32   H94   S    
C5    H20   S    
C31   H85   S    
C17   H57   S    
C49   C50   A    
C76   O17   A    
C85   C96   A    
Br4   C105  S    
C28   H83   S    
C64   C65   A    
C44   C46   A    
C21   H66   S    
C17   C75   S    
C59   C60   A    
C25   H71   S    
C28   C119  S    
Br15  C104  S    
Cu1   O13   S    
C29   H80   S    
Cu4   O12   S    
C26   C27   S    
Cu2   O16   S    
C20   H58   S    
C126  H13   S    
Cu5   O3    S    
Br9   C98   S    
C13   C34   A    
C127  H8    S    
C24   O11   A    
Br17  C115  S    
C23   C117  S    
Cu1   Cu2   S    
Cu3   Cu4   S    
C82   O3    A    
C34   C37   A    
C7    H27   S    
C63   C69   S    
C94   C98   A    
C10   C11   S    
C2    C74   A    
Cu6   O5    S    
C21   C101  S    
C102  C109  A    
Cu6   O7    S    
C18   H52   S    
C72   C73   A    
C50   C54   A    
C121  H23   S    
C4    H24   S    
C35   C36   A    
C33   H93   S    
C32   C85   S    
C83   O7    A    
C11   H36   S    
C26   C106  S    
C67   C68   A    
C91   C97   A    
C76   O12   A    
C14   H43   S    
Br19  C52   S    
C77   O19   A    
C84   O9    A    
C94   C95   A    
C125  H3    S    
C8    H35   S    
C66   C84   S    
C79   O22   A    
C21   H68   S    
C13   C118  A    
C51   C58   A    
C21   C22   S    
C56   C58   A    
C29   H82   S    
C71   C72   A    
Br26  C54   S    
C22   H63   S    
C45   O13   A    
Cu4   O21   S    
Br27  C59   S    
Br2   C61   S    
C14   H42   S    
C15   C16   S    
C30   H88   S    
Br1   C107  S    
C123  H78   S    
C77   O18   A    
C3    H14   S    
C15   H51   S    
C17   C18   S    
Cu3   O17   S    
Cu5   O8    S    
C102  C103  A    
Br14  C103  S    
C5    H19   S    
C122  H89   S    
C108  C110  A    
C107  C118  A    
C29   H81   S    
C19   C20   S    
C3    C128  S    
C82   O5    A    
C49   C79   S    
C124  H7    S    
C19   C86   S    
C4    H22   S    
C16   H47   S    
C17   H55   S    
C78   O20   A    
Br7   C88   S    
C4    C5    S    
C10   C60   S    
C27   H76   S    
C104  C106  A    
C111  C114  A    
C73   C75   A    
C26   H77   S    
C41   C117  S    
C125  H5    S    
C112  C113  A    
C68   C75   A    
C25   H70   S    
C87   C88   A    
C13   C82   S    
Br20  C74   S    
C2    C118  A    
C1    O1    A    
C110  C111  A    
Br8   C89   S    
C90   C91   A    
C121  H12   S    
C19   H61   S    
C121  H1    S    
Cu5   Cu6   S    
C15   C71   S    
C103  C104  A    
C126  C127  S    
Cu4   O19   S    
C38   C39   A    
C59   C65   A    
C122  C123  S    
C41   C93   S    
C78   C113  S    
C80   O24   A    
C25   H69   S    
C30   C31   S    
C98   C99   A    
C7    H26   S    
Br11  C116  S    
Br10  C99   S    
C124  H6    S    
Cu2   O14   S    
C12   H44   S    
C37   C38   A    
C31   H87   S    
C33   H92   S    
C20   H59   S    
C3    H16   S    
C6    C7    S    
C127  H10   S    
C42   C48   A    
C18   H53   S    
C83   C110  S    
C95   C101  A    
C34   C35   A    
C16   H48   S    
C84   O8    A    
C83   O6    A    
C111  C112  A    
C19   H62   S    
C14   H41   S    
C86   C91   A    
C1    C36   S    
Br3   C72   S    
Cu1   O10   S    
C61   C62   A    
C60   C61   A    
C55   C56   A    
C28   H84   S    
C33   H91   S    
C106  C108  A    
Br13  C102  S    
C115  C116  A    
C6    H29   S    
C79   O23   A    
C11   H38   S    
C22   H65   S    
C114  C115  A    
Cu3   O20   S    
C95   C97   A    
C12   C62   S    
C20   H60   S    
C63   C117  S    
C15   H50   S    
C8    C73   S    
C68   C70   A    
C77   C93   S    
