data_mof_unit_47116.cif
_audit_creation_date              2012-12-10T19:47:25-0500
_audit_creation_method            fapswitch 2.2
_symmetry_space_group_name_H-M    P1
_symmetry_Int_Tables_number       1
_space_group_crystal_system       triclinic
_cell_length_a                    15.077681
_cell_length_b                    14.184575
_cell_length_c                    10.681728
_cell_angle_alpha                 89.876275
_cell_angle_beta                  93.032041
_cell_angle_gamma                 89.676893
_cell_volume                      2281.26523724

loop_
_atom_site_label
_atom_site_type_symbol
_atom_type_description
_atom_site_fract_x
_atom_site_fract_y
_atom_site_fract_z
_atom_type_partial_charge
C1    C     C_R   0.327631 0.499672 0.507552 1.003993
C2    C     C_R   0.952195 0.465733 0.509436 -0.089212
C3    C     C_R   0.465033 0.105530 0.395798 0.310062
C4    C     C_R   0.539677 0.104985 0.601661 0.308327
C5    C     C_R   0.455581 0.204127 0.405576 0.431410
C6    C     C_R   0.546331 0.203808 0.593173 0.433530
C7    C     C_R   0.502741 0.053561 0.498628 -0.074388
C8    C     C_R   0.579937 0.893931 0.526437 0.260054
C9    C     C_R   0.422909 0.896773 0.473890 0.265822
C10   C     C_R   0.574346 0.795423 0.542185 0.437266
C11   C     C_R   0.425824 0.798031 0.460066 0.437413
C12   C     C_R   0.672409 0.499164 0.492847 1.011405
C13   C     C_R   0.502051 0.947125 0.499216 -0.048110
C14   C     C_R   0.511555 0.500218 0.260728 0.942258
C15   C     C_R   0.488479 0.500090 0.739238 0.951836
C16   C     C_R   0.552102 0.674477 0.108077 0.333168
C17   C     C_R   0.443010 0.673371 0.889664 0.317995
C18   C     C_R   0.525893 0.760637 0.052294 0.239548
C19   C     C_R   0.466306 0.759941 0.945643 0.226415
C20   C     C_R   0.478185 0.587312 0.939347 -0.173746
C21   C     C_R   0.519180 0.587746 0.059600 -0.176808
C22   C     C_R   0.525131 0.501131 0.126380 -0.166805
C23   C     C_R   0.231356 0.495132 0.520849 -0.356580
C24   C     C_R   0.474773 0.500572 0.873483 -0.167297
C25   C     C_R   0.517577 0.415042 0.061855 0.355750
C26   C     C_R   0.484827 0.414668 0.938838 0.356469
C27   C     C_R   0.085720 0.541739 0.439041 0.325003
C28   C     C_R   0.912436 0.541027 0.570439 0.331279
C29   C     C_R   0.174711 0.562965 0.462804 0.351667
C30   C     C_R   0.823771 0.561987 0.541993 0.362610
C31   C     C_3   0.644426 0.742114 0.725560 0.197243
C32   C     C_3   0.729350 0.785147 0.786651 -0.357873
C33   C     C_3   0.754383 0.741418 0.914407 -0.858626
C34   C     C_R   0.769015 0.493589 0.483580 -0.373090
C35   C     C_3   0.354775 0.731404 0.286547 0.221050
C36   C     C_3   0.272106 0.769470 0.212431 -0.371952
C37   C     C_3   0.245123 0.706051 0.101738 -0.852683
C38   C     C_3   0.587481 0.910960 0.039881 0.221480
C39   C     C_3   0.667865 0.953084 0.112228 -0.399985
C40   C     C_3   0.709050 0.032603 0.038865 -0.699986
C41   C     C_3   0.368741 0.883891 0.940659 0.076889
C42   C     C_3   0.345042 0.976807 0.874079 -0.303111
C43   C     C_3   0.264417 0.023549 0.928848 -0.764036
C44   C     C_3   0.185062 0.711185 0.545513 0.228350
C45   C     C_R   0.194042 0.416907 0.582041 0.291268
C46   C     C_3   0.131455 0.798736 0.503939 -0.373868
C47   C     C_3   0.104575 0.856714 0.616228 -0.831195
C48   C     C_3   0.807132 0.707248 0.450659 0.226526
C49   C     C_3   0.871375 0.788050 0.480534 -0.363266
C50   C     C_3   0.885913 0.847861 0.364521 -0.823618
C51   C     C_R   0.808358 0.414341 0.426861 0.294238
C52   C     C_R   0.101833 0.405379 0.577282 0.395269
C53   C     C_R   0.900747 0.403105 0.435442 0.393103
C54   C     C_R   0.048288 0.466800 0.503193 -0.091600
Cl1   Cl    Cl    0.557488 0.307132 0.128176 -0.395805
Cl2   Cl    Cl    0.744582 0.333566 0.334239 -0.410902
Cl3   Cl    Cl    0.053225 0.315245 0.665090 -0.400187
Cl4   Cl    Cl    0.952231 0.312211 0.351837 -0.399100
Cl5   Cl    Cl    0.433846 0.049807 0.252155 -0.523586
Cl6   Cl    Cl    0.572975 0.048455 0.744341 -0.561863
Cl7   Cl    Cl    0.381878 0.263626 0.299012 -0.398320
Cl8   Cl    Cl    0.619750 0.263177 0.698985 -0.402402
Cl9   Cl    Cl    0.447911 0.305894 0.873915 -0.390232
Cl10  Cl    Cl    0.685553 0.947256 0.534119 -0.565462
Cl11  Cl    Cl    0.318872 0.954651 0.464856 -0.562084
Cl12  Cl    Cl    0.641881 0.676616 0.220455 -0.639899
Cl13  Cl    Cl    0.354160 0.673295 0.776003 -0.644066
Cl14  Cl    Cl    0.021033 0.612892 0.332896 -0.622352
Cl15  Cl    Cl    0.973961 0.613178 0.677626 -0.614519
Cl16  Cl    Cl    0.260401 0.337553 0.675034 -0.418168
H1    H     H_    0.641638 0.666432 0.751634 0.180775
H2    H     H_    0.214714 0.773725 0.272098 0.295682
H3    H     H_    0.284833 0.842067 0.179391 0.215730
H4    H     H_    0.191940 0.740827 0.042086 0.281000
H5    H     H_    0.219526 0.637986 0.136201 0.308103
H6    H     H_    0.302746 0.691401 0.044734 0.254261
H7    H     H_    0.538129 0.968020 0.019156 0.222115
H8    H     H_    0.609154 0.882615 0.949409 0.148065
H9    H     H_    0.647173 0.981092 0.203458 0.285018
H10   H     H_    0.718490 0.896914 0.131437 0.235148
H11   H     H_    0.731885 0.005860 0.948301 0.270837
H12   H     H_    0.585760 0.777408 0.764464 0.110888
H13   H     H_    0.767101 0.061385 0.094223 0.280686
H14   H     H_    0.659928 0.090355 0.020620 0.321151
H15   H     H_    0.385248 0.898861 0.041380 0.188076
H16   H     H_    0.310133 0.836810 0.930927 0.180638
H17   H     H_    0.402394 0.025593 0.883882 0.282174
H18   H     H_    0.330362 0.963345 0.772573 0.265002
H19   H     H_    0.205663 0.976763 0.917861 0.244166
H20   H     H_    0.249093 0.090820 0.878650 0.311808
H21   H     H_    0.278197 0.039038 0.029920 0.302848
H22   H     H_    0.248824 0.736117 0.588381 0.245525
H23   H     H_    0.786128 0.773670 0.727136 0.298544
H24   H     H_    0.150406 0.674552 0.621607 0.164146
H25   H     H_    0.171277 0.843971 0.444408 0.278330
H26   H     H_    0.071560 0.778066 0.447016 0.262654
H27   H     H_    0.164527 0.880069 0.672503 0.281414
H28   H     H_    0.061974 0.814483 0.676551 0.281489
H29   H     H_    0.066576 0.919991 0.582755 0.288722
H30   H     H_    0.742915 0.739068 0.418269 0.247393
H31   H     H_    0.830757 0.666218 0.369383 0.164717
H32   H     H_    0.845279 0.834042 0.553892 0.269514
H33   H     H_    0.935647 0.758857 0.516736 0.266273
H34   H     H_    0.720252 0.862461 0.796560 0.241506
H35   H     H_    0.822142 0.879736 0.328345 0.285415
H36   H     H_    0.914010 0.804155 0.289927 0.283317
H37   H     H_    0.933213 0.905411 0.389357 0.282011
H38   H     H_    0.771732 0.665752 0.903667 0.303325
H39   H     H_    0.812769 0.778506 0.958147 0.281097
H40   H     H_    0.698796 0.747331 0.977228 0.265561
H41   H     H_    0.355660 0.653615 0.277710 0.190050
H42   H     H_    0.414869 0.758932 0.242893 0.107489
N1    N     N_R   0.500000 0.252470 0.500000 -0.212189
N2    N     N_R   0.500000 0.747550 0.500000 -0.195991
O1    O     O_R   0.369060 0.579480 0.500010 -0.554962
O2    O     O_3   0.350159 0.752849 0.415430 -0.579380
O3    O     O_3   0.548928 0.842805 0.116612 -0.611533
O4    O     O_3   0.441725 0.842761 0.883930 -0.611387
O5    O     O_3   0.203118 0.653412 0.440679 -0.588160
O6    O     O_3   0.793814 0.652613 0.560158 -0.583889
O7    O     O_R   0.630940 0.579480 0.499990 -0.543690
O8    O     O_R   0.369050 0.420520 0.500010 -0.562689
O9    O     O_R   0.630950 0.420520 0.499990 -0.562579
O10   O     O_R   0.500000 0.579490 0.316770 -0.638807
O11   O     O_R   0.500000 0.579490 0.683230 -0.623012
O12   O     O_R   0.499990 0.420540 0.316770 -0.545874
O13   O     O_R   0.500010 0.420540 0.683230 -0.546698
O14   O     O_3   0.646776 0.747029 0.593315 -0.572674
Zn1   Zn    Zn3+2 0.500000 0.606140 0.500000 1.047302
Zn2   Zn    Zn3+2 0.500000 0.393860 0.500000 1.141636

loop_
_geom_bond_atom_site_label_1
_geom_bond_atom_site_label_2
_ccdc_geom_bond_type
C37   H4    S    
C8    C13   A    
C23   C45   A    
C27   C29   A    
C41   C42   S    
C40   H14   S    
C35   C36   S    
C27   C54   A    
C48   O6    S    
C41   H16   S    
C29   O5    S    
C34   C51   A    
C43   H19   S    
C47   H28   S    
C23   C29   A    
C36   C37   S    
C24   C26   A    
C18   C19   A    
C3    C7    A    
C38   C39   S    
O12   Zn2   S    
C17   C20   A    
C47   H29   S    
C51   Cl2   S    
C11   N2    A    
C9    C13   A    
C1    O8    A    
C27   Cl14  S    
C38   O3    S    
C46   H25   S    
C20   C24   A    
C19   O4    S    
C52   C54   A    
C22   C25   A    
C50   H35   S    
C32   H34   S    
C41   O4    S    
C44   H22   S    
C31   H1    S    
C32   H23   S    
C37   H5    S    
C15   O13   A    
C21   C22   A    
C40   H13   S    
C33   H38   S    
C31   O14   S    
C4    C7    A    
C10   O14   S    
C44   C46   S    
C48   H30   S    
C17   Cl13  S    
C43   H20   S    
C14   O10   A    
N1    Zn2   S    
C30   C34   A    
C4    C6    A    
C2    C54   S    
C49   H32   S    
C38   H8    S    
C45   C52   A    
C25   C26   A    
C43   H21   S    
C51   C53   A    
C39   H9    S    
C26   Cl9   S    
C6    N1    A    
C14   O12   A    
C9    C11   A    
C31   C32   S    
C4    Cl6   S    
C28   Cl15  S    
C5    Cl7   S    
C35   O2    S    
C11   O2    S    
C31   H12   S    
C18   O3    S    
C8    Cl10  S    
C16   C18   A    
C48   C49   S    
C37   H6    S    
C1    C23   S    
C42   H18   S    
O9    Zn2   S    
C50   H37   S    
N2    Zn1   S    
C16   Cl12  S    
C42   C43   S    
C12   C34   S    
C52   Cl3   S    
C39   C40   S    
C35   H41   S    
O1    Zn1   S    
C46   C47   S    
C15   C24   S    
C5    N1    A    
C45   Cl16  S    
C40   H11   S    
C25   Cl1   S    
O7    Zn1   S    
C3    C5    A    
C2    C53   A    
C10   N2    A    
C49   H33   S    
C53   Cl4   S    
C16   C21   A    
C33   H40   S    
C38   H7    S    
C41   H15   S    
C44   O5    S    
C47   H27   S    
C32   C33   S    
C6    Cl8   S    
C28   C30   A    
O13   Zn2   S    
C39   H10   S    
C14   C22   S    
C12   O9    A    
C30   O6    S    
C48   H31   S    
C17   C19   A    
O10   Zn1   S    
C33   H39   S    
C9    Cl11  S    
C44   H24   S    
C36   H3    S    
C35   H42   S    
O11   Zn1   S    
C7    C13   S    
C46   H26   S    
C20   C21   A    
C8    C10   A    
C49   C50   S    
C15   O11   A    
C50   H36   S    
C2    C28   A    
C42   H17   S    
C1    O1    A    
O8    Zn2   S    
C12   O7    A    
C36   H2    S    
C3    Cl5   S    
