data_mof_unit_30804.cif
_audit_creation_date              2012-10-26T20:42:27-0400
_audit_creation_method            fapswitch 2.2
_symmetry_space_group_name_H-M    P1
_symmetry_Int_Tables_number       1
_space_group_crystal_system       triclinic
_cell_length_a                    10.824903
_cell_length_b                    9.569724
_cell_length_c                    10.92464
_cell_angle_alpha                 90.000075
_cell_angle_beta                  91.729056
_cell_angle_gamma                 90.000063
_cell_volume                      1131.18275482

loop_
_atom_site_label
_atom_site_type_symbol
_atom_type_description
_atom_site_fract_x
_atom_site_fract_y
_atom_site_fract_z
_atom_type_partial_charge
C1    C     C_R   0.262655 0.500623 0.512456 0.582100
C2    C     C_R   0.940219 0.378171 0.473691 0.004634
C3    C     C_R   0.872756 0.504421 0.474271 -0.064621
C4    C     C_R   0.127244 0.504421 0.525733 -0.064622
C5    C     C_R   0.936760 0.633773 0.484127 0.001569
C6    C     C_R   0.063241 0.633772 0.515879 0.001569
C7    C     C_R   0.446907 0.076009 0.405440 0.027628
C8    C     C_R   0.553093 0.076009 0.594560 0.027627
C9    C     C_R   0.446274 0.928206 0.404085 0.153569
C10   C     C_R   0.553725 0.928207 0.595916 0.153565
C11   C     C_2   0.099353 0.257741 0.606124 0.615423
C12   C     C_R   0.737345 0.500624 0.487545 0.582101
C13   C     C_2   0.900646 0.257741 0.393879 0.615423
C14   C     C_2   0.874950 0.768356 0.451108 0.663488
C15   C     C_2   0.125052 0.768355 0.548902 0.663486
C16   C     C_2   0.388371 0.863575 0.293913 0.610046
C17   C     C_2   0.611630 0.863576 0.706088 0.610046
C18   C     C_R   0.501243 0.500040 0.265447 0.564852
C19   C     C_R   0.498757 0.500040 0.734553 0.564853
C20   C     C_2   0.502734 0.385252 0.933069 -0.130469
C21   C     C_2   0.497266 0.385252 0.066930 -0.130470
C22   C     C_2   0.492587 0.502398 0.866358 -0.093627
C23   C     C_2   0.507413 0.502398 0.133641 -0.093626
C24   C     C_R   0.059781 0.378171 0.526311 0.004631
Cu1   Cu    Cu3+1 0.500000 0.640660 0.500000 1.116419
Cu2   Cu    Cu3+1 0.500000 0.359340 0.500000 1.044080
H1    H     H_    0.513625 0.284590 0.888662 0.181582
H2    H     H_    0.596314 0.133700 0.669580 0.143121
H3    H     H_    0.257015 0.736841 0.220661 0.338908
H4    H     H_    0.742983 0.736838 0.779338 0.338908
H5    H     H_    0.486374 0.284590 0.111338 0.181581
H6    H     H_    0.476855 0.603770 0.906794 0.145621
H7    H     H_    0.523146 0.603770 0.093206 0.145623
H8    H     H_    0.054527 0.072173 0.681171 0.371430
H9    H     H_    0.945462 0.072168 0.318840 0.371431
H10   H     H_    0.827506 0.963146 0.502191 0.357671
H11   H     H_    0.172496 0.963147 0.497825 0.357670
H12   H     H_    0.403686 0.133699 0.330420 0.143117
N1    N     N_R   0.500000 0.852070 0.500000 -0.269401
N2    N     N_R   0.500000 0.147940 0.500000 -0.257850
O1    O     O_R   0.319640 0.618740 0.499990 -0.453090
O2    O     O_R   0.019975 0.144053 0.621151 -0.640649
O3    O     O_2   0.804733 0.263130 0.332002 -0.488375
O4    O     O_R   0.980016 0.144046 0.378860 -0.640647
O5    O     O_2   0.821798 0.780601 0.351274 -0.489241
O6    O     O_R   0.876629 0.879802 0.533849 -0.613852
O7    O     O_2   0.178205 0.780596 0.648736 -0.489242
O8    O     O_R   0.123372 0.879804 0.466164 -0.613848
O9    O     O_2   0.424921 0.895794 0.192871 -0.510500
O10   O     O_R   0.288822 0.772068 0.303273 -0.638961
O11   O     O_2   0.575089 0.895805 0.807130 -0.510502
O12   O     O_R   0.680360 0.618740 0.500010 -0.453087
O13   O     O_R   0.711173 0.772062 0.696726 -0.638960
O14   O     O_R   0.319620 0.381170 0.499990 -0.473818
O15   O     O_R   0.680380 0.381170 0.500010 -0.473820
O16   O     O_R   0.500000 0.618750 0.321940 -0.476570
O17   O     O_R   0.500000 0.618750 0.678060 -0.476569
O18   O     O_R   0.499970 0.381180 0.321940 -0.504490
O19   O     O_R   0.500030 0.381180 0.678060 -0.504490
O20   O     O_2   0.195271 0.263125 0.667994 -0.488374

loop_
_geom_bond_atom_site_label_1
_geom_bond_atom_site_label_2
_ccdc_geom_bond_type
C1    O14   A    
H10   O6    S    
C20   H1    S    
C15   O7    D    
Cu2   O18   S    
Cu2   O19   S    
C9    N1    A    
H8    O2    S    
Cu1   O16   S    
C18   O16   A    
C7    N2    A    
C1    C4    S    
Cu2   O15   S    
C17   O11   D    
C2    C3    A    
Cu1   Cu2   S    
Cu1   O12   S    
C14   O6    S    
C19   O17   A    
H11   O8    S    
H9    O4    S    
C21   H5    S    
Cu2   N2    S    
C5    C14   S    
C22   H6    S    
C15   O8    S    
C4    C24   A    
Cu2   O14   S    
C1    O1    A    
C12   O12   A    
C7    H12   S    
C16   O10   S    
C14   O5    D    
C9    C16   S    
H3    O10   S    
C21   C23   D    
C2    C24   A    
C5    C6    A    
C8    H2    S    
H4    O13   S    
C16   O9    D    
C12   O15   A    
C10   C17   S    
C11   O20   D    
Cu1   O17   S    
C17   O13   S    
C11   C24   S    
C13   O3    D    
C19   C22   S    
C3    C5    A    
C20   C21   S    
C11   O2    S    
C8    C10   A    
C4    C6    A    
Cu1   O1    S    
C7    C9    A    
C2    C13   S    
C3    C12   S    
C8    N2    A    
C19   O19   A    
C6    C15   S    
C18   O18   A    
C13   O4    S    
Cu1   N1    S    
C18   C23   S    
C20   C22   D    
C10   N1    A    
C23   H7    S    
