data_mof_unit_10470.cif
_audit_creation_date              2012-12-10T17:24:25-0500
_audit_creation_method            fapswitch 2.2
_symmetry_space_group_name_H-M    P1
_symmetry_Int_Tables_number       1
_space_group_crystal_system       triclinic
_cell_length_a                    21.744461
_cell_length_b                    21.751173
_cell_length_c                    32.213742
_cell_angle_alpha                 89.999826
_cell_angle_beta                  90.000034
_cell_angle_gamma                 90.000034
_cell_volume                      15236.0540825

loop_
_atom_site_label
_atom_site_type_symbol
_atom_type_description
_atom_site_fract_x
_atom_site_fract_y
_atom_site_fract_z
_atom_type_partial_charge
C1    C     C_R   0.314507 0.500000 1.000000 -0.343223
C2    C     C_R   0.500000 0.315364 0.000000 -0.330655
C3    C     C_R   0.685492 0.500000 0.000000 -0.343227
C4    C     C_R   0.500000 0.684636 1.000000 -0.330633
C5    C     C_R   0.812838 0.999997 0.500000 -0.337736
C6    C     C_R   1.000000 0.813581 0.500000 -0.318312
C7    C     C_R   0.187162 0.000002 0.500000 -0.337736
C8    C     C_R   0.000000 0.186419 0.500000 -0.318312
C9    C     C_R   0.218543 0.452299 0.979719 0.272430
C10   C     C_R   0.556103 0.219931 0.996461 0.285302
C11   C     C_R   0.781457 0.547701 0.979718 0.272426
C12   C     C_R   0.443897 0.780069 0.996458 0.285313
C13   C     C_R   0.218543 0.547701 0.020280 0.272426
C14   C     C_R   0.556103 0.780069 0.003539 0.285312
C15   C     C_R   0.781457 0.452300 0.020282 0.272427
C16   C     C_R   0.443897 0.219931 0.003538 0.285318
C17   C     C_R   0.715912 0.983932 0.463713 0.261664
C18   C     C_R   0.034713 0.717099 0.470158 0.266722
C19   C     C_R   0.284088 0.016066 0.463713 0.261664
C20   C     C_R   0.965286 0.282901 0.470158 0.266722
C21   C     C_R   0.715911 0.016065 0.536286 0.261661
C22   C     C_R   0.034714 0.282901 0.529842 0.266723
C23   C     C_R   0.284089 0.983936 0.536286 0.261660
C24   C     C_R   0.965286 0.717099 0.529842 0.266724
C25   C     C_R   0.282925 0.454775 0.977483 0.272639
C26   C     C_R   0.554908 0.283979 0.992606 0.262721
C27   C     C_R   0.717074 0.545225 0.977483 0.272641
C28   C     C_R   0.445092 0.716021 0.992603 0.262693
C29   C     C_R   0.282926 0.545225 0.022516 0.272640
C30   C     C_R   0.554907 0.716021 0.007395 0.262697
C31   C     C_R   0.717074 0.454776 0.022518 0.272640
C32   C     C_R   0.445092 0.283979 0.007394 0.262705
C33   C     C_R   0.780204 0.987459 0.462874 0.285056
C34   C     C_R   0.031441 0.781461 0.468488 0.271328
C35   C     C_R   0.219796 0.012539 0.462874 0.285057
C36   C     C_R   0.968558 0.218539 0.468487 0.271329
C37   C     C_R   0.780203 0.012534 0.537126 0.285053
C38   C     C_R   0.031442 0.218539 0.531512 0.271329
C39   C     C_R   0.219797 0.987466 0.537126 0.285055
C40   C     C_R   0.968558 0.781461 0.531513 0.271328
C41   C     C_R   0.119057 0.500000 1.000000 0.930087
C42   C     C_R   0.500000 0.119326 1.000000 0.886299
C43   C     C_R   0.880942 0.500000 1.000000 0.930091
C44   C     C_R   0.500000 0.880674 0.999999 0.886331
C45   C     C_R   0.618437 0.000000 0.499999 0.980715
C46   C     C_R   1.000000 0.618729 0.500000 0.967052
C47   C     C_R   0.381562 1.000000 0.499999 0.980713
C48   C     C_R   0.000000 0.381271 0.500000 0.967052
C49   C     C_R   0.000000 0.500000 0.079275 0.829755
C50   C     C_R   0.500000 0.000000 0.079278 0.808066
C51   C     C_R   0.000000 0.500000 0.920725 0.829756
C52   C     C_R   0.500000 1.000000 0.920722 0.808075
C53   C     C_R   0.500000 1.000000 0.579294 0.866607
C54   C     C_R   0.000000 0.500000 0.579293 0.855318
C55   C     C_R   0.500000 0.000000 0.420706 0.866601
C56   C     C_R   1.000000 0.500000 0.420707 0.855320
C57   C     C_R   0.021083 0.447737 0.271910 -0.056191
C58   C     C_R   0.543198 0.036193 0.271891 -0.057287
C59   C     C_R   0.978916 0.552262 0.271910 -0.056191
C60   C     C_R   0.456802 0.963808 0.271891 -0.057287
C61   C     C_R   0.021082 0.552263 0.728090 -0.056191
C62   C     C_R   0.543177 0.963783 0.728109 -0.057290
C63   C     C_R   0.978918 0.447737 0.728090 -0.056191
C64   C     C_R   0.456822 0.036216 0.728109 -0.057289
C65   C     C_R   0.542480 0.962960 0.772027 -0.057121
C66   C     C_R   0.021430 0.552070 0.772023 -0.056166
C67   C     C_R   0.457519 0.037039 0.772027 -0.057121
C68   C     C_R   0.978571 0.447930 0.772024 -0.056166
C69   C     C_R   0.542501 0.037018 0.227972 -0.057121
C70   C     C_R   0.021431 0.447930 0.227977 -0.056167
C71   C     C_R   0.457498 0.962984 0.227972 -0.057119
C72   C     C_R   0.978569 0.552069 0.227976 -0.056167
C73   C     C_R   1.000000 0.500000 0.293738 0.023657
C74   C     C_R   0.500000 0.000001 0.293718 0.026041
C75   C     C_R   0.000000 0.500000 0.706262 0.023658
C76   C     C_R   0.500000 0.999999 0.706282 0.026037
C77   C     C_R   0.500000 0.999999 0.793815 0.024325
C78   C     C_R   0.000000 0.500000 0.793811 0.023355
C79   C     C_R   0.500000 0.000001 0.206184 0.024326
C80   C     C_R   1.000000 0.500000 0.206189 0.023355
C81   C     C_R   0.186341 0.500000 0.999999 -0.322237
C82   C     C_R   0.500000 0.187068 1.000000 -0.352871
C83   C     C_R   0.813659 0.500000 1.000000 -0.322236
C84   C     C_R   0.500000 0.812931 0.999999 -0.352841
C85   C     C_R   0.684578 1.000000 0.499999 -0.313781
C86   C     C_R   1.000000 0.685401 0.500000 -0.315972
C87   C     C_R   0.315422 0.000000 0.499999 -0.313778
C88   C     C_R   0.000000 0.314599 0.500000 -0.315971
C89   C     C_R   0.500000 0.618633 1.000000 1.009375
C90   C     C_R   0.381081 0.500000 1.000000 1.006412
C91   C     C_R   0.500000 0.381367 0.000000 1.009368
C92   C     C_R   0.618919 0.500000 0.000000 1.006410
C93   C     C_R   0.000000 0.119249 0.500000 0.933132
C94   C     C_R   0.880486 0.999999 0.500000 0.910089
C95   C     C_R   1.000000 0.880751 0.500000 0.933130
C96   C     C_R   0.119514 0.000001 0.500000 0.910088
C97   C     C_1   1.000000 0.500000 0.338771 -0.033334
C98   C     C_1   0.500000 0.000000 0.338759 -0.033510
C99   C     C_1   0.000000 0.500000 0.661229 -0.033334
C100  C     C_1   0.500000 1.000000 0.661240 -0.033488
C101  C     C_1   0.500000 1.000000 0.838829 -0.035393
C102  C     C_1   0.000000 0.500000 0.838830 -0.033357
C103  C     C_1   0.500000 0.000001 0.161171 -0.035402
C104  C     C_1   1.000000 0.499999 0.161170 -0.033356
C105  C     C_1   1.000000 0.500000 0.123761 -0.145765
C106  C     C_1   0.500000 0.000000 0.123762 -0.155715
C107  C     C_1   0.000000 0.500000 0.876239 -0.145765
C108  C     C_1   0.500000 1.000000 0.876238 -0.155707
C109  C     C_1   0.500000 1.000000 0.623813 -0.157837
C110  C     C_1   0.000000 0.500000 0.623803 -0.142116
C111  C     C_1   0.500000 0.000000 0.376187 -0.157854
C112  C     C_1   1.000000 0.500000 0.376197 -0.142116
Cu1   Cu    Cu3+1 0.000000 0.561730 0.000000 0.948598
Cu2   Cu    Cu3+1 0.438270 0.000000 0.000000 0.963830
Cu3   Cu    Cu3+1 0.000000 0.438270 0.000000 0.948597
Cu4   Cu    Cu3+1 0.561730 0.000000 0.000000 0.963833
Cu5   Cu    Cu3+1 0.500000 0.061730 0.500000 0.940555
Cu6   Cu    Cu3+1 0.938270 0.500000 0.500000 0.935463
Cu7   Cu    Cu3+1 0.500000 0.938270 0.500000 0.940555
Cu8   Cu    Cu3+1 0.061730 0.500000 0.500000 0.935463
Cu9   Cu    Cu3+1 0.500000 0.500000 0.958920 0.937012
Cu10  Cu    Cu3+1 0.500000 0.500000 0.041080 0.937014
Cu11  Cu    Cu3+1 0.000000 1.000000 0.458920 0.953098
Cu12  Cu    Cu3+1 0.000000 0.000000 0.541080 0.953118
O1    O     O_R   0.090200 0.552120 0.999920 -0.569327
O2    O     O_R   0.447880 0.090200 0.999920 -0.548949
O3    O     O_R   0.909800 0.447880 0.999920 -0.569328
O4    O     O_R   0.552120 0.909800 0.999920 -0.548950
O5    O     O_R   0.090200 0.447880 0.000080 -0.569329
O6    O     O_R   0.447880 0.909800 0.000080 -0.548949
O7    O     O_R   0.909800 0.552120 0.000080 -0.569331
O8    O     O_R   0.552120 0.090200 0.000080 -0.548966
O9    O     O_R   0.590200 0.052120 0.499920 -0.600032
O10   O     O_R   0.947880 0.590200 0.499920 -0.587849
O11   O     O_R   0.409800 0.947880 0.499920 -0.600033
O12   O     O_R   0.052120 0.409800 0.499920 -0.587848
O13   O     O_R   0.590200 0.947880 0.500080 -0.600036
O14   O     O_R   0.947880 0.409800 0.500080 -0.587847
O15   O     O_R   0.409800 0.052120 0.500080 -0.600038
O16   O     O_R   0.052120 0.590200 0.500080 -0.587847
O17   O     O_R   0.000000 0.552120 0.059780 -0.584726
O18   O     O_R   0.447880 0.000000 0.059780 -0.586689
O19   O     O_R   0.000000 0.447880 0.059780 -0.584726
O20   O     O_R   0.552120 0.000000 0.059780 -0.586688
O21   O     O_R   0.000000 0.447880 0.940220 -0.584726
O22   O     O_R   0.447880 0.000000 0.940220 -0.586689
O23   O     O_R   0.000000 0.552120 0.940220 -0.584726
O24   O     O_R   0.552120 0.000000 0.940220 -0.586690
O25   O     O_R   0.500000 0.052120 0.559780 -0.591009
O26   O     O_R   0.947880 0.500000 0.559780 -0.592866
O27   O     O_R   0.500000 0.947880 0.559780 -0.591008
O28   O     O_R   0.052120 0.500000 0.559780 -0.592866
O29   O     O_R   0.500000 0.947880 0.440220 -0.591014
O30   O     O_R   0.947880 0.500000 0.440220 -0.592865
O31   O     O_R   0.500000 0.052120 0.440220 -0.591013
O32   O     O_R   0.052120 0.500000 0.440220 -0.592865
O33   O     O_R   0.500000 0.590200 0.965310 -0.609233
O34   O     O_R   0.409800 0.500000 0.965310 -0.598202
O35   O     O_R   0.500000 0.409800 0.965310 -0.609237
O36   O     O_R   0.590200 0.500000 0.965310 -0.598201
O37   O     O_R   0.500000 0.409800 0.034690 -0.609231
O38   O     O_R   0.409800 0.500000 0.034690 -0.598202
O39   O     O_R   0.500000 0.590200 0.034690 -0.609236
O40   O     O_R   0.590200 0.500000 0.034690 -0.598197
O41   O     O_R   0.000000 0.090200 0.465310 -0.576850
O42   O     O_R   0.909800 0.000000 0.465310 -0.563433
O43   O     O_R   0.000000 0.909800 0.465310 -0.576850
O44   O     O_R   0.090200 0.000000 0.465310 -0.563433
O45   O     O_R   0.000000 0.909800 0.534690 -0.576852
O46   O     O_R   0.909800 1.000000 0.534690 -0.563429
O47   O     O_R   0.000000 0.090200 0.534690 -0.576852
O48   O     O_R   0.090200 1.000000 0.534690 -0.563427
C113  C     C_R   0.045599 0.394101 0.204698 0.127412
C114  C     C_R   0.005975 0.357973 0.180383 -0.145134
C115  C     C_R   0.028932 0.307616 0.158313 -0.129215
C116  C     C_R   0.091438 0.292946 0.160452 -0.114523
C117  C     C_R   0.131089 0.328614 0.184672 -0.138388
C118  C     C_R   0.108335 0.379078 0.206734 -0.128125
H1    H     H_    0.957434 0.368833 0.178606 0.125879
H2    H     H_    0.998264 0.279959 0.139561 0.125233
H3    H     H_    0.109147 0.253952 0.143345 0.119064
H4    H     H_    0.179481 0.317218 0.186291 0.121768
H5    H     H_    0.139499 0.406547 0.225281 0.118902
C119  C     C_R   0.584816 0.078280 0.204722 0.128854
C120  C     C_R   0.631069 0.053696 0.179185 -0.143661
C121  C     C_R   0.669342 0.092738 0.156321 -0.130402
C122  C     C_R   0.661908 0.156450 0.158946 -0.128108
C123  C     C_R   0.616299 0.181235 0.184529 -0.142964
C124  C     C_R   0.577825 0.142357 0.207358 -0.130125
H6    H     H_    0.637166 0.004398 0.176862 0.124097
H7    H     H_    0.704668 0.073606 0.136488 0.126295
H8    H     H_    0.691449 0.186617 0.141155 0.116084
H9    H     H_    0.610572 0.230579 0.186514 0.123702
H10   H     H_    0.542259 0.162065 0.226775 0.118228
C125  C     C_R   0.954402 0.605898 0.204697 0.127412
C126  C     C_R   0.994026 0.642026 0.180382 -0.145133
C127  C     C_R   0.971070 0.692383 0.158312 -0.129215
C128  C     C_R   0.908564 0.707054 0.160451 -0.114523
C129  C     C_R   0.868912 0.671387 0.184671 -0.138388
C130  C     C_R   0.891666 0.620922 0.206733 -0.128125
H11   H     H_    0.042567 0.631165 0.178604 0.125878
H12   H     H_    0.001738 0.720039 0.139560 0.125233
H13   H     H_    0.890856 0.746049 0.143343 0.119064
H14   H     H_    0.820520 0.682784 0.186290 0.121769
H15   H     H_    0.860502 0.593454 0.225280 0.118902
C131  C     C_R   0.415182 0.921723 0.204722 0.128854
C132  C     C_R   0.368930 0.946308 0.179185 -0.143665
C133  C     C_R   0.330657 0.907267 0.156321 -0.130389
C134  C     C_R   0.338089 0.843554 0.158946 -0.128089
C135  C     C_R   0.383697 0.818769 0.184529 -0.142964
C136  C     C_R   0.422172 0.857645 0.207358 -0.130125
H16   H     H_    0.362835 0.995606 0.176861 0.124097
H17   H     H_    0.295331 0.926400 0.136487 0.126292
H18   H     H_    0.308547 0.813389 0.141154 0.116081
H19   H     H_    0.389422 0.769424 0.186515 0.123701
H20   H     H_    0.457737 0.837936 0.226776 0.118230
C137  C     C_R   0.045595 0.605900 0.795303 0.127411
C138  C     C_R   0.005970 0.642026 0.819617 -0.145134
C139  C     C_R   0.028925 0.692385 0.841687 -0.129214
C140  C     C_R   0.091430 0.707058 0.839548 -0.114524
C141  C     C_R   0.131083 0.671393 0.815328 -0.138388
C142  C     C_R   0.108331 0.620927 0.793266 -0.128125
H21   H     H_    0.957430 0.631164 0.821395 0.125880
H22   H     H_    0.998256 0.720039 0.860440 0.125234
H23   H     H_    0.109137 0.746053 0.856656 0.119065
H24   H     H_    0.179474 0.682791 0.813709 0.121769
H25   H     H_    0.139496 0.593460 0.774719 0.118903
C143  C     C_R   0.584773 0.921676 0.795278 0.128860
C144  C     C_R   0.631042 0.946236 0.820812 -0.143658
C145  C     C_R   0.669292 0.907175 0.843678 -0.130403
C146  C     C_R   0.661819 0.843466 0.841058 -0.128106
C147  C     C_R   0.616195 0.818705 0.815477 -0.142958
C148  C     C_R   0.577743 0.857603 0.792647 -0.130129
H26   H     H_    0.637168 0.995531 0.823132 0.124095
H27   H     H_    0.704631 0.926288 0.863510 0.126292
H28   H     H_    0.691343 0.813284 0.858851 0.116078
H29   H     H_    0.610437 0.769364 0.813496 0.123702
H30   H     H_    0.542164 0.837913 0.773231 0.118227
C149  C     C_R   0.954405 0.394100 0.795303 0.127411
C150  C     C_R   0.994030 0.357974 0.819618 -0.145134
C151  C     C_R   0.971075 0.307616 0.841688 -0.129215
C152  C     C_R   0.908570 0.292943 0.839549 -0.114522
C153  C     C_R   0.868917 0.328608 0.815328 -0.138388
C154  C     C_R   0.891669 0.379073 0.793266 -0.128124
H31   H     H_    0.042570 0.368836 0.821396 0.125880
H32   H     H_    0.001744 0.279961 0.860441 0.125234
H33   H     H_    0.890863 0.253947 0.856656 0.119065
H34   H     H_    0.820526 0.317210 0.813709 0.121770
H35   H     H_    0.860505 0.406540 0.774719 0.118903
C155  C     C_R   0.415226 0.078323 0.795277 0.128859
C156  C     C_R   0.368957 0.053764 0.820812 -0.143657
C157  C     C_R   0.330709 0.092826 0.843678 -0.130405
C158  C     C_R   0.338181 0.156534 0.841058 -0.128113
C159  C     C_R   0.383806 0.181294 0.815476 -0.142957
C160  C     C_R   0.422257 0.142397 0.792646 -0.130129
H36   H     H_    0.362832 0.004469 0.823133 0.124096
H37   H     H_    0.295370 0.073713 0.863511 0.126294
H38   H     H_    0.308659 0.186716 0.858851 0.116079
H39   H     H_    0.389564 0.230635 0.813494 0.123702
H40   H     H_    0.457836 0.162085 0.773230 0.118227
C161  C     C_R   0.590509 0.928321 0.704995 0.131990
C162  C     C_R   0.573433 0.878926 0.679373 -0.146389
C163  C     C_R   0.618182 0.846393 0.657249 -0.122570
C164  C     C_R   0.680150 0.862704 0.660744 -0.112500
C165  C     C_R   0.697445 0.911540 0.686397 -0.132502
C166  C     C_R   0.652848 0.944431 0.708354 -0.117677
H41   H     H_    0.525568 0.865792 0.676534 0.121221
H42   H     H_    0.604827 0.808505 0.637426 0.120997
H43   H     H_    0.714767 0.837481 0.643628 0.113600
H44   H     H_    0.745395 0.923966 0.689268 0.122952
H45   H     H_    0.666781 0.982514 0.727869 0.116220
C167  C     C_R   0.041399 0.607871 0.705006 0.129762
C168  C     C_R   0.093986 0.605914 0.679698 -0.149428
C169  C     C_R   0.113075 0.658487 0.658291 -0.127748
C170  C     C_R   0.080177 0.713372 0.662289 -0.119341
C171  C     C_R   0.028046 0.715698 0.687612 -0.142565
C172  C     C_R   0.008429 0.663118 0.708704 -0.113031
H46   H     H_    0.120168 0.563790 0.676689 0.123511
H47   H     H_    0.153517 0.656748 0.638743 0.121098
H48   H     H_    0.095125 0.754102 0.645836 0.113083
H49   H     H_    0.002757 0.758214 0.690922 0.120812
H50   H     H_    0.967725 0.665438 0.728018 0.118260
C173  C     C_R   0.409490 0.071678 0.704994 0.131990
C174  C     C_R   0.426567 0.121072 0.679372 -0.146389
C175  C     C_R   0.381818 0.153606 0.657248 -0.122568
C176  C     C_R   0.319850 0.137295 0.660743 -0.112498
C177  C     C_R   0.302554 0.088460 0.686397 -0.132503
C178  C     C_R   0.347152 0.055569 0.708354 -0.117680
H51   H     H_    0.474432 0.134206 0.676533 0.121222
H52   H     H_    0.395173 0.191493 0.637424 0.120997
H53   H     H_    0.285233 0.162519 0.643627 0.113600
H54   H     H_    0.254605 0.076035 0.689268 0.122951
H55   H     H_    0.333218 0.017487 0.727870 0.116221
C179  C     C_R   0.958602 0.392129 0.705006 0.129762
C180  C     C_R   0.906015 0.394085 0.679698 -0.149429
C181  C     C_R   0.886926 0.341512 0.658292 -0.127748
C182  C     C_R   0.919824 0.286629 0.662289 -0.119341
C183  C     C_R   0.971955 0.284302 0.687613 -0.142563
C184  C     C_R   0.991572 0.336882 0.708704 -0.113032
H56   H     H_    0.879833 0.436210 0.676689 0.123511
H57   H     H_    0.846484 0.343252 0.638744 0.121099
H58   H     H_    0.904877 0.245898 0.645837 0.113083
H59   H     H_    0.997244 0.241787 0.690923 0.120812
H60   H     H_    0.032276 0.334562 0.728019 0.118260
C185  C     C_R   0.590553 0.071627 0.295005 0.131991
C186  C     C_R   0.573507 0.121026 0.320632 -0.146382
C187  C     C_R   0.618278 0.153535 0.342752 -0.122547
C188  C     C_R   0.680237 0.137195 0.339249 -0.112502
C189  C     C_R   0.697502 0.088356 0.313589 -0.132513
C190  C     C_R   0.652883 0.055489 0.291636 -0.117687
H61   H     H_    0.525649 0.134184 0.323477 0.121222
H62   H     H_    0.604947 0.191426 0.362580 0.120996
H63   H     H_    0.714871 0.162401 0.356361 0.113584
H64   H     H_    0.745445 0.075909 0.310710 0.122967
H65   H     H_    0.666793 0.017403 0.272117 0.116220
C191  C     C_R   0.041401 0.392130 0.294994 0.129763
C192  C     C_R   0.093988 0.394088 0.320302 -0.149427
C193  C     C_R   0.113079 0.341516 0.341709 -0.127748
C194  C     C_R   0.080181 0.286631 0.337712 -0.119341
C195  C     C_R   0.028050 0.284303 0.312388 -0.142565
C196  C     C_R   0.008433 0.336883 0.291296 -0.113033
H66   H     H_    0.120170 0.436213 0.323311 0.123510
H67   H     H_    0.153521 0.343257 0.361257 0.121099
H68   H     H_    0.095130 0.245901 0.354165 0.113085
H69   H     H_    0.002763 0.241787 0.309079 0.120811
H70   H     H_    0.967729 0.334561 0.271982 0.118259
C197  C     C_R   0.409447 0.928374 0.295005 0.131990
C198  C     C_R   0.426494 0.878975 0.320632 -0.146383
C199  C     C_R   0.381723 0.846465 0.342753 -0.122546
C200  C     C_R   0.319764 0.862804 0.339249 -0.112499
C201  C     C_R   0.302498 0.911643 0.313589 -0.132513
C202  C     C_R   0.347117 0.944511 0.291637 -0.117691
H71   H     H_    0.474351 0.865818 0.323478 0.121224
H72   H     H_    0.395055 0.808574 0.362581 0.120996
H73   H     H_    0.285130 0.837598 0.356362 0.113583
H74   H     H_    0.254555 0.924089 0.310710 0.122967
H75   H     H_    0.333206 0.982597 0.272117 0.116221
C203  C     C_R   0.958599 0.607870 0.294993 0.129763
C204  C     C_R   0.906011 0.605912 0.320301 -0.149427
C205  C     C_R   0.886922 0.658485 0.341708 -0.127748
C206  C     C_R   0.919820 0.713369 0.337710 -0.119342
C207  C     C_R   0.971951 0.715696 0.312387 -0.142565
C208  C     C_R   0.991568 0.663116 0.291295 -0.113032
H76   H     H_    0.879830 0.563787 0.323311 0.123511
H77   H     H_    0.846479 0.656744 0.361256 0.121099
H78   H     H_    0.904871 0.754099 0.354163 0.113085
H79   H     H_    0.997239 0.758212 0.309077 0.120813
H80   H     H_    0.032272 0.665437 0.271981 0.118259
O49   O     O_3   0.186643 0.406820 0.958651 -0.566310
C209  C     C_3   0.190568 0.351133 0.981105 0.137173
H81   H     H_    0.176925 0.357559 0.014198 0.132139
H82   H     H_    0.237879 0.331905 0.979750 0.189406
C210  C     C_3   0.147266 0.304343 0.961730 -0.812654
H83   H     H_    0.160292 0.296102 0.928855 0.241593
H84   H     H_    0.150103 0.260240 0.978996 0.188537
H85   H     H_    0.099203 0.321548 0.962962 0.258214
O50   O     O_3   0.612029 0.189776 0.994104 -0.544447
C211  C     C_3   0.640856 0.192914 0.033385 0.139892
H86   H     H_    0.611592 0.171277 0.057771 0.130688
H87   H     H_    0.650800 0.241377 0.042290 0.168509
C212  C     C_3   0.701594 0.158397 0.031671 -0.800829
H88   H     H_    0.732233 0.179572 0.008069 0.242629
H89   H     H_    0.724576 0.160473 0.062423 0.184414
H90   H     H_    0.693371 0.109496 0.023436 0.251726
O51   O     O_3   0.813356 0.593181 0.958651 -0.566309
C213  C     C_3   0.809432 0.648867 0.981107 0.137173
H91   H     H_    0.823078 0.642439 0.014198 0.132143
H92   H     H_    0.762120 0.668094 0.979754 0.189400
C214  C     C_3   0.852731 0.695659 0.961731 -0.812655
H93   H     H_    0.839702 0.703902 0.928857 0.241591
H94   H     H_    0.849896 0.739760 0.978998 0.188539
H95   H     H_    0.900795 0.678453 0.962959 0.258213
O52   O     O_3   0.387972 0.810227 0.994098 -0.544456
C215  C     C_3   0.359131 0.807072 0.033374 0.139860
H96   H     H_    0.388407 0.828651 0.057777 0.130642
H97   H     H_    0.349135 0.758609 0.042249 0.168587
C216  C     C_3   0.298428 0.841653 0.031669 -0.800845
H98   H     H_    0.267781 0.820549 0.008044 0.242634
H99   H     H_    0.275427 0.839549 0.062414 0.184411
H100  H     H_    0.306706 0.890560 0.023474 0.251744
O53   O     O_3   0.186644 0.593183 0.041346 -0.566308
C217  C     C_3   0.190570 0.648868 0.018889 0.137178
H101  H     H_    0.176922 0.642439 0.985798 0.132142
H102  H     H_    0.237882 0.668094 0.020241 0.189398
C218  C     C_3   0.147272 0.695662 0.038264 -0.812658
H103  H     H_    0.160302 0.703906 0.071138 0.241590
H104  H     H_    0.150109 0.739763 0.020996 0.188540
H105  H     H_    0.099207 0.678458 0.037036 0.258211
O54   O     O_3   0.612028 0.810226 0.005895 -0.544449
C219  C     C_3   0.640860 0.807074 0.966615 0.139856
H106  H     H_    0.611580 0.828657 0.942217 0.130648
H107  H     H_    0.650851 0.758611 0.957737 0.168574
C220  C     C_3   0.701565 0.841651 0.968315 -0.800848
H108  H     H_    0.732218 0.820540 0.991935 0.242635
H109  H     H_    0.724558 0.839551 0.937567 0.184410
H110  H     H_    0.693293 0.890556 0.976516 0.251746
O55   O     O_3   0.813357 0.406821 0.041350 -0.566309
C221  C     C_3   0.809430 0.351133 0.018897 0.137170
H111  H     H_    0.823073 0.357558 0.985804 0.132139
H112  H     H_    0.762118 0.331906 0.020252 0.189415
C222  C     C_3   0.852731 0.304343 0.038273 -0.812661
H113  H     H_    0.839706 0.296104 0.071148 0.241596
H114  H     H_    0.849892 0.260239 0.021008 0.188536
H115  H     H_    0.900795 0.321547 0.037040 0.258214
O56   O     O_3   0.387971 0.189775 0.005892 -0.544448
C223  C     C_3   0.359144 0.192924 0.966611 0.139864
H116  H     H_    0.388419 0.171322 0.942217 0.130665
H117  H     H_    0.349170 0.241387 0.957723 0.168550
C224  C     C_3   0.298426 0.158369 0.968313 -0.800846
H118  H     H_    0.267776 0.179503 0.991925 0.242633
H119  H     H_    0.275440 0.160460 0.937562 0.184411
H120  H     H_    0.306679 0.109465 0.976526 0.251740
O57   O     O_3   0.683153 0.971245 0.427835 -0.574184
C225  C     C_3   0.683274 0.907166 0.420872 0.113464
H121  H     H_    0.661267 0.882345 0.447211 0.140927
H122  H     H_    0.730803 0.889351 0.416488 0.173660
C226  C     C_3   0.646997 0.893439 0.381580 -0.801098
H123  H     H_    0.667559 0.918200 0.354794 0.250944
H124  H     H_    0.647819 0.843285 0.375179 0.187677
H125  H     H_    0.598524 0.908317 0.385417 0.253946
O58   O     O_3   0.066535 0.684507 0.440117 -0.571274
C227  C     C_3   0.130152 0.687392 0.448745 0.124366
H126  H     H_    0.140282 0.673417 0.481341 0.136095
H127  H     H_    0.148275 0.734529 0.443389 0.170196
C228  C     C_3   0.163876 0.643664 0.419797 -0.807515
H128  H     H_    0.155468 0.656942 0.386986 0.245451
H129  H     H_    0.214056 0.645572 0.426067 0.185185
H130  H     H_    0.147437 0.595880 0.424772 0.264145
O59   O     O_3   0.316846 0.028750 0.427835 -0.574184
C229  C     C_3   0.316727 0.092828 0.420868 0.113462
H131  H     H_    0.338740 0.117650 0.447205 0.140930
H132  H     H_    0.269197 0.110645 0.416487 0.173658
C230  C     C_3   0.352997 0.106551 0.381572 -0.801095
H133  H     H_    0.332430 0.081787 0.354790 0.250945
H134  H     H_    0.352174 0.156704 0.375169 0.187678
H135  H     H_    0.401470 0.091672 0.385406 0.253942
O60   O     O_3   0.933465 0.315494 0.440117 -0.571275
C231  C     C_3   0.869848 0.312608 0.448745 0.124364
H136  H     H_    0.859717 0.326582 0.481341 0.136095
H137  H     H_    0.851725 0.265472 0.443388 0.170197
C232  C     C_3   0.836123 0.356337 0.419797 -0.807514
H138  H     H_    0.844532 0.343061 0.386986 0.245451
H139  H     H_    0.785944 0.354429 0.426067 0.185184
H140  H     H_    0.852562 0.404121 0.424772 0.264145
O61   O     O_3   0.683152 0.028754 0.572163 -0.574180
C233  C     C_3   0.683278 0.092833 0.579127 0.113480
H141  H     H_    0.661279 0.117657 0.552786 0.140918
H142  H     H_    0.730809 0.110643 0.583516 0.173661
C234  C     C_3   0.646994 0.106564 0.618416 -0.801119
H143  H     H_    0.667548 0.081800 0.645203 0.250940
H144  H     H_    0.647821 0.156717 0.624817 0.187678
H145  H     H_    0.598521 0.091691 0.614573 0.253948
O62   O     O_3   0.066536 0.315493 0.559883 -0.571274
C235  C     C_3   0.130153 0.312608 0.551254 0.124366
H146  H     H_    0.140283 0.326584 0.518658 0.136096
H147  H     H_    0.148276 0.265472 0.556610 0.170195
C236  C     C_3   0.163877 0.356336 0.580202 -0.807515
H148  H     H_    0.155469 0.343058 0.613013 0.245451
H149  H     H_    0.214057 0.354430 0.573932 0.185184
H150  H     H_    0.147438 0.404121 0.575228 0.264146
O63   O     O_3   0.316848 0.971250 0.572164 -0.574183
C237  C     C_3   0.316723 0.907171 0.579130 0.113478
H151  H     H_    0.338728 0.882346 0.552791 0.140921
H152  H     H_    0.269193 0.889360 0.583516 0.173659
C238  C     C_3   0.353001 0.893444 0.618422 -0.801118
H153  H     H_    0.332443 0.918210 0.645207 0.250941
H154  H     H_    0.352174 0.843292 0.624826 0.187679
H155  H     H_    0.401475 0.908318 0.614583 0.253944
O64   O     O_3   0.933465 0.684506 0.559884 -0.571274
C239  C     C_3   0.869848 0.687391 0.551255 0.124363
H156  H     H_    0.859717 0.673415 0.518660 0.136097
H157  H     H_    0.851725 0.734528 0.556611 0.170196
C240  C     C_3   0.836124 0.643663 0.580204 -0.807517
H158  H     H_    0.844533 0.656941 0.613015 0.245452
H159  H     H_    0.785944 0.645570 0.573934 0.185184
H160  H     H_    0.852563 0.595879 0.575230 0.264146
O65   O     O_3   0.315705 0.409055 0.957340 -0.542540
C241  C     C_3   0.313838 0.419558 0.914115 0.132688
H161  H     H_    0.330169 0.466721 0.906258 0.131870
H162  H     H_    0.266515 0.413247 0.901745 0.169843
C242  C     C_3   0.355738 0.373372 0.892733 -0.809934
H163  H     H_    0.339661 0.325838 0.899155 0.233891
H164  H     H_    0.355204 0.381238 0.858677 0.184692
H165  H     H_    0.403583 0.378564 0.904293 0.262842
O66   O     O_3   0.608520 0.316378 0.984864 -0.542806
C243  C     C_3   0.620568 0.314163 0.941789 0.127673
H166  H     H_    0.581446 0.333650 0.923711 0.129120
H167  H     H_    0.629208 0.266120 0.931371 0.165492
C244  C     C_3   0.677617 0.351986 0.932183 -0.802895
H168  H     H_    0.717754 0.333233 0.949247 0.232957
H169  H     H_    0.687446 0.350244 0.898380 0.185645
H170  H     H_    0.670250 0.400576 0.941335 0.248526
O67   O     O_3   0.684295 0.590945 0.957340 -0.542543
C245  C     C_3   0.686162 0.580444 0.914114 0.132687
H171  H     H_    0.669832 0.533280 0.906257 0.131871
H172  H     H_    0.733485 0.586754 0.901745 0.169845
C246  C     C_3   0.644262 0.626630 0.892733 -0.809937
H173  H     H_    0.660338 0.674164 0.899157 0.233891
H174  H     H_    0.644797 0.618766 0.858677 0.184693
H175  H     H_    0.596417 0.621436 0.904292 0.262841
O68   O     O_3   0.391481 0.683622 0.984859 -0.542835
C247  C     C_3   0.379437 0.685837 0.941784 0.127655
H176  H     H_    0.418561 0.666354 0.923707 0.129129
H177  H     H_    0.370794 0.733881 0.931366 0.165493
C248  C     C_3   0.322391 0.648010 0.932175 -0.802901
H178  H     H_    0.282251 0.666760 0.949237 0.232955
H179  H     H_    0.312565 0.649751 0.898371 0.185647
H180  H     H_    0.329761 0.599420 0.941328 0.248534
O69   O     O_3   0.315705 0.590946 0.042658 -0.542545
C249  C     C_3   0.313837 0.580446 0.085884 0.132679
H181  H     H_    0.330167 0.533282 0.093742 0.131871
H182  H     H_    0.266515 0.586759 0.098252 0.169846
C250  C     C_3   0.355738 0.626632 0.107264 -0.809935
H183  H     H_    0.339664 0.674166 0.100839 0.233895
H184  H     H_    0.355203 0.618769 0.141320 0.184692
H185  H     H_    0.403584 0.621436 0.095705 0.262843
O70   O     O_3   0.608519 0.683622 0.015138 -0.542828
C251  C     C_3   0.620565 0.685838 0.058213 0.127659
H186  H     H_    0.581442 0.666354 0.076291 0.129127
H187  H     H_    0.629208 0.733882 0.068630 0.165487
C252  C     C_3   0.677612 0.648012 0.067821 -0.802898
H188  H     H_    0.717751 0.666762 0.050757 0.232957
H189  H     H_    0.687440 0.649754 0.101624 0.185646
H190  H     H_    0.670242 0.599422 0.058669 0.248531
O71   O     O_3   0.684295 0.409058 0.042663 -0.542537
C253  C     C_3   0.686164 0.419564 0.085888 0.132686
H191  H     H_    0.669836 0.466729 0.093743 0.131867
H192  H     H_    0.733486 0.413252 0.098256 0.169845
C254  C     C_3   0.644262 0.373382 0.107272 -0.809928
H193  H     H_    0.660336 0.325846 0.100850 0.233903
H194  H     H_    0.644798 0.381249 0.141327 0.184690
H195  H     H_    0.596417 0.378576 0.095712 0.262841
O72   O     O_3   0.391480 0.316378 0.015136 -0.542816
C255  C     C_3   0.379431 0.314161 0.058211 0.127664
H196  H     H_    0.418554 0.333642 0.076290 0.129120
H197  H     H_    0.370787 0.266116 0.068627 0.165489
C256  C     C_3   0.322386 0.351988 0.067818 -0.802893
H198  H     H_    0.282247 0.333240 0.050753 0.232956
H199  H     H_    0.312556 0.350243 0.101621 0.185644
H200  H     H_    0.329757 0.400578 0.058668 0.248530
O73   O     O_3   0.811008 0.972851 0.426597 -0.555611
C257  C     C_3   0.810876 0.024520 0.400035 0.137434
H201  H     H_    0.834612 0.064249 0.414873 0.153846
H202  H     H_    0.763264 0.038424 0.391542 0.172718
C258  C     C_3   0.844941 0.008076 0.360331 -0.824032
H203  H     H_    0.820576 0.970275 0.343993 0.245557
H204  H     H_    0.847177 0.048705 0.339551 0.189042
H205  H     H_    0.892505 0.993016 0.367730 0.252317
O74   O     O_3   0.063356 0.813485 0.438229 -0.574934
C259  C     C_3   0.030548 0.810153 0.400443 0.140729
H206  H     H_    0.980699 0.820571 0.404753 0.134102
H207  H     H_    0.035542 0.763816 0.386338 0.183259
C260  C     C_3   0.056825 0.857201 0.370409 -0.836136
H208  H     H_    0.106120 0.847182 0.364423 0.237783
H209  H     H_    0.031307 0.855658 0.340593 0.189273
H210  H     H_    0.052427 0.904042 0.383767 0.264857
O75   O     O_3   0.188992 0.027146 0.426596 -0.555610
C261  C     C_3   0.189123 0.975476 0.400036 0.137437
H211  H     H_    0.165386 0.935748 0.414874 0.153849
H212  H     H_    0.236735 0.961571 0.391543 0.172717
C262  C     C_3   0.155059 0.991919 0.360331 -0.824031
H213  H     H_    0.179426 0.029719 0.343992 0.245556
H214  H     H_    0.152823 0.951291 0.339552 0.189041
H215  H     H_    0.107495 0.006982 0.367729 0.252317
O76   O     O_3   0.936642 0.186515 0.438230 -0.574936
C263  C     C_3   0.969448 0.189847 0.400443 0.140729
H216  H     H_    0.019298 0.179431 0.404752 0.134102
H217  H     H_    0.964452 0.236184 0.386337 0.183259
C264  C     C_3   0.943172 0.142799 0.370409 -0.836133
H218  H     H_    0.893876 0.152816 0.364424 0.237782
H219  H     H_    0.968687 0.144342 0.340594 0.189273
H220  H     H_    0.947571 0.095958 0.383768 0.264857
O77   O     O_3   0.811006 0.027133 0.573405 -0.555604
C265  C     C_3   0.810865 0.975459 0.599963 0.137427
H221  H     H_    0.834616 0.935737 0.585127 0.153860
H222  H     H_    0.763251 0.961546 0.608444 0.172699
C266  C     C_3   0.844905 0.991900 0.639677 -0.824014
H223  H     H_    0.820526 0.029696 0.656011 0.245568
H224  H     H_    0.847131 0.951269 0.660455 0.189041
H225  H     H_    0.892473 0.006966 0.632293 0.252304
O78   O     O_3   0.063359 0.186515 0.561770 -0.574936
C267  C     C_3   0.030552 0.189845 0.599556 0.140726
H226  H     H_    0.980703 0.179426 0.595247 0.134102
H227  H     H_    0.035545 0.236183 0.613662 0.183258
C268  C     C_3   0.056831 0.142798 0.629591 -0.836128
H228  H     H_    0.106125 0.152819 0.635576 0.237782
H229  H     H_    0.031314 0.144340 0.659406 0.189273
H230  H     H_    0.052435 0.095957 0.616232 0.264857
O79   O     O_3   0.188994 0.972867 0.573406 -0.555606
C269  C     C_3   0.189135 0.024541 0.599963 0.137428
H231  H     H_    0.165385 0.064263 0.585128 0.153859
H232  H     H_    0.236749 0.038453 0.608445 0.172704
C270  C     C_3   0.155093 0.008099 0.639677 -0.824014
H233  H     H_    0.179470 0.970301 0.656011 0.245569
H234  H     H_    0.152868 0.048730 0.660456 0.189041
H235  H     H_    0.107525 0.993035 0.632292 0.252304
O80   O     O_3   0.936641 0.813485 0.561770 -0.574937
C271  C     C_3   0.969448 0.810154 0.599557 0.140726
H236  H     H_    0.019297 0.820573 0.595247 0.134103
H237  H     H_    0.964455 0.763817 0.613662 0.183259
C272  C     C_3   0.943170 0.857201 0.629591 -0.836128
H238  H     H_    0.893875 0.847181 0.635576 0.237781
H239  H     H_    0.968687 0.855660 0.659406 0.189273
H240  H     H_    0.947565 0.904043 0.616231 0.264857

loop_
_geom_bond_atom_site_label_1
_geom_bond_atom_site_label_2
_ccdc_geom_bond_type
C1    C25   A    
C19   O59   S    
O50   C211  S    
C5    C37   A    
C260  H208  S    
C77   C101  S    
C253  C254  S    
Cu5   O9    S    
C120  H6    S    
O75   C261  S    
C256  H200  S    
C261  C262  S    
C217  H101  S    
Cu10  O37   S    
C193  H67   S    
C17   C85   A    
C264  H220  S    
C174  C175  A    
C33   O73   S    
C19   C87   A    
C207  H79   S    
Cu5   Cu7   S    
O59   C229  S    
C257  H201  S    
C237  H152  S    
C51   O21   A    
C44   O6    A    
C185  C190  A    
C22   C38   A    
C238  H155  S    
C27   O67   S    
C211  C212  S    
C169  C170  A    
C268  H228  S    
C144  H26   S    
C234  H143  S    
C242  H164  S    
C216  H100  S    
C269  H231  S    
C233  C234  S    
C270  H234  S    
C247  H176  S    
C21   O61   S    
C158  H38   S    
C10   O50   S    
C149  C150  A    
C167  C168  A    
C262  H214  S    
C233  H142  S    
C199  H72   S    
C96   O44   A    
C165  H44   S    
C146  H28   S    
C14   O54   S    
C59   C73   A    
C199  C200  A    
C214  H95   S    
C129  C130  A    
Cu7   O29   S    
C233  H141  S    
C225  H122  S    
Cu2   O6    S    
Cu5   O15   S    
C8    C38   A    
C143  C144  A    
C210  H84   S    
C210  H83   S    
Cu3   O19   S    
C212  H90   S    
C247  H177  S    
C65   C77   A    
C200  C201  A    
C41   O1    A    
C163  C164  A    
C205  C206  A    
C56   O30   A    
C43   O3    A    
C97   C112  T    
C207  C208  A    
C232  H140  S    
C54   O28   A    
O64   C239  S    
C99   C110  T    
C10   C82   A    
C20   O60   S    
C240  H160  S    
O78   C267  S    
C198  H71   S    
C11   O51   S    
C246  H175  S    
C115  C116  A    
Cu12  O48   S    
C11   C27   A    
C206  H78   S    
C266  H225  S    
C267  C268  S    
C1    C29   A    
C186  C187  A    
C2    C26   A    
C189  C190  A    
C3    C31   A    
C219  H106  S    
C176  H53   S    
C181  C182  A    
C80   C104  S    
O53   C217  S    
C236  H150  S    
C223  H117  S    
O73   C257  S    
C183  C184  A    
C4    C89   S    
C53   C109  S    
C261  H211  S    
C52   O22   A    
C55   C111  S    
C173  C178  A    
C15   O55   S    
C238  H153  S    
C253  H191  S    
C164  H43   S    
C8    C93   S    
C126  C127  A    
C271  C272  S    
C89   O33   A    
C251  H186  S    
C76   C100  S    
C220  H108  S    
C45   O9    A    
C168  H46   S    
C241  C242  S    
C48   O14   A    
C92   O36   A    
C43   O7    A    
C170  H48   S    
C240  H158  S    
C161  C166  A    
C19   C35   A    
O56   C223  S    
C94   O46   A    
C156  H36   S    
O70   C251  S    
C159  H39   S    
O54   C219  S    
C209  H81   S    
Cu6   Cu8   S    
C264  H219  S    
C188  H63   S    
C42   O2    A    
C125  C126  A    
C197  C198  A    
C51   C107  S    
C153  H34   S    
C7    C39   A    
C255  H196  S    
C57   C191  S    
Cu5   O25   S    
C246  H174  S    
C272  H238  S    
Cu6   O14   S    
C117  H4    S    
C157  C158  A    
C218  H104  S    
C172  H50   S    
C133  H17   S    
C34   O74   S    
C43   C83   S    
C24   O64   S    
C67   C77   A    
O57   C225  S    
C56   O32   A    
C258  H205  S    
C251  C252  S    
C71   C79   A    
C222  H113  S    
C138  H21   S    
C54   O26   A    
O76   C263  S    
C55   O31   A    
C12   C84   A    
C141  C142  A    
C90   O38   A    
C24   C40   A    
C142  H25   S    
C66   C137  S    
C166  H45   S    
C259  H206  S    
Cu2   O2    S    
C269  H232  S    
C135  H19   S    
C20   C88   A    
Cu10  O40   S    
C119  C120  A    
C54   C110  S    
C243  C244  S    
C2    C32   A    
C187  H62   S    
C57   C73   A    
C215  H96   S    
C249  H182  S    
C139  H22   S    
Cu4   O20   S    
C192  H66   S    
C250  H183  S    
C164  C165  A    
C255  C256  S    
C5    C33   A    
Cu5   O31   S    
C235  H146  S    
Cu8   O16   S    
C184  H60   S    
C61   C167  S    
Cu6   O10   S    
C179  C180  A    
C213  H91   S    
C204  H76   S    
C38   O78   S    
C52   O24   A    
O71   C253  S    
C53   O25   A    
C79   C103  S    
O61   C233  S    
C211  H86   S    
C124  H10   S    
C62   C161  S    
C45   O13   A    
C140  C141  A    
C226  H124  S    
C50   O20   A    
C242  H163  S    
C229  H132  S    
C28   O68   S    
C220  H110  S    
C245  H172  S    
C248  H179  S    
C154  H35   S    
C263  H216  S    
C169  H47   S    
C219  H107  S    
C102  C107  T    
C259  C260  S    
C162  H41   S    
C239  H156  S    
C234  H144  S    
C137  C138  A    
C32   O72   S    
C250  H184  S    
C215  C216  S    
C47   C87   S    
C95   O45   A    
O66   C243  S    
C244  H169  S    
Cu4   O8    S    
C182  H58   S    
C235  C236  S    
C75   C99   S    
C134  C135  A    
C122  H8    S    
C127  H12   S    
C224  H120  S    
C211  H87   S    
C252  H189  S    
C213  C214  S    
C143  C148  A    
C267  H226  S    
Cu11  O44   S    
C235  H147  S    
C123  H9    S    
C185  C186  A    
C243  H166  S    
C227  H126  S    
C253  H192  S    
C69   C79   A    
C205  H77   S    
C35   O75   S    
C222  H115  S    
C58   C74   A    
C55   O29   A    
C236  H148  S    
C160  H40   S    
C257  C258  S    
C47   O11   A    
C48   O12   A    
C91   O37   A    
C201  H74   S    
C198  C199  A    
C239  C240  S    
C95   O43   A    
C150  H31   S    
C31   O71   S    
Cu2   Cu4   S    
C15   C31   A    
C16   O56   S    
C16   C32   A    
C186  H61   S    
Cu10  O38   S    
C200  H73   S    
C3    C27   A    
C224  H118  S    
C179  C184  A    
C72   C80   A    
O55   C221  S    
C257  H202  S    
C237  C238  S    
C147  H29   S    
C63   C75   A    
C113  C118  A    
C15   C83   A    
C150  C151  A    
C258  H204  S    
Cu1   O17   S    
Cu6   O30   S    
C221  H112  S    
C183  H59   S    
C127  C128  A    
C216  H99   S    
C100  C109  T    
C171  C172  A    
C227  C228  S    
C262  H213  S    
C4    C28   A    
C173  C174  A    
C53   O27   A    
C177  H54   S    
C267  H227  S    
Cu1   Cu3   S    
C126  H11   S    
O67   C245  S    
C24   C86   A    
O60   C231  S    
C50   O18   A    
C214  H94   S    
C263  C264  S    
C130  H15   S    
C78   C102  S    
C228  H129  S    
C170  C171  A    
C14   C84   A    
C94   O42   A    
C5    C94   S    
C9    C25   A    
C156  C157  A    
C7    C96   S    
C212  H89   S    
C18   C86   A    
C254  H195  S    
C12   C28   A    
C39   O79   S    
C13   C29   A    
C214  H93   S    
C58   C185  S    
Cu3   O5    S    
O69   C249  S    
C271  H237  S    
C232  H139  S    
C153  C154  A    
C13   C81   A    
Cu8   O32   S    
C242  H165  S    
C175  C176  A    
C8    C36   A    
C121  H7    S    
Cu6   O26   S    
C254  H193  S    
C231  H136  S    
C104  C105  T    
C265  H222  S    
C63   C68   A    
Cu11  O42   S    
Cu12  O45   S    
C133  C134  A    
C266  H224  S    
Cu9   O36   S    
C49   O17   A    
C48   C88   S    
C22   C88   A    
C57   C70   A    
C91   O35   A    
C118  H5    S    
C265  C266  S    
C59   C72   A    
C101  C108  T    
C228  H128  S    
O72   C255  S    
C260  H209  S    
C62   C76   A    
C244  H170  S    
C116  H3    S    
C17   C33   A    
O62   C235  S    
C72   C125  S    
C243  H167  S    
C157  H37   S    
C226  H123  S    
C21   C85   A    
C190  H65   S    
C203  C204  A    
O49   C209  S    
C68   C78   A    
C163  H42   S    
C66   C78   A    
C261  H212  S    
C268  H229  S    
C70   C80   A    
C151  H32   S    
Cu11  Cu12  S    
C74   C98   S    
Cu9   O35   S    
C139  C140  A    
Cu4   O24   S    
C237  H151  S    
C49   C105  S    
C225  C226  S    
C60   C71   A    
C11   C83   A    
C155  C156  A    
O63   C237  S    
C141  H24   S    
C251  H187  S    
C187  C188  A    
Cu8   O12   S    
C231  C232  S    
C202  H75   S    
C148  H30   S    
O74   C259  S    
C217  C218  S    
C204  C205  A    
C59   C203  S    
C262  H215  S    
C41   C81   S    
C152  C153  A    
C145  H27   S    
C6    C95   S    
C195  H69   S    
C209  H82   S    
C229  C230  S    
Cu9   Cu10  S    
C115  H2    S    
C121  C122  A    
C272  H240  S    
C191  C196  A    
C225  H121  S    
C255  H197  S    
C240  H159  S    
C180  C181  A    
C210  H85   S    
C46   O16   A    
C218  H103  S    
C232  H138  S    
C137  C142  A    
C194  H68   S    
C93   O47   A    
C249  H181  S    
C271  H236  S    
C152  H33   S    
C44   C84   S    
C68   C149  S    
C37   O77   S    
C189  H64   S    
C58   C69   A    
C180  H56   S    
C29   O69   S    
C17   O57   S    
Cu3   O21   S    
C134  H18   S    
C209  C210  S    
C13   O53   S    
Cu1   O23   S    
C159  C160  A    
C92   O40   A    
C122  C123  A    
C256  H199  S    
C254  H194  S    
C259  H207  S    
C269  C270  S    
C120  C121  A    
C161  C162  A    
Cu12  O47   S    
C49   O19   A    
C147  C148  A    
O58   C227  S    
C145  C146  A    
Cu7   O11   S    
C194  C195  A    
C20   C36   A    
C67   C155  S    
C6    C34   A    
C21   C37   A    
C117  C118  A    
C47   O15   A    
C128  H13   S    
C50   C106  S    
C132  C133  A    
C223  H116  S    
C191  C192  A    
C42   O8    A    
O51   C213  S    
C89   O39   A    
C203  C208  A    
C247  C248  S    
C167  C172  A    
C9    O49   S    
C182  C183  A    
C42   C82   S    
C201  C202  A    
C230  H135  S    
C219  C220  S    
C270  H233  S    
C138  C139  A    
C113  C114  A    
C61   C75   A    
C73   C97   S    
C220  H109  S    
C245  C246  S    
C248  H178  S    
C144  C145  A    
Cu2   O18   S    
C268  H230  S    
C151  C152  A    
C197  C202  A    
C239  H157  S    
Cu1   O1    S    
C171  H49   S    
Cu9   O34   S    
C165  C166  A    
Cu3   O3    S    
C246  H173  S    
C236  H149  S    
C229  H131  S    
C36   O76   S    
C238  H154  S    
C114  C115  A    
C61   C66   A    
C18   O58   S    
C71   C131  S    
C177  C178  A    
C131  C132  A    
C223  C224  S    
C140  H23   S    
C149  C154  A    
C226  H125  S    
C224  H119  S    
C244  H168  S    
C162  C163  A    
C3    C92   S    
C218  H105  S    
Cu11  O43   S    
C234  H145  S    
C93   O41   A    
C23   C87   A    
C208  H80   S    
C227  H127  S    
C221  C222  S    
C70   C113  S    
C192  C193  A    
C14   C30   A    
C131  C136  A    
C222  H114  S    
C213  H92   S    
Cu7   O27   S    
C181  H57   S    
C263  H217  S    
Cu8   O28   S    
C12   O52   S    
Cu7   O13   S    
C64   C67   A    
Cu2   O22   S    
O65   C241  S    
C176  C177  A    
C249  C250  S    
C256  H198  S    
C178  H55   S    
C175  H52   S    
C63   C179  S    
O79   C269  S    
Cu10  O39   S    
C65   C143  S    
C123  C124  A    
C40   O80   S    
C90   O34   A    
C45   C85   S    
O80   C271  S    
C193  C194  A    
C158  C159  A    
C22   O62   S    
C51   O23   A    
C265  H221  S    
C16   C82   A    
C258  H203  S    
C64   C76   A    
C241  H162  S    
C18   C34   A    
C216  H98   S    
C128  C129  A    
C116  C117  A    
C230  H133  S    
Cu4   O4    S    
C132  H16   S    
C272  H239  S    
C2    C91   S    
C1    C90   S    
C270  H235  S    
C188  C189  A    
C125  C130  A    
C252  H188  S    
C155  C160  A    
C245  H171  S    
C44   O4    A    
C248  H180  S    
C217  H102  S    
C98   C111  T    
Cu1   O7    S    
C62   C65   A    
C221  H111  S    
C7    C35   A    
C260  H210  S    
C174  H51   S    
C46   O10   A    
C230  H134  S    
C212  H88   S    
C241  H161  S    
C250  H185  S    
C195  C196  A    
C30   O70   S    
C25   O65   S    
O52   C215  S    
C23   O63   S    
C41   O5    A    
C64   C173  S    
C10   C26   A    
C264  H218  S    
C129  H14   S    
C23   C39   A    
C60   C74   A    
C228  H130  S    
C215  H97   S    
C196  H70   S    
C136  H20   S    
C103  C106  T    
C6    C40   A    
C135  C136  A    
C26   O66   S    
O77   C265  S    
C252  H190  S    
C231  H137  S    
C69   C119  S    
Cu11  O41   S    
Cu12  O46   S    
C52   C108  S    
C266  H223  S    
C96   O48   A    
C146  C147  A    
C206  C207  A    
C119  C124  A    
Cu9   O33   S    
C60   C197  S    
O68   C247  S    
C114  H1    S    
C56   C112  S    
C4    C30   A    
C9    C81   A    
C46   C86   S    
C168  C169  A    
