data_mof_unit_49048.cif
_audit_creation_date              2013-03-05T15:54:21-0500
_audit_creation_method            fapswitch 2.2
_symmetry_space_group_name_H-M    P1
_symmetry_Int_Tables_number       1
_space_group_crystal_system       triclinic
_cell_length_a                    15.039679
_cell_length_b                    14.775351
_cell_length_c                    14.850592
_cell_angle_alpha                 109.281133
_cell_angle_beta                  109.4841
_cell_angle_gamma                 109.534703
_cell_volume                      2543.92623654

loop_
_atom_site_label
_atom_site_type_symbol
_atom_site_description
_atom_site_fract_x
_atom_site_fract_y
_atom_site_fract_z
_atom_type_partial_charge
C1    C     C_R   0.005800 0.805715 0.099184 -0.050361
H1    H     H_    0.986755 0.833502 0.163521 0.064781
N1    N     N_R   0.995640 0.706130 0.053910 -0.047460
C2    C     C_R   0.791779 0.193463 0.702150 -0.155581
H2    H     H_    0.826367 0.158497 0.657980 0.098298
N2    N     N_R   0.848310 0.293860 0.791110 -0.044559
C3    C     C_R   0.024727 0.594963 0.780238 -0.192965
H3    H     H_    0.050279 0.680449 0.806699 0.116396
N3    N     N_R   0.054010 0.556790 0.847890 -0.045493
C4    C     C_R   0.685165 0.409276 0.937172 -0.088926
H4    H     H_    0.620128 0.324112 0.888187 0.091390
N4    N     N_R   0.789940 0.443190 0.997130 -0.031388
C5    C     C_R   0.945180 0.411364 0.683047 0.154310
N5    N     N_R   0.997630 0.443170 0.791110 -0.064961
C6    C     C_R   0.779050 0.594939 0.030674 -0.130681
H5    H     H_    0.803389 0.681548 0.067351 0.139277
N6    N     N_R   0.846320 0.556810 0.053910 -0.042050
C7    C     C_R   0.698802 0.196523 0.790425 -0.130512
H6    H     H_    0.646865 0.169376 0.822667 0.097860
N7    N     N_R   0.791080 0.293860 0.847890 -0.040078
C8    C     C_R   0.098081 0.807845 0.010189 -0.169557
H7    H     H_    0.163319 0.838331 0.993557 0.086944
N8    N     N_R   0.052880 0.706130 0.997130 -0.036278
C9    C     C_R   0.068461 0.871637 0.072283 0.101394
C10   C     C_R   0.697198 0.131452 0.697998 0.077691
C11   C     C_R   0.953585 0.506326 0.675127 0.065658
C12   C     C_R   0.676016 0.503845 0.958951 -0.007370
C13   C     C_R   0.994057 0.592504 0.298554 -0.145954
H8    H     H_    0.012134 0.676262 0.343908 0.104636
N9    N     N_R   0.002370 0.556830 0.208890 -0.046216
C14   C     C_R   0.205369 0.406731 0.897930 0.140708
N10   N     N_R   0.153680 0.443190 0.946090 -0.057736
C15   C     C_R   0.312841 0.746078 0.221696 -0.137999
H9    H     H_    0.373049 0.747928 0.197514 0.109303
N11   N     N_R   0.208920 0.706140 0.152110 -0.038715
C16   C     C_R   0.980117 0.259127 0.072865 -0.117974
H10   H     H_    0.955736 0.260289 0.133138 0.106701
N12   N     N_R   0.947120 0.293870 0.002870 -0.040363
C17   C     C_R   0.071432 0.257148 0.982105 -0.136923
H11   H     H_    0.131422 0.255366 0.960053 0.105405
N13   N     N_R   0.004360 0.293870 0.946090 -0.044908
C18   C     C_R   0.223098 0.751225 0.315588 -0.133250
H12   H     H_    0.202364 0.762624 0.379923 0.095855
N14   N     N_R   0.151690 0.706140 0.208890 -0.044542
C19   C     C_R   0.905342 0.409613 0.210540 -0.116467
H13   H     H_    0.847835 0.324752 0.180141 0.150179
N15   N     N_R   0.945990 0.443210 0.152110 -0.051401
C20   C     C_R   0.295977 0.591497 0.990536 -0.202957
H14   H     H_    0.347835 0.677214 0.017528 0.114296
N16   N     N_R   0.210060 0.556810 0.002870 -0.040616
Ni1   Ni    Ni4+2 0.999010 0.630300 0.130220 0.209096
Ni2   Ni    Ni4+2 0.000990 0.369700 0.869780 0.195623
Ni3   Ni    Ni4+2 0.130280 0.630280 0.000000 0.205867
Ni4   Ni    Ni4+2 0.869720 0.369720 0.000000 0.239165
C21   C     C_R   0.933080 0.502286 0.302699 0.122025
C22   C     C_R   0.297096 0.500561 0.926236 -0.039819
C23   C     C_R   0.325368 0.776633 0.325773 0.070310
C24   C     C_R   0.056881 0.233059 0.060706 0.063613
C25   C     C_3   0.484425 0.435602 0.822906 -0.396175
H15   H     H_    0.462657 0.347241 0.790960 0.156293
H16   H     H_    0.512747 0.464242 0.771978 0.168094
C26   C     C_3   0.382943 0.445430 0.812414 -0.409450
H17   H     H_    0.372638 0.494447 0.770717 0.159434
H18   H     H_    0.309749 0.363647 0.755915 0.164510
H19   H     H_    0.522778 0.370487 0.981490 0.172846
H20   H     H_    0.373080 0.372788 0.973859 0.153339
C27   C     C_3   0.538938 0.457161 0.012184 -0.366244
C28   C     C_3   0.594288 0.626087 0.990068 -0.313263
C29   C     C_3   0.575533 0.506099 0.945164 0.314474
H21   H     H_    0.660008 0.679881 0.077728 0.174875
H22   H     H_    0.617517 0.661010 0.940344 0.214880
C30   C     C_3   0.397783 0.505685 0.929000 0.393926
C31   C     C_3   0.435694 0.457431 0.003220 -0.394385
C32   C     C_3   0.491124 0.626637 0.984904 -0.418895
H23   H     H_    0.467808 0.668362 0.938599 0.170088
H24   H     H_    0.509594 0.675868 0.070516 0.160221
H25   H     H_    0.604123 0.506364 0.100329 0.177777
H26   H     H_    0.451754 0.508559 0.087318 0.161485
C33   C     C_R   0.621674 0.963565 0.521516 0.145965
C34   C     C_R   0.618963 0.014409 0.617731 0.037354
C35   C     C_R   0.528763 0.955620 0.625241 -0.183364
H27   H     H_    0.525714 0.986957 0.700382 0.131058
C36   C     C_R   0.433945 0.864387 0.529888 -0.196561
H28   H     H_    0.361603 0.828863 0.535302 0.126488
C37   C     C_R   0.429405 0.832942 0.427322 0.036659
C38   C     C_R   0.528086 0.874404 0.427355 0.144136
C39   C     C_3   0.558387 0.914138 0.355476 -0.488244
C40   C     C_3   0.660683 0.011080 0.458449 -0.490102
H29   H     H_    0.574614 0.857438 0.300998 0.191425
H30   H     H_    0.503565 0.940201 0.314031 0.207536
H31   H     H_    0.735738 0.009973 0.463528 0.195233
H32   H     H_    0.663072 0.091170 0.474784 0.204344
C41   C     C_R   0.953444 0.609252 0.482471 0.116302
C42   C     C_R   0.897234 0.509181 0.384251 -0.127163
C43   C     C_R   0.816406 0.417631 0.376113 0.331926
C44   C     C_R   0.822156 0.421798 0.474562 -0.311612
H33   H     H_    0.768278 0.349272 0.471245 0.180561
C45   C     C_R   0.905264 0.516359 0.576966 -0.046032
C46   C     C_R   0.949775 0.616004 0.575611 0.127346
C47   C     C_3   0.057090 0.723966 0.647137 -0.061474
C48   C     C_3   0.065130 0.706657 0.544074 -0.587857
H34   H     H_    0.124354 0.724535 0.708792 0.135023
H35   H     H_    0.069220 0.773190 0.523368 0.187809
H36   H     H_    0.126745 0.681904 0.541082 0.190148
C49   C     C_R   0.061262 0.041160 0.167371 -0.027687
C50   C     C_R   0.105207 0.989550 0.112711 0.067305
C51   C     C_R   0.173497 0.051013 0.083943 -0.165177
H37   H     H_    0.216319 0.019617 0.048693 0.125745
C52   C     C_R   0.172948 0.145735 0.083707 -0.191203
H38   H     H_    0.214369 0.182304 0.047141 0.118404
C53   C     C_R   0.104145 0.178996 0.112352 0.084732
C54   C     C_R   0.063225 0.135961 0.169971 0.095499
C55   C     C_3   0.958731 0.106150 0.172325 -0.573414
C56   C     C_3   0.956433 0.002392 0.169843 0.224295
H39   H     H_    0.970496 0.164845 0.250553 0.176049
H40   H     H_    0.889664 0.087335 0.096903 0.232179
H41   H     H_    0.965292 0.999280 0.246031 0.055751
C57   C     C_3   0.143078 0.294870 0.793320 -0.451873
C58   C     C_3   0.184902 0.212227 0.792764 -0.270345
C59   C     C_3   0.108396 0.102398 0.684827 -0.949148
H42   H     H_    0.025905 0.063924 0.674827 0.266722
H43   H     H_    0.102724 0.115422 0.614116 0.261866
H44   H     H_    0.140689 0.045033 0.684611 0.248006
H45   H     H_    0.266295 0.242337 0.800792 0.201249
H46   H     H_    0.192001 0.195340 0.861103 0.183372
H47   H     H_    0.057995 0.253546 0.776131 0.194159
H48   H     H_    0.138566 0.309158 0.723696 0.192034
N17   N     N_R   0.731966 0.321232 0.271972 0.228829
O1    O     O_R   0.683737 0.332328 0.188800 -0.431256
O2    O     O_R   0.691305 0.224505 0.264453 -0.413995
C60   C     C_3   0.043344 0.826574 0.690058 -0.386351
C61   C     C_3   0.008372 0.837527 0.776690 -0.277353
C62   C     C_3   0.980613 0.930068 0.802526 -0.839024
H49   H     H_    0.051984 0.010200 0.832723 0.250674
H50   H     H_    0.910816 0.911460 0.727961 0.251506
H51   H     H_    0.958095 0.937974 0.867533 0.294286
H52   H     H_    0.936280 0.758645 0.748073 0.221491
H53   H     H_    0.077136 0.858786 0.852740 0.192164
H54   H     H_    0.122649 0.901664 0.726488 0.188731
H55   H     H_    0.982140 0.824059 0.620074 0.208866
N18   N     N_R   0.861638 0.904017 0.068885 0.242969
O3    O     O_R   0.855917 0.879752 0.973763 -0.416202
O4    O     O_R   0.772725 0.858845 0.071308 -0.451116
C63   C     C_3   0.922451 0.305925 0.594160 -0.458816
C64   C     C_3   0.997244 0.328971 0.545179 -0.220246
C65   C     C_3   0.984561 0.221832 0.467085 -0.937211
H56   H     H_    0.997065 0.173314 0.508454 0.258628
H57   H     H_    0.902006 0.170928 0.393100 0.287557
H58   H     H_    0.046567 0.241929 0.441380 0.242414
H59   H     H_    0.979056 0.372072 0.499196 0.208384
H60   H     H_    0.083497 0.383523 0.612520 0.182699
H61   H     H_    0.941772 0.257297 0.631855 0.182428
H62   H     H_    0.835559 0.255291 0.529380 0.197964

loop_
_geom_bond_atom_site_label_1
_geom_bond_atom_site_label_2
_geom_bond_distance
_ccdc_geom_bond_type
C4    C12   1.391322 A    
N9    Ni1   1.838677 S    
C30   C32   1.555202 S    
C41   C42   1.394872 A    
N11   Ni3   1.848508 S    
C10   C34   1.462266 S    
N1    N8    1.391530 A    
C43   C44   1.414727 A    
C27   H25   1.114426 S    
C39   C40   1.505783 S    
N17   O1    1.301620 A    
N6    Ni1   1.876312 S    
C35   H27   1.081119 S    
C47   C60   1.551392 S    
C3    H3    1.069738 S    
C17   N13   1.340073 A    
C58   H45   1.101835 S    
C3    C11   1.376682 A    
C32   H24   1.114112 S    
C36   H28   1.081671 S    
C16   H10   1.071899 S    
C65   H56   1.109338 S    
C16   C24   1.379974 A    
C52   C53   1.410285 A    
C64   C65   1.524920 S    
C50   C51   1.409690 A    
C61   H53   1.101370 S    
C6    H5    1.077795 S    
C20   C22   1.376931 A    
C7    H6    1.080322 S    
C5    C63   1.507012 S    
C63   H62   1.106886 S    
C57   C58   1.548286 S    
N10   Ni2   1.876310 S    
C26   H18   1.095743 S    
C60   H55   1.114572 S    
C28   C29   1.557766 S    
N18   O3    1.302028 A    
C43   N17   1.434820 S    
N5    Ni2   1.838677 S    
C53   C54   1.401477 A    
C61   C62   1.527489 S    
H19   C27   1.113243 S    
C44   C45   1.409949 A    
N4    N6    1.372773 A    
C62   H51   1.109236 S    
C51   H37   1.080893 S    
C27   C31   1.515052 S    
C14   C22   1.396822 A    
C41   C46   1.374649 A    
N13   Ni2   1.838569 S    
C7    N7    1.336902 A    
C64   H59   1.107157 S    
C12   C29   1.469226 S    
C59   H44   1.108530 S    
C55   H40   1.111731 S    
C20   N16   1.320188 A    
C25   H15   1.112766 S    
C48   H35   1.112006 S    
C5    N5    1.352055 A    
C51   C52   1.403488 A    
C7    C10   1.378345 A    
C18   N14   1.340582 A    
C21   C42   1.469213 S    
C18   C23   1.396679 A    
C33   C40   1.496519 S    
C35   C36   1.400940 A    
C13   C21   1.376953 A    
C59   H43   1.109810 S    
N8    Ni3   1.866485 S    
C65   H57   1.110933 S    
C19   N15   1.344790 A    
C25   H16   1.112776 S    
N16   Ni3   1.867459 S    
C32   H23   1.113380 S    
C24   C53   1.467072 S    
C56   N18   1.463630 S    
C40   H32   1.112047 S    
N9    N15   1.372774 A    
N12   N13   1.391531 A    
N7    Ni4   1.848509 S    
C41   C48   1.489417 S    
C17   H11   1.062655 S    
N1    Ni1   1.838570 S    
C38   C39   1.500405 S    
C34   C35   1.408593 A    
C22   C30   1.476604 S    
C61   H52   1.111294 S    
C19   H13   1.079114 S    
C17   C24   1.389157 A    
C1    N1    1.329742 A    
N3    N5    1.372773 A    
C14   C57   1.523397 S    
C26   H17   1.113202 S    
C65   H58   1.109374 S    
C49   C56   1.504550 S    
C6    C12   1.380108 A    
C46   C47   1.514404 S    
N12   Ni4   1.866484 S    
C40   H31   1.111983 S    
C31   H26   1.114665 S    
C44   H33   1.079427 S    
C47   H34   1.110480 S    
C15   H9    1.075415 S    
C26   C30   1.559301 S    
N11   N14   1.391406 A    
N10   N16   1.372773 A    
C37   C38   1.403295 A    
C64   H60   1.111558 S    
C4    N4    1.329780 A    
C25   C29   1.547873 S    
N15   Ni4   1.848296 S    
C58   H46   1.102906 S    
N14   Ni1   1.875746 S    
C2    N2    1.334810 A    
C20   H14   1.081007 S    
C36   C37   1.408052 A    
C49   C54   1.378484 A    
C11   C45   1.477573 S    
C48   H36   1.112578 S    
C8    N8    1.339663 A    
C62   H49   1.110596 S    
C5    C11   1.413768 A    
C39   H30   1.112324 S    
N3    Ni3   1.848297 S    
C57   H48   1.106874 S    
C60   C61   1.526062 S    
C2    C10   1.378149 A    
C59   H42   1.110901 S    
C55   C56   1.509716 S    
C27   C29   1.546254 S    
C3    N3    1.329140 A    
C13   H8    1.077717 S    
C25   C26   1.542517 S    
C15   C23   1.384291 A    
C14   N10   1.342592 A    
C30   C31   1.555591 S    
N17   O2    1.301365 A    
C58   C59   1.526366 S    
C6    N6    1.317845 A    
N2    N7    1.391408 A    
C49   C50   1.401205 A    
C63   C64   1.537423 S    
N18   O4    1.298464 A    
C63   H61   1.100356 S    
C52   H38   1.081317 S    
C16   N12   1.330011 A    
H20   C31   1.104244 S    
C28   H22   1.112097 S    
C1    H1    1.079630 S    
C13   N9    1.325944 A    
C47   C48   1.519280 S    
C15   N11   1.327390 A    
C23   C37   1.463354 S    
C54   C55   1.499630 S    
C42   C43   1.420022 A    
C56   H41   1.112611 S    
C60   H54   1.111031 S    
C4    H4    1.080293 S    
C33   C34   1.399322 A    
C2    H2    1.073000 S    
C9    C50   1.464626 S    
C19   C21   1.386203 A    
C1    C9    1.375029 A    
C28   H21   1.111896 S    
C45   C46   1.409114 A    
C18   H12   1.079823 S    
C8    C9    1.384917 A    
C62   H50   1.110953 S    
C39   H29   1.112099 S    
C57   H47   1.109991 S    
N2    Ni2   1.875746 S    
C8    H7    1.079895 S    
C28   C32   1.530599 S    
C33   C38   1.379278 A    
N4    Ni4   1.867459 S    
C55   H39   1.108114 S    
