data_mof_unit_24500.cif
_audit_creation_date              2012-12-11T19:42:03-0500
_audit_creation_method            fapswitch 2.2
_symmetry_space_group_name_H-M    P1
_symmetry_Int_Tables_number       1
_space_group_crystal_system       triclinic
_cell_length_a                    8.203339
_cell_length_b                    15.040391
_cell_length_c                    27.026113
_cell_angle_alpha                 98.239099
_cell_angle_beta                  93.006766
_cell_angle_gamma                 81.127376
_cell_volume                      3259.04253056

loop_
_atom_site_label
_atom_site_type_symbol
_atom_type_description
_atom_site_fract_x
_atom_site_fract_y
_atom_site_fract_z
_atom_type_partial_charge
Ba1   Ba    Ba6+2 0.860050 0.456430 0.522530 1.640346
Ba2   Ba    Ba6+2 0.329780 0.543490 0.477460 1.638135
C1    C     C_3   0.756554 0.118921 0.646586 -0.368360
C2    C     C_R   0.901871 0.590400 0.180020 0.573397
C3    C     C_2   0.750616 0.561726 0.273893 -0.084915
C4    C     C_3   0.158510 0.263403 0.655094 0.337587
C5    C     C_3   0.730343 0.590596 0.329179 -0.047826
C6    C     C_1   0.982193 0.484945 0.342829 0.032664
C7    C     C_2   0.022594 0.480807 0.295116 -0.103433
C8    C     C_2   0.898861 0.518650 0.257069 0.193829
C9    C     C_R   0.016915 0.506070 0.102491 -0.079664
C10   C     C_R   0.054120 0.428483 0.127081 -0.035900
C11   C     C_R   0.130500 0.347570 0.100248 -0.060579
C12   C     C_3   0.703131 0.212092 0.630375 0.361391
C13   C     C_R   0.939974 0.587334 0.129347 -0.024301
C14   C     C_2   0.842657 0.531530 0.360954 -0.289530
C15   C     C_2   0.353813 0.476594 0.640474 -0.278829
C16   C     C_3   0.144885 0.238464 0.707136 -0.310619
C17   C     C_R   0.172805 0.416225 0.972974 0.020084
C18   C     C_R   0.055968 0.578066 0.975517 0.020501
C19   C     C_R   0.133647 0.495382 0.948818 0.049490
C20   C     C_R   0.250288 0.335849 0.944555 -0.101495
C21   C     C_R   0.287643 0.333279 0.894699 -0.060203
C22   C     C_R   0.249945 0.410580 0.870482 -0.024339
C23   C     C_3   0.495349 0.672469 0.630789 0.293893
C24   C     C_R   0.172831 0.491792 0.897354 -0.079679
C25   C     C_R   0.135500 0.569395 0.872790 -0.035747
C26   C     C_R   0.176084 0.564888 0.821967 0.596994
C27   C     C_R   0.288034 0.407598 0.819795 0.573541
C28   C     C_3   0.216973 0.264897 0.413304 0.314718
C29   C     C_2   0.438858 0.436992 0.725772 -0.086738
C30   C     C_3   0.459704 0.411398 0.670273 -0.046821
C31   C     C_1   0.209370 0.517661 0.657626 0.028857
C32   C     C_2   0.167081 0.518703 0.704917 -0.103136
C33   C     C_2   0.290424 0.479637 0.742769 0.193590
C34   C     C_3   0.493100 0.694040 0.687480 -0.356779
C35   C     C_R   0.133754 0.419752 0.024329 0.020446
C36   C     C_R   0.056115 0.502448 0.051026 0.049492
C37   C     C_R   0.017031 0.581609 0.026870 0.020130
C38   C     C_R   0.169492 0.343145 0.050276 -0.098968
C39   C     C_R   0.902458 0.664642 0.105138 -0.060257
C40   C     C_3   0.238312 0.162227 0.398927 -0.386907
C41   C     C_R   0.020060 0.654667 0.949576 -0.099055
C42   C     C_R   0.059021 0.650274 0.899619 -0.060628
C43   C     C_R   0.939765 0.662033 0.055291 -0.101568
C44   C     C_R   0.842699 0.831180 0.465789 -0.004175
C45   C     C_3   0.032141 0.736917 0.344649 0.337512
C46   C     C_R   0.777363 0.924621 0.470137 -0.031013
C47   C     C_R   0.643837 0.112174 0.480725 -0.036498
C48   C     C_R   0.784000 0.077646 0.452042 -0.042714
C49   C     C_R   0.851615 0.986192 0.447853 -0.100498
C50   C     C_R   0.578838 0.205891 0.487884 0.044844
C51   C     C_R   0.437332 0.236024 0.515778 -0.306285
C52   C     C_3   0.978501 0.735319 0.586238 0.313067
C53   C     C_R   0.617113 0.803684 0.513557 0.023294
C54   C     C_R   0.552544 0.896456 0.519650 -0.030813
C55   C     C_R   0.631482 0.957179 0.497286 0.013135
C56   C     C_3   0.045599 0.761046 0.292416 -0.311142
C57   C     C_R   0.410712 0.930023 0.547373 -0.049857
C58   C     C_R   0.343893 0.020776 0.551622 -0.100092
C59   C     C_R   0.419479 0.082465 0.529938 -0.033877
C60   C     C_R   0.565766 0.050831 0.502978 0.006911
C61   C     C_R   0.352560 0.174944 0.534461 -0.006877
C62   C     C_R   0.756782 0.771707 0.485324 -0.299916
C63   C     C_3   0.958333 0.837951 0.600790 -0.386641
C64   C     C_3   0.693465 0.343903 0.372055 0.299219
C65   C     C_3   0.695885 0.322058 0.315362 -0.361033
C66   C     C_3   0.487551 0.788094 0.369413 0.364127
C67   C     C_3   0.433550 0.881157 0.353116 -0.368048
C68   C     C_R   0.013501 0.433079 0.177926 0.597201
H1    H     H_    0.747516 0.210321 0.592036 0.077020
H2    H     H_    0.814494 0.361768 0.386222 0.011323
H3    H     H_    0.595465 0.402497 0.381937 0.079403
H4    H     H_    0.892718 0.100634 0.645580 0.147329
H5    H     H_    0.798619 0.266635 0.304234 0.134547
H6    H     H_    0.713197 0.382921 0.298645 0.071304
H7    H     H_    0.577031 0.300445 0.300687 0.133647
H8    H     H_    0.565906 0.224986 0.629633 -0.065191
H9    H     H_    0.699754 0.067020 0.620793 0.070306
H10   H     H_    0.371718 0.657538 0.616816 0.017914
H11   H     H_    0.589359 0.611750 0.620959 0.069194
H12   H     H_    0.325831 0.141235 0.367947 0.127288
H13   H     H_    0.396787 0.752996 0.698623 0.134333
H14   H     H_    0.465592 0.634594 0.703826 0.074246
H15   H     H_    0.615380 0.710299 0.702410 0.133282
H16   H     H_    0.715947 0.118820 0.685131 0.123005
H17   H     H_    0.131918 0.301026 0.734624 0.119910
H18   H     H_    0.118532 0.673379 0.348239 0.094531
H19   H     H_    0.903707 0.725917 0.349287 -0.050906
H20   H     H_    0.156456 0.793918 0.289986 0.147738
H21   H     H_    0.057475 0.698198 0.265146 0.120536
H22   H     H_    0.934439 0.808232 0.282663 0.120677
H23   H     H_    0.287282 0.127617 0.431285 0.061704
H24   H     H_    0.624720 0.775068 0.369577 -0.067947
H25   H     H_    0.445231 0.790149 0.408014 0.078579
H26   H     H_    0.491337 0.933105 0.378578 0.068723
H27   H     H_    0.297501 0.899623 0.354554 0.148772
H28   H     H_    0.071086 0.326610 0.651612 0.093340
H29   H     H_    0.472704 0.880964 0.314382 0.122078
H30   H     H_    0.146321 0.451436 0.283619 0.129432
H31   H     H_    0.160958 0.286571 0.117909 0.122141
H32   H     H_    0.534901 0.410398 0.751197 0.119154
H33   H     H_    0.346997 0.269584 0.875043 0.122404
H34   H     H_    0.117376 0.140573 0.386713 0.120861
H35   H     H_    0.284543 0.272853 0.959536 0.068959
H36   H     H_    0.227918 0.277813 0.033184 0.068794
H37   H     H_    0.654532 0.587383 0.248205 0.118689
H38   H     H_    0.843270 0.728380 0.124793 0.122456
H39   H     H_    0.961478 0.719975 0.966648 0.068782
H40   H     H_    0.286604 0.275362 0.650763 -0.053087
H41   H     H_    0.028434 0.711275 0.881965 0.122198
H42   H     H_    0.043157 0.547711 0.716375 0.130159
H43   H     H_    0.905692 0.725059 0.040332 0.068946
H44   H     H_    0.822755 0.542993 0.400880 0.083780
H45   H     H_    0.857752 0.714794 0.574508 0.000145
H46   H     H_    0.387651 0.478975 0.602452 0.077234
H47   H     H_    0.844869 0.120346 0.432566 0.103746
H48   H     H_    0.961346 0.964456 0.426288 0.108069
H49   H     H_    0.233001 0.041378 0.572657 0.112196
H50   H     H_    0.347145 0.886959 0.565819 0.100278
H51   H     H_    0.386258 0.307350 0.520047 0.075134
H52   H     H_    0.034541 0.205017 0.709248 0.147199
H53   H     H_    0.805573 0.700067 0.481477 0.067600
H54   H     H_    0.256455 0.191528 0.716845 0.121563
H55   H     H_    0.338653 0.285805 0.423580 0.002728
H56   H     H_    0.064020 0.716233 0.554794 0.075035
H57   H     H_    0.134929 0.283523 0.445689 0.069584
H58   H     H_    0.865790 0.859487 0.630362 0.130125
H59   H     H_    0.916483 0.872970 0.568016 0.062434
H60   H     H_    0.078320 0.858661 0.615001 0.120522
N1    N     N_R   0.938788 0.513753 0.204270 -0.421902
N2    N     N_R   0.250728 0.484250 0.795566 -0.421847
O1    O     O_2   0.906480 0.548660 0.619050 -0.459200
O2    O     O_2   0.183933 0.824759 0.471991 -0.483869
O3    O     O_3   0.073574 0.808185 0.380020 -0.610811
O4    O     O_3   0.138490 0.548590 0.558870 -0.495677
O5    O     O_3   0.572560 0.389960 0.472890 -0.488178
O6    O     O_2   0.345660 0.723580 0.528500 -0.466413
O7    O     O_3   0.533872 0.747587 0.610912 -0.644582
O8    O     O_2   0.403331 0.546025 0.323753 -0.498858
O9    O     O_3   0.417959 0.721490 0.336497 -0.594249
O10   O     O_2   0.042516 0.364715 0.198377 -0.597204
O11   O     O_2   0.353828 0.335960 0.797188 -0.621088
O12   O     O_3   0.662939 0.267249 0.391827 -0.639052
O13   O     O_2   0.836406 0.662137 0.202613 -0.621117
O14   O     O_2   0.147155 0.633337 0.801586 -0.597533
O15   O     O_3   0.686300 0.382310 0.585700 -0.480357
O16   O     O_2   0.787627 0.454017 0.676045 -0.497132
O17   O     O_3   0.039342 0.694120 0.627929 -0.625302
O18   O     O_3   0.771031 0.278621 0.663797 -0.596087
O19   O     O_2   0.844040 0.276390 0.471470 -0.469771
O20   O     O_3   0.101510 0.335500 0.560330 -0.491310
O21   O     O_2   0.012886 0.175028 0.526676 -0.485059
O22   O     O_3   0.118821 0.192147 0.619392 -0.611495
O23   O     O_2   0.283210 0.451310 0.380920 -0.462811
O24   O     O_3   0.051220 0.451340 0.441120 -0.497707
O25   O     O_3   0.503410 0.617620 0.414290 -0.475287
O26   O     O_3   0.149542 0.305793 0.372084 -0.624021
O27   O     O_3   0.617150 0.609960 0.527100 -0.477179
O28   O     O_3   0.088210 0.664420 0.439670 -0.490087
P1    P     P_3+3 0.071950 0.575820 0.612140 0.991067
P2    P     P_3+3 0.664370 0.290050 0.457240 0.973868
P3    P     P_3+3 0.146620 0.218708 0.559770 0.934288
P4    P     P_3+3 0.117760 0.424110 0.387850 0.990445
P5    P     P_3+3 0.046723 0.782409 0.439852 0.936312
P6    P     P_3+3 0.677321 0.385240 0.650114 0.948075
P7    P     P_3+3 0.531545 0.722687 0.545617 0.939242
P8    P     P_3+3 0.513040 0.614953 0.349901 0.945303

loop_
_geom_bond_atom_site_label_1
_geom_bond_atom_site_label_2
_ccdc_geom_bond_type
O8    P8    D    
C53   C54   A    
Ba2   O23   S    
C44   P5    S    
C30   P6    S    
C9    C36   A    
C40   H23   S    
O16   P6    D    
C12   H1    S    
C65   H7    S    
C53   P7    S    
C5    P8    S    
C67   H26   S    
C1    H9    S    
C63   H60   S    
C46   C55   A    
C52   C63   S    
C61   P3    S    
C52   H56   S    
C24   C25   A    
C57   H50   S    
O21   P3    D    
C4    H28   S    
C23   O7    S    
C22   C24   A    
C32   C33   S    
C35   C38   A    
C3    H37   S    
C36   C37   A    
C27   N2    Am   
C64   O12   S    
C34   H13   S    
C23   H10   S    
C49   H48   S    
C32   H42   S    
C54   C55   A    
Ba1   O20   S    
Ba1   Ba2   S    
C39   H38   S    
C59   C61   A    
C1    H4    S    
C22   C27   A    
C11   C38   A    
C17   C35   A    
C8    N1    S    
C9    C13   A    
C25   C42   A    
C46   C49   A    
C64   H2    S    
Ba2   O27   S    
C40   H12   S    
C14   H44   S    
C21   C22   A    
C67   H27   S    
C2    N1    Am   
Ba1   O4    S    
C56   H21   S    
O26   P4    S    
C37   C43   A    
C45   O3    S    
C47   C50   A    
C64   C65   S    
C28   H55   S    
Ba1   P1    S    
C57   C58   A    
C6    C14   D    
C52   H45   S    
C1    H16   S    
C23   H11   S    
C45   H19   S    
C15   C31   D    
Ba1   O1    S    
O25   P8    S    
C19   C24   A    
C31   C32   D    
C52   O17   S    
O4    P1    S    
C4    C16   S    
C44   C46   A    
C68   O10   D    
C66   H25   S    
Ba2   O6    S    
C63   H58   S    
O22   P3    S    
C55   C60   A    
C17   C20   A    
C13   C39   A    
C6    P4    S    
Ba2   P4    S    
C3    C5    S    
C18   C37   A    
C6    C7    D    
C48   H47   S    
C64   H3    S    
Ba2   O4    S    
C40   H34   S    
C58   C59   A    
C26   N2    Am   
C4    H40   S    
Ba1   O24   S    
C31   P1    S    
C41   C42   A    
C29   H32   S    
C35   C36   A    
O15   P6    S    
C29   C30   S    
Ba1   O27   S    
O19   P2    D    
C53   C62   A    
C12   O18   S    
C48   C49   A    
O3    P5    S    
O2    P5    D    
C66   O9    S    
O28   P5    S    
C18   C19   A    
O7    P7    S    
C56   H20   S    
C4    O22   S    
C1    C12   S    
C16   H52   S    
C67   H29   S    
C21   H33   S    
C5    C14   S    
Ba1   P2    S    
C7    H30   S    
O6    P7    D    
O23   P4    D    
C29   C33   D    
Ba1   O15   S    
O17   P1    S    
C11   H31   S    
C20   H35   S    
C18   C41   A    
Ba1   O5    S    
C50   C51   A    
C38   H36   S    
C7    C8    S    
C28   O26   S    
C10   C68   A    
C28   H57   S    
O9    P8    S    
Ba2   O24   S    
C47   C60   A    
O12   P2    S    
Ba2   O5    S    
C66   C67   S    
C28   C40   S    
O1    P1    D    
C63   H59   S    
C9    C10   A    
C34   H15   S    
C62   H53   S    
C26   O14   D    
C16   H17   S    
C54   C57   A    
C45   H18   S    
C2    C13   A    
C3    C8    D    
C51   H51   S    
C45   C56   S    
C51   C61   A    
O5    P2    S    
C34   H14   S    
Ba2   O25   S    
C2    O13   D    
C68   N1    Am   
O27   P7    S    
Ba1   O19   S    
C12   H8    S    
C59   C60   A    
C66   H24   S    
O20   P3    S    
C23   C34   S    
C42   H41   S    
C43   H43   S    
C65   H5    S    
C10   C11   A    
O24   P4    S    
C27   O11   D    
Ba2   O28   S    
C47   C48   A    
C44   C62   A    
C25   C26   A    
C15   C30   S    
C39   C43   A    
C20   C21   A    
C58   H49   S    
C65   H6    S    
C41   H39   S    
C16   H54   S    
C56   H22   S    
C33   N2    S    
C15   H46   S    
C50   P2    S    
C17   C19   A    
O18   P6    S    
