data_mof_unit_29009.cif
_audit_creation_date              2013-03-05T15:44:57-0500
_audit_creation_method            fapswitch 2.2
_symmetry_space_group_name_H-M    P1
_symmetry_Int_Tables_number       1
_space_group_crystal_system       triclinic
_cell_length_a                    10.986389
_cell_length_b                    11.01284
_cell_length_c                    18.718568
_cell_angle_alpha                 90.006445
_cell_angle_beta                  90.295672
_cell_angle_gamma                 120.172614
_cell_volume                      1957.90499091

loop_
_atom_site_label
_atom_site_type_symbol
_atom_site_description
_atom_site_fract_x
_atom_site_fract_y
_atom_site_fract_z
_atom_type_partial_charge
O1    O     O_R   0.766500 0.250040 0.579790 -0.478645
O2    O     O_R   0.798570 0.516780 0.574780 -0.521862
C1    C     C_R   0.864011 0.639171 0.602895 0.566350
O3    O     O_R   0.984000 0.732950 0.581090 -0.447699
O4    O     O_R   0.218600 0.700890 0.574760 -0.472873
C2    C     C_R   0.267841 0.631384 0.604169 0.589385
O5    O     O_R   0.249390 0.515350 0.579940 -0.525489
O6    O     O_R   0.982790 0.280900 0.573700 -0.516100
C3    C     C_R   0.865418 0.229623 0.604211 0.607660
O7    O     O_R   0.766600 0.251130 0.419260 -0.426054
O8    O     O_R   0.798660 0.517790 0.425980 -0.472960
C4    C     C_R   0.861686 0.641358 0.399269 0.573976
O9    O     O_R   0.984100 0.734040 0.420570 -0.414498
O10   O     O_R   0.218690 0.701900 0.425960 -0.416102
C5    C     C_R   0.213424 0.599579 0.388530 0.565373
O11   O     O_R   0.249490 0.516440 0.419420 -0.417218
O12   O     O_R   0.982880 0.281910 0.424890 -0.494630
C6    C     C_R   0.860602 0.226925 0.396135 0.596077
Cr1   Cr    Cr6+3 0.791660 0.390250 0.499930 1.151115
Cr2   Cr    Cr6+3 0.098520 0.708290 0.500540 1.199615
Cr3   Cr    Cr6+3 0.109770 0.401430 0.499480 1.122279
O13   O     O_3   0.999980 0.499990 0.499980 -0.353092
C7    C     C_R   0.219810 0.687758 0.723198 -0.129465
H1    H     H_    0.128588 0.689007 0.701797 0.158971
C8    C     C_R   0.242970 0.698798 0.796868 0.201819
C9    C     C_R   0.357327 0.689304 0.822921 0.023545
C10   C     C_R   0.448009 0.674442 0.776357 -0.195705
H2    H     H_    0.536667 0.671034 0.797145 0.109988
C11   C     C_R   0.423339 0.660307 0.703992 -0.128337
H3    H     H_    0.491527 0.642712 0.669170 0.168300
C12   C     C_R   0.308542 0.665694 0.677512 -0.003718
C13   C     C_R   0.844218 0.182142 0.827044 0.038109
C14   C     C_R   0.101516 0.290189 0.838530 0.258273
C15   C     C_R   0.230612 0.330990 0.806805 -0.025584
C16   C     C_R   0.238752 0.315374 0.733954 -0.113770
C17   C     C_R   0.118765 0.263332 0.691370 -0.039107
C18   C     C_R   0.984654 0.223459 0.720601 -0.025330
C19   C     C_R   0.976382 0.229316 0.796299 -0.011790
H4    H     H_    0.325958 0.375826 0.838717 0.187550
H5    H     H_    0.339325 0.344255 0.710101 0.143626
C20   C     C_R   0.727659 0.119742 0.711659 -0.068560
C21   C     C_R   0.728679 0.160262 0.782513 -0.073313
C22   C     C_R   0.596927 0.042486 0.674701 0.176251
C23   C     C_R   0.475952 0.033688 0.703984 -0.117985
C24   C     C_R   0.483420 0.100945 0.768101 0.214966
C25   C     C_R   0.610313 0.168849 0.806659 0.271230
C26   C     C_R   0.858321 0.174538 0.677600 0.054202
H6    H     H_    0.134277 0.246430 0.636403 0.213356
H7    H     H_    0.376094 0.976950 0.676049 0.193550
C27   C     C_R   0.720677 0.551582 0.712167 -0.185166
H8    H     H_    0.668165 0.445190 0.691462 0.152886
C28   C     C_R   0.702225 0.572960 0.783382 -0.129749
H9    H     H_    0.627766 0.485294 0.814556 0.206282
C29   C     C_R   0.778978 0.707279 0.813698 -0.004073
C30   C     C_R   0.857452 0.823053 0.769586 -0.057896
H10   H     H_    0.909356 0.928511 0.791495 0.158472
C31   C     C_R   0.873717 0.803019 0.697751 0.269109
C32   C     C_R   0.813347 0.665688 0.669923 0.037399
C33   C     C_R   0.265829 0.528483 0.272124 0.153840
C34   C     C_R   0.278702 0.541048 0.199725 -0.106598
H11   H     H_    0.287893 0.460012 0.171544 0.200124
C35   C     C_R   0.307865 0.666404 0.166461 -0.047833
C36   C     C_R   0.286195 0.763281 0.203131 -0.077340
H12   H     H_    0.300903 0.856764 0.176454 0.216448
C37   C     C_R   0.249174 0.741032 0.275077 0.207877
C38   C     C_R   0.246425 0.626131 0.312028 0.015031
C39   C     C_R   0.718995 0.143141 0.285859 0.221277
C40   C     C_R   0.728079 0.167434 0.212897 0.201824
C41   C     C_R   0.839455 0.167512 0.174344 -0.031523
C42   C     C_R   0.955873 0.181285 0.211335 -0.194169
H13   H     H_    0.042760 0.182644 0.183511 0.183738
C43   C     C_R   0.958780 0.191280 0.285247 -0.141031
H14   H     H_    0.050408 0.208227 0.313725 0.265586
C44   C     C_R   0.841420 0.172676 0.323261 -0.002744
C45   C     C_R   0.879195 0.807426 0.304655 0.236753
C46   C     C_R   0.870161 0.825886 0.231793 -0.107820
H15   H     H_    0.936304 0.928076 0.208502 0.167964
C47   C     C_R   0.777755 0.713029 0.188793 -0.070300
C48   C     C_R   0.683571 0.584533 0.220860 -0.091122
H16   H     H_    0.602169 0.500480 0.189125 0.220030
C49   C     C_R   0.695157 0.562600 0.293743 0.148348
C50   C     C_R   0.804905 0.671668 0.334242 0.019063
O14   O     O_R   0.895110 0.806860 0.920430 -0.404426
O15   O     O_R   0.872260 0.046970 0.925000 -0.496965
C51   C     C_R   0.807854 0.108084 0.896567 0.597032
O16   O     O_R   0.691430 0.085060 0.918550 -0.454123
O17   O     O_R   0.451490 0.822460 0.925250 -0.476466
C52   C     C_R   0.394610 0.700571 0.897155 0.607789
O18   O     O_R   0.413330 0.603360 0.920440 -0.502983
O19   O     O_R   0.676110 0.626250 0.926750 -0.463257
C53   C     C_R   0.773009 0.730709 0.890075 0.548976
O20   O     O_R   0.895350 0.809870 0.080950 -0.467518
O21   O     O_R   0.872490 0.049760 0.073800 -0.516763
C54   C     C_R   0.808672 0.110026 0.101842 0.574765
O22   O     O_R   0.691680 0.088070 0.079070 -0.435499
O23   O     O_R   0.451720 0.825250 0.074050 -0.482030
C55   C     C_R   0.387929 0.700468 0.100638 0.566867
O24   O     O_R   0.413580 0.606370 0.080960 -0.513160
O25   O     O_R   0.676340 0.629040 0.075550 -0.457089
C56   C     C_R   0.773760 0.734622 0.111673 0.557874
Cr4   Cr    Cr6+3 0.874790 0.925890 0.000070 1.126190
Cr5   Cr    Cr6+3 0.574120 0.948670 0.999300 1.163625
Cr6   Cr    Cr6+3 0.551420 0.625320 0.000920 1.120156
O26   O     O_3   0.666780 0.833290 0.000090 -0.363423
N1    N     N_R   0.585567 0.970163 0.608761 0.084345
O27   O     O_R   0.492995 0.954987 0.560643 -0.279149
O28   O     O_R   0.664389 0.915045 0.597448 -0.307194
Cl1   Cl    Cl    0.329555 0.091264 0.801134 -0.510008
Cl2   Cl    Cl    0.974069 0.951759 0.644858 -0.541625
Cl3   Cl    Cl    0.300739 0.400930 0.307208 -0.481441
N2    N     N_R   0.149109 0.715681 0.843500 0.107231
O29   O     O_R   0.124126 0.664160 0.907812 -0.258659
O30   O     O_R   0.082087 0.777020 0.820248 -0.282891
Cl4   Cl    Cl    0.217446 0.866668 0.314708 -0.386010
Cl5   Cl    Cl    0.555216 0.073937 0.329352 -0.349658
N3    N     N_R   0.629569 0.198797 0.178605 0.134269
O31   O     O_R   0.494750 0.111886 0.182064 -0.245063
O32   O     O_R   0.675995 0.309289 0.138180 -0.295928
Cl6   Cl    Cl    0.984785 0.956399 0.357797 -0.472828
N4    N     N_R   0.594478 0.431218 0.325473 0.127205
O33   O     O_R   0.545947 0.429374 0.389029 -0.227051
O34   O     O_R   0.527548 0.319819 0.285682 -0.184974
Cl7   Cl    Cl    0.107207 0.337527 0.929188 -0.511541
Cl8   Cl    Cl    0.623429 0.277075 0.880005 -0.478967

loop_
_geom_bond_atom_site_label_1
_geom_bond_atom_site_label_2
_geom_bond_distance
_ccdc_geom_bond_type
C23   H7    1.082759 S    
O25   Cr6   1.939178 S    
C30   H10   1.083490 S    
C36   C37   1.394520 A    
O21   C54   1.295793 A    
O23   Cr5   1.948357 S    
C10   C11   1.373413 A    
C20   C21   1.397498 A    
N2    O29   1.301341 A    
O17   C52   1.273655 A    
C55   O24   1.258383 A    
C31   C32   1.409439 A    
O4    Cr2   1.940713 S    
C51   O16   1.244628 A    
C28   H9    1.073757 S    
C4    O9    1.274372 A    
N1    O28   1.301329 A    
C49   N4    1.438035 S    
O8    Cr1   1.946233 S    
C9    C10   1.397094 A    
C18   C19   1.423862 A    
C17   C18   1.421659 A    
C46   C47   1.395083 A    
C33   C38   1.411293 A    
C21   C25   1.426181 A    
O4    C2    1.262902 A    
C5    O11   1.300803 A    
O17   Cr5   1.940682 S    
C33   Cl3   1.758070 S    
N3    O31   1.300036 A    
C34   C35   1.397799 A    
C15   C16   1.383413 A    
C37   Cl4   1.753127 S    
C39   Cl5   1.765794 S    
C31   Cl2   1.753628 S    
C16   C17   1.389668 A    
C28   C29   1.400800 A    
C40   C41   1.423412 A    
C27   C28   1.387161 A    
C7    H1    1.083871 S    
C17   H6    1.075164 S    
C42   H13   1.083268 S    
C13   C19   1.399942 A    
C18   C26   1.449570 A    
C11   H3    1.083769 S    
C24   Cl1   1.755247 S    
C2    C12   1.432194 S    
C33   C34   1.363110 A    
C6    C44   1.460257 S    
Cr3   O13   1.987289 S    
O18   Cr6   2.058419 S    
O15   Cr4   1.946968 S    
C20   C22   1.423586 A    
C25   Cl8   1.775178 S    
C41   C42   1.390731 A    
N4    O34   1.299189 A    
C49   C50   1.416262 A    
O1    Cr1   2.066651 S    
C39   C40   1.386163 A    
C27   C32   1.401221 A    
O10   Cr2   1.951734 S    
Cr1   O13   1.979455 S    
O1    C3    1.296564 A    
O15   C51   1.308370 A    
C43   C44   1.398111 A    
C41   C54   1.461794 S    
O21   Cr4   1.949588 S    
C48   C49   1.401753 A    
C47   C48   1.402936 A    
O6    C3    1.258398 A    
C27   H8    1.083497 S    
C8    C9    1.397487 A    
O5    Cr3   2.058271 S    
C5    C38   1.471895 S    
O11   Cr3   2.067887 S    
O12   Cr3   1.939163 S    
C15   H4    1.082333 S    
C34   H11   1.084404 S    
C7    C12   1.409734 A    
C45   C46   1.389340 A    
C35   C36   1.386703 A    
C35   C55   1.453326 S    
O25   C56   1.302353 A    
C22   N1    1.439352 S    
O7    Cr1   2.067487 S    
O23   C55   1.289548 A    
O12   C6    1.279009 A    
C20   C26   1.403579 A    
C4    C50   1.477750 S    
N2    O30   1.297954 A    
C39   C44   1.398382 A    
C46   H15   1.079804 S    
Cr5   O26   1.987774 S    
O20   Cr4   2.064619 S    
C40   N3    1.439192 S    
Cr2   O13   1.984422 S    
C3    C26   1.488285 S    
Cr4   O26   1.979855 S    
C30   C31   1.389507 A    
C22   C23   1.397985 A    
C47   C56   1.467055 S    
C48   H16   1.082484 S    
C1    O3    1.268103 A    
O16   Cr5   2.067980 S    
Cr6   O26   1.983558 S    
N4    O33   1.302185 A    
O20   C56   1.302768 A    
C29   C30   1.397628 A    
O14   Cr4   2.070669 S    
O9    Cr2   2.059229 S    
O2    Cr1   1.950037 S    
C23   C24   1.390492 A    
N3    O32   1.301444 A    
C43   H14   1.066734 S    
O6    Cr3   1.948650 S    
O8    C4    1.279786 A    
O22   Cr5   2.059364 S    
C45   C50   1.409384 A    
C2    O5    1.272106 A    
O14   C53   1.298776 A    
N1    O27   1.301237 A    
C14   C19   1.423572 A    
C16   H5    1.083175 S    
C29   C53   1.460390 S    
C11   C12   1.381533 A    
C45   Cl6   1.761089 S    
O19   C53   1.305620 A    
O7    C6    1.267400 A    
C13   C51   1.482035 S    
C14   C15   1.390778 A    
O2    C1    1.277674 A    
C7    C8    1.395144 A    
C54   O22   1.254644 A    
O19   Cr6   1.951863 S    
C8    N2    1.435915 S    
C36   H12   1.081234 S    
O3    Cr2   2.071975 S    
C1    C32   1.462816 S    
C24   C25   1.401848 A    
C52   O18   1.264483 A    
C9    C52   1.434237 S    
C37   C38   1.429175 A    
C10   H2    1.065095 S    
C14   Cl7   1.766750 S    
C13   C21   1.430286 A    
O10   C5    1.303027 A    
C42   C43   1.386833 A    
O24   Cr6   2.070595 S    
