data_mof_unit_8488.cif
_audit_creation_date              2012-12-11T14:29:31-0500
_audit_creation_method            fapswitch 2.2
_symmetry_space_group_name_H-M    P1
_symmetry_Int_Tables_number       1
_space_group_crystal_system       triclinic
_cell_length_a                    6.936325
_cell_length_b                    14.693256
_cell_length_c                    16.356484
_cell_angle_alpha                 90.488775
_cell_angle_beta                  89.804753
_cell_angle_gamma                 90.441692
_cell_volume                      1666.88753565

loop_
_atom_site_label
_atom_site_type_symbol
_atom_type_description
_atom_site_fract_x
_atom_site_fract_y
_atom_site_fract_z
_atom_type_partial_charge
O1    O     O_R   0.494400 0.416610 0.413880 -0.543028
O2    O     O_R   0.823920 0.406790 0.585520 -0.546250
O3    O     O_R   0.994250 0.583390 0.586120 -0.537030
C1    C     C_R   0.653549 0.383970 0.612098 0.752703
O4    O     O_R   0.824110 0.405730 0.414490 -0.541159
O5    O     O_R   0.994440 0.582310 0.413870 -0.538339
C2    C     C_R   0.654726 0.383753 0.386284 0.743746
O6    O     O_R   0.494210 0.417690 0.586130 -0.540987
O7    O     O_3   0.660810 0.557940 0.500000 -0.372117
V1    V     V_3+5 0.935650 0.489250 0.500000 1.412904
O8    O     O_R   0.324160 0.593210 0.414480 -0.551772
C3    C     C_R   0.156590 0.612106 0.384216 0.750891
O9    O     O_R   0.323970 0.594270 0.585510 -0.541541
C4    C     C_R   0.155647 0.618348 0.612594 0.731308
V2    V     V_3+5 0.435660 0.510750 0.500000 1.403007
O10   O     O_3   0.160630 0.442060 0.500000 -0.372704
H1    H     H_    0.323890 0.941266 0.524476 0.117691
C5    C     C_R   0.099635 0.559374 0.785894 0.125048
C6    C     C_R   0.015201 0.534210 0.861800 0.205088
C7    C     C_R   0.961683 0.601277 0.917747 -0.122349
C8    C     C_R   0.998217 0.691994 0.901959 -0.177738
C9    C     C_R   0.072547 0.720413 0.826028 0.028360
C10   C     C_R   0.107065 0.654350 0.763149 0.022370
C11   C     C_R   0.120376 0.813157 0.814162 -0.146121
C12   C     C_R   0.186675 0.842440 0.736879 0.025715
C13   C     C_R   0.186193 0.781528 0.668075 0.052736
C14   C     C_R   0.149626 0.685695 0.681693 -0.159439
C15   C     C_R   0.247618 0.933951 0.726757 -0.140224
C16   C     C_R   0.304076 0.966664 0.651505 -0.120482
C17   C     C_R   0.287842 0.911865 0.583182 -0.104846
C18   C     C_R   0.223213 0.821399 0.589116 0.150879
H2    H     H_    0.900498 0.583101 0.976490 0.154193
H3    H     H_    0.966541 0.739683 0.950611 0.172715
H4    H     H_    0.252079 0.982480 0.776645 0.137443
H5    H     H_    0.353385 0.036420 0.645590 0.151999
C19   C     C_2   0.987181 0.702078 0.279407 -0.205668
C20   C     C_2   0.153190 0.675890 0.314457 -0.303188
H6    H     H_    0.852603 0.675734 0.304333 0.134835
H7    H     H_    0.291213 0.697676 0.289991 0.128017
C21   C     C_2   0.971486 0.759133 0.204328 0.016412
C22   C     C_2   0.118784 0.813203 0.177019 -0.319517
H8    H     H_    0.255421 0.812841 0.208886 0.115439
C23   C     C_2   0.761330 0.195041 0.766291 -0.010775
C24   C     C_2   0.624301 0.190513 0.826964 -0.215827
C25   C     C_2   0.783850 0.275226 0.711800 -0.062075
C26   C     C_2   0.633637 0.310849 0.672377 -0.282644
H9    H     H_    0.928896 0.299059 0.697899 0.149386
H10   H     H_    0.489660 0.283684 0.683172 0.147529
C27   C     C_2   0.779015 0.209382 0.213910 -0.129035
C28   C     C_2   0.614158 0.181825 0.177338 -0.307821
H11   H     H_    0.914972 0.181101 0.193068 0.135009
H12   H     H_    0.476584 0.209428 0.196154 0.128074
C29   C     C_2   0.791192 0.277720 0.281890 -0.130783
C30   C     C_2   0.637871 0.315690 0.319380 -0.304382
H13   H     H_    0.935210 0.296750 0.301908 0.135626
H14   H     H_    0.492682 0.297393 0.301159 0.129277
O11   O     O_R   0.770210 0.079270 0.910680 -0.542475
O12   O     O_R   0.440150 0.091160 0.082270 -0.548684
O13   O     O_R   0.269970 0.914530 0.082860 -0.542875
C31   C     C_R   0.608949 0.113288 0.110446 0.737600
O14   O     O_R   0.440480 0.090100 0.911240 -0.548378
O15   O     O_R   0.270310 0.913460 0.910610 -0.537657
C32   C     C_R   0.610296 0.112209 0.883524 0.639991
O16   O     O_R   0.769870 0.080340 0.082930 -0.541414
O17   O     O_3   0.603660 0.938980 0.996790 -0.350535
V3    V     V_3+5 0.328750 0.007610 0.996740 1.428827
O18   O     O_R   0.940600 0.902510 0.911180 -0.539784
C33   C     C_R   0.109427 0.879821 0.883547 0.684559
O19   O     O_R   0.940270 0.903570 0.082200 -0.519686
C34   C     C_R   0.108231 0.879824 0.108955 0.762983
V4    V     V_3+5 0.828770 0.986010 0.996670 1.474723
O20   O     O_3   0.103730 0.054750 0.996710 -0.380591
C35   C     C_2   0.782169 0.752031 0.162536 0.405763
H15   H     H_    0.651003 0.747118 0.198685 0.008314
O21   O     O_2   0.771362 0.744601 0.088334 -0.535583
C36   C     C_2   0.890962 0.117275 0.747410 0.340556
H16   H     H_    0.860011 0.049400 0.769593 0.057889
O22   O     O_2   0.033346 0.128134 0.704408 -0.554673
C37   C     C_2   0.495355 0.268035 0.848158 0.350301
H17   H     H_    0.353670 0.254704 0.873958 0.064091
O23   O     O_2   0.549230 0.346948 0.841894 -0.540740
C38   C     C_3   0.203393 0.486172 0.737136 -0.715278
H18   H     H_    0.346406 0.511936 0.717192 0.217423
H19   H     H_    0.237065 0.425186 0.773343 0.221479
H20   H     H_    0.114805 0.462330 0.684933 0.207214
C39   C     C_3   0.984698 0.436141 0.885875 -0.732423
H21   H     H_    0.885814 0.429830 0.939146 0.217669
H22   H     H_    0.919546 0.397367 0.834422 0.241687
H23   H     H_    0.124300 0.405242 0.902882 0.204869
C40   C     C_3   0.190411 0.774370 0.508808 -0.789105
H24   H     H_    0.185193 0.822776 0.457008 0.193701
H25   H     H_    0.314017 0.729448 0.496925 0.224107
H26   H     H_    0.049115 0.738677 0.508542 0.205579

loop_
_geom_bond_atom_site_label_1
_geom_bond_atom_site_label_2
_ccdc_geom_bond_type
C22   H8    S    
C6    C7    A    
C1    O6    A    
C6    C39   S    
C1    C26   S    
C29   C30   D    
C12   C15   A    
C13   C14   A    
C19   C20   D    
C36   O22   D    
O13   V3    S    
O5    C3    A    
C17   C18   A    
C39   H22   S    
C8    H3    S    
O12   C31   A    
V2    O10   S    
C21   C35   S    
O14   C32   A    
C5    C6    A    
C35   H15   S    
O16   V4    S    
C3    C20   S    
O19   V4    S    
O8    V2    S    
O14   V3    S    
O12   V3    S    
V3    O20   S    
C27   H11   S    
C28   H12   S    
O1    V2    S    
C10   C14   A    
C4    C14   S    
O7    V1    S    
C25   H9    S    
C15   H4    S    
C13   C18   A    
O9    C4    A    
H1    C17   S    
C35   O21   D    
O11   C32   A    
C26   H10   S    
C29   H13   S    
C24   C32   S    
C30   H14   S    
O15   V3    S    
C5    C10   A    
C19   C21   S    
C11   C12   A    
O4    C2    A    
C39   H21   S    
C12   C13   A    
O17   V4    S    
O11   V4    S    
O18   C33   A    
O2    C1    A    
C23   C24   D    
C16   C17   A    
C40   H25   S    
C18   C40   S    
C36   H16   S    
C23   C25   S    
O3    C4    A    
C21   C22   D    
C38   H18   S    
O6    V2    S    
C38   H19   S    
O9    V2    S    
C9    C11   A    
O2    V1    S    
C40   H26   S    
C37   O23   D    
C7    H2    S    
C23   C36   S    
C15   C16   A    
O1    C2    A    
C24   C37   S    
C39   H23   S    
O5    V1    S    
O8    C3    A    
C38   H20   S    
C16   H5    S    
O15   C33   A    
C31   O16   A    
C28   C31   S    
C19   H6    S    
O7    V2    S    
V4    O20   S    
C20   H7    S    
O3    V1    S    
V1    O10   S    
C40   H24   S    
C27   C29   S    
C5    C38   S    
O18   V4    S    
O17   V3    S    
O19   C34   A    
C11   C33   S    
O13   C34   A    
C37   H17   S    
C25   C26   D    
O4    V1    S    
C7    C8    A    
C27   C28   D    
C9    C10   A    
C2    C30   S    
C8    C9    A    
C22   C34   S    
