data_mof_unit_46484.cif
_audit_creation_date              2013-03-05T15:42:12-0500
_audit_creation_method            fapswitch 2.2
_symmetry_space_group_name_H-M    P1
_symmetry_Int_Tables_number       1
_space_group_crystal_system       triclinic
_cell_length_a                    7.851625
_cell_length_b                    8.566117
_cell_length_c                    16.56458
_cell_angle_alpha                 92.503675
_cell_angle_beta                  80.086665
_cell_angle_gamma                 93.380085
_cell_volume                      1094.91885481

loop_
_atom_site_label
_atom_site_type_symbol
_atom_site_description
_atom_site_fract_x
_atom_site_fract_y
_atom_site_fract_z
_atom_type_partial_charge
O1    O     O_R   0.388470 0.738640 0.505270 -0.621763
O2    O     O_R   0.611530 0.261360 0.494730 -0.617804
O3    O     O_R   0.679650 0.711510 0.491500 -0.590002
O4    O     O_R   0.320350 0.288490 0.508500 -0.585661
C1    C     C_R   0.545612 0.794373 0.498006 0.942018
C2    C     C_R   0.454390 0.205629 0.501993 0.953603
O5    O     O_R   0.337210 0.515200 0.623500 -0.591764
O6    O     O_R   0.662790 0.484800 0.376500 -0.588479
O7    O     O_R   0.628380 0.488060 0.609730 -0.588007
O8    O     O_R   0.371620 0.511940 0.390270 -0.585499
C3    C     C_R   0.477217 0.508346 0.654475 0.841402
C4    C     C_R   0.524882 0.503552 0.345635 0.849912
Zn1   Zn    Zn3+2 0.305580 0.518120 0.509190 1.089008
Zn2   Zn    Zn3+2 0.694420 0.481880 0.490810 1.090009
C5    C     C_R   0.468686 0.553966 0.740505 -0.036677
C6    C     C_R   0.549063 0.547510 0.260617 -0.041944
C7    C     C_R   0.597941 0.513130 0.782597 -0.140575
C8    C     C_R   0.414782 0.521167 0.215754 -0.165640
C9    C     C_R   0.604091 0.576805 0.860459 -0.132310
C10   C     C_R   0.429513 0.583616 0.138958 -0.146292
C11   C     C_R   0.480754 0.683072 0.897087 0.188657
C12   C     C_R   0.579200 0.674321 0.106296 0.192035
C13   C     C_R   0.348365 0.719919 0.855787 -0.186466
C14   C     C_R   0.715836 0.696254 0.150244 -0.179034
C15   C     C_R   0.342407 0.656110 0.777781 -0.159437
C16   C     C_R   0.700722 0.633758 0.227250 -0.159751
C17   C     C_2   0.471124 0.735764 0.982934 -0.228156
C18   C     C_2   0.605481 0.725375 0.021694 -0.227871
H1    H     H_    0.693668 0.431829 0.755359 0.190889
H2    H     H_    0.299491 0.451484 0.239770 0.212601
H3    H     H_    0.805417 0.657151 0.261664 0.194969
H4    H     H_    0.242113 0.690569 0.745765 0.197026
H5    H     H_    0.736492 0.725529 0.987291 0.152431
H6    H     H_    0.343078 0.754162 0.017944 0.151981
H7    H     H_    0.249451 0.797683 0.884028 0.138879
H8    H     H_    0.833877 0.761740 0.124987 0.137987
H9    H     H_    0.325599 0.556185 0.104602 0.139318
H10   H     H_    0.702320 0.538219 0.892385 0.137026
C19   C     C_2   0.569680 0.957781 0.496810 -0.345309
C20   C     C_2   0.430332 0.042198 0.503159 -0.349794
H11   H     H_    0.701578 0.008091 0.490709 0.208621
H12   H     H_    0.298435 0.991878 0.509258 0.208522
N1    N     N_2   0.953500 0.457650 0.478520 0.044201
N2    N     N_2   0.046500 0.542350 0.521480 0.042684
N3    N     N_R   0.039949 0.409201 0.402482 0.301739
O9    O     O_R   0.021128 0.483801 0.338190 -0.427279
O10   O     O_R   0.096555 0.268849 0.392716 -0.397102
N4    N     N_R   0.959573 0.593794 0.596913 0.299812
O11   O     O_R   0.978453 0.522759 0.662301 -0.420401
O12   O     O_R   0.903384 0.734338 0.604883 -0.392314

loop_
_geom_bond_atom_site_label_1
_geom_bond_atom_site_label_2
_geom_bond_distance
_ccdc_geom_bond_type
N2    N4    1.383854 S    
O7    Zn2   1.947937 S    
C8    H2    1.080293 S    
C9    H10   1.081449 S    
N1    N3    1.382959 S    
C8    C10   1.385371 A    
O6    C4    1.295351 A    
N1    N2    1.279589 D    
C15   H4    1.083213 S    
N4    O12   1.300066 A    
C11   C17   1.463743 S    
C16   H3    1.082944 S    
C19   H11   1.087929 S    
C6    C8    1.393497 A    
C12   C18   1.463242 S    
N3    O9    1.299674 A    
O5    C3    1.295985 A    
C10   H9    1.081828 S    
O7    C3    1.303223 A    
C14   H8    1.083687 S    
O3    Zn2   1.976687 S    
O8    C4    1.303491 A    
O1    C1    1.284196 A    
C20   H12   1.087946 S    
N4    O11   1.299572 A    
C7    C9    1.385694 A    
C14   C16   1.388457 A    
C18   H5    1.086714 S    
C13   H7    1.083701 S    
C13   C15   1.388054 A    
C17   H6    1.087138 S    
C6    C16   1.405202 A    
O2    Zn2   1.961454 S    
C12   C14   1.396210 A    
C5    C15   1.405062 A    
O1    Zn1   1.961455 S    
C19   C20   1.333438 D    
C4    C6    1.451544 S    
O5    Zn1   1.953055 S    
C2    C20   1.402102 S    
C7    H1    1.082138 S    
O4    C2    1.290501 A    
N3    O10   1.300162 A    
C17   C18   1.335016 D    
C5    C7    1.394728 A    
C1    C19   1.401935 S    
O6    Zn2   1.953053 S    
C9    C11   1.409943 A    
C3    C5    1.452427 S    
C11   C13   1.396611 A    
Zn1   N2    2.031254 S    
O2    C2    1.284176 A    
O4    Zn1   1.976687 S    
C10   C12   1.409904 A    
Zn2   N1    2.031254 S    
O3    C1    1.290495 A    
O8    Zn1   1.947935 S    
