data_mof_unit_23125.cif
_audit_creation_date              2012-12-10T19:45:41-0500
_audit_creation_method            fapswitch 2.2
_symmetry_space_group_name_H-M    P1
_symmetry_Int_Tables_number       1
_space_group_crystal_system       triclinic
_cell_length_a                    10.830283
_cell_length_b                    14.723547
_cell_length_c                    14.738552
_cell_angle_alpha                 65.070975
_cell_angle_beta                  103.73449
_cell_angle_gamma                 102.963863
_cell_volume                      2049.60214455

loop_
_atom_site_label
_atom_site_type_symbol
_atom_type_description
_atom_site_fract_x
_atom_site_fract_y
_atom_site_fract_z
_atom_type_partial_charge
C1    C     C_R   0.477783 0.119589 0.312285 0.798011
C2    C     C_R   0.521606 0.880355 0.687689 0.798290
C3    C     C_R   0.870525 0.001950 0.494858 -0.071883
C4    C     C_R   0.129396 0.998745 0.504324 -0.073916
C5    C     C_R   0.906119 0.955633 0.439981 0.006032
C6    C     C_R   0.093730 0.045669 0.558656 0.001803
C7    C     C_R   0.459894 0.187100 0.204645 -0.061567
C8    C     C_R   0.528743 0.812544 0.795099 -0.057800
C9    C     C_R   0.399297 0.215738 0.026935 -0.177007
C10   C     C_R   0.552887 0.783247 0.972106 -0.175691
C11   C     C_R   0.416881 0.149253 0.128223 -0.198386
C12   C     C_R   0.553748 0.849984 0.871499 -0.198337
C13   C     C_R   0.483615 0.291607 0.178848 -0.215272
C14   C     C_R   0.505517 0.708066 0.820446 -0.229153
C15   C     C_R   0.460808 0.360175 0.077810 0.079706
C16   C     C_R   0.499640 0.639151 0.920689 0.081924
C17   C     C_R   0.421715 0.320664 0.001166 0.166042
C18   C     C_R   0.525857 0.678438 0.997236 0.165249
C19   C     C_R   0.478695 0.466641 0.051034 0.064795
C20   C     C_R   0.470325 0.532655 0.946926 0.069778
C21   C     C_R   0.430454 0.489994 0.872694 -0.211232
C22   C     C_R   0.501773 0.509120 0.124769 -0.206508
C23   C     C_R   0.262907 0.998981 0.502498 0.792730
C24   C     C_R   0.737052 0.001178 0.497296 0.794042
C25   C     C_R   0.405531 0.386089 0.899670 -0.208731
C26   C     C_R   0.524550 0.612949 0.098022 -0.207492
C27   C     C_R   0.700797 0.277787 0.677915 0.503377
C28   C     C_R   0.272290 0.709968 0.341594 0.502129
C29   C     C_R   0.674111 0.199859 0.643568 -0.134297
C30   C     C_R   0.312446 0.794062 0.366627 -0.136760
C31   C     C_R   0.517927 0.284984 0.508545 0.717732
C32   C     C_R   0.483136 0.715609 0.489857 0.709934
C33   C     C_R   0.537465 0.366410 0.541294 -0.199155
C34   C     C_R   0.443138 0.624646 0.471838 -0.210202
C35   C     C_R   0.632796 0.361040 0.627488 -0.046351
C36   C     C_R   0.337147 0.625113 0.393725 -0.041552
C37   C     C_R   0.467613 0.452068 0.493185 0.115144
C38   C     C_R   0.504099 0.534721 0.526085 0.115080
C39   C     C_R   0.594597 0.521855 0.615398 -0.207311
C40   C     C_R   0.358640 0.456249 0.417277 -0.218251
C41   C     C_R   0.657562 0.437435 0.664345 -0.145880
C42   C     C_R   0.295454 0.540545 0.369024 -0.149326
C43   C     C_R   0.352505 0.075464 0.772396 -0.113510
C44   C     C_R   0.640296 0.927677 0.229596 -0.104032
C45   C     C_R   0.265302 0.031658 0.710376 -0.099737
C46   C     C_R   0.732755 0.971276 0.289207 -0.103536
C47   C     C_R   0.187119 0.091426 0.624679 0.123783
C48   C     C_R   0.811959 0.910833 0.373552 0.114782
C49   C     C_R   0.196079 0.195012 0.603110 -0.106418
C50   C     C_R   0.799587 0.806897 0.395595 -0.055381
C51   C     C_R   0.283204 0.238331 0.665508 -0.137287
C52   C     C_R   0.707032 0.763674 0.335693 -0.113410
C53   C     C_R   0.361887 0.178745 0.749711 -0.139077
C54   C     C_R   0.626866 0.823892 0.253234 -0.144205
C55   C     C_R   0.964358 0.047087 0.552497 -0.228779
C56   C     C_R   0.035483 0.953783 0.446421 -0.228996
Cu1   Cu    Cu3+1 0.466270 0.918260 0.475690 0.997431
Cu2   Cu    Cu3+1 0.533730 0.081740 0.524310 0.998367
H1    H     H_    0.430018 0.212585 0.797422 0.132818
H2    H     H_    0.554106 0.790111 0.207849 0.123596
H3    H     H_    0.367698 0.185117 0.968706 0.138118
H4    H     H_    0.572828 0.813629 0.030277 0.134535
H5    H     H_    0.413594 0.534559 0.792488 0.144129
H6    H     H_    0.499154 0.464293 0.204100 0.169123
H7    H     H_    0.726333 0.432036 0.732529 0.205859
H8    H     H_    0.212268 0.538959 0.311527 0.205209
H9    H     H_    0.261543 0.858976 0.327811 0.177251
H10   H     H_    0.723660 0.134308 0.684004 0.177993
H11   H     H_    0.614601 0.573039 0.653401 0.213963
H12   H     H_    0.313676 0.393798 0.396161 0.222231
H13   H     H_    0.412479 0.029349 0.838329 0.124596
H14   H     H_    0.578619 0.974242 0.165365 0.124615
H15   H     H_    0.258860 0.951493 0.728829 0.109439
H16   H     H_    0.741386 0.051628 0.270730 0.107208
H17   H     H_    0.136305 0.242215 0.537633 0.132049
H18   H     H_    0.859740 0.759149 0.460281 0.138844
H19   H     H_    0.290220 0.318233 0.648301 0.141827
H20   H     H_    0.696403 0.683284 0.353915 0.140358
H21   H     H_    0.936821 0.081193 0.595838 0.163048
H22   H     H_    0.062932 0.919573 0.403141 0.160752
H23   H     H_    0.374522 0.356793 0.840374 0.142438
H24   H     H_    0.541996 0.642089 0.156998 0.142861
H25   H     H_    0.494186 0.682287 0.760345 0.169291
H26   H     H_    0.522933 0.317890 0.239098 0.182439
H27   H     H_    0.573872 0.930542 0.853568 0.155874
H28   H     H_    0.397293 0.068575 0.146594 0.156308
N1    N     N_R   0.584450 0.204570 0.560790 -0.248062
N2    N     N_R   0.415550 0.795430 0.439210 -0.247089
O1    O     O_R   0.455540 0.022090 0.338120 -0.599354
O2    O     O_R   0.544460 0.977910 0.661880 -0.599322
O3    O     O_R   0.512510 0.160150 0.379180 -0.518409
O4    O     O_R   0.487490 0.839850 0.620820 -0.541680
O5    O     O_R   0.291160 0.930970 0.479480 -0.599252
O6    O     O_R   0.708840 0.069030 0.520520 -0.599140
O7    O     O_R   0.348130 0.069020 0.520540 -0.530416
O8    O     O_R   0.651870 0.930980 0.479460 -0.509098
F1    F     F_    0.592731 0.729227 0.552338 -0.679299
F2    F     F_    0.435223 0.284282 0.424423 -0.689380
F3    F     F_    0.791091 0.270826 0.761292 -0.668079
F4    F     F_    0.169675 0.711248 0.267439 -0.667921

loop_
_geom_bond_atom_site_label_1
_geom_bond_atom_site_label_2
_ccdc_geom_bond_type
C1    O1    A    
Cu1   O4    S    
C27   C29   A    
C5    C56   A    
C36   C42   A    
C19   C20   A    
C18   C26   A    
C6    C55   A    
Cu2   N1    S    
C53   H1    S    
C39   C41   A    
C54   H2    S    
C29   N1    A    
C15   C19   A    
C13   H26   S    
C27   F3    S    
Cu1   O1    S    
C12   H27   S    
C9    H3    S    
C37   C40   A    
C24   O6    A    
C24   O8    A    
C38   C39   A    
C11   H28   S    
C32   N2    A    
C32   F1    S    
C45   H15   S    
C31   F2    S    
C2    O2    A    
C3    C55   A    
C43   C53   A    
C52   C54   A    
C49   C51   A    
Cu1   O8    S    
C50   C52   A    
C49   H17   S    
Cu2   O3    S    
C34   C36   A    
C30   H9    S    
C8    C12   A    
C28   F4    S    
C40   C42   A    
C1    O3    A    
C1    C7    S    
C4    C56   A    
C25   H23   S    
C3    C24   S    
C10   H4    S    
C14   H25   S    
C52   H20   S    
C44   C46   A    
C26   H24   S    
C45   C47   A    
C5    C48   S    
C46   C48   A    
C31   N1    A    
C6    C47   S    
C19   C22   A    
C4    C6    A    
C4    C23   S    
C41   H7    S    
C27   C35   A    
C33   C37   A    
C23   O5    A    
C51   C53   A    
C32   C34   A    
C7    C11   A    
Cu2   O7    S    
C51   H19   S    
C37   C38   A    
C50   H18   S    
C29   H10   S    
C55   H21   S    
C16   C20   A    
C31   C33   A    
C39   H11   S    
C2    O4    A    
C9    C11   A    
C10   C12   A    
Cu2   O2    S    
C9    C17   A    
C13   C15   A    
C8    C14   A    
C30   N2    A    
C46   H16   S    
C15   C17   A    
C21   C25   A    
C43   H13   S    
C34   C38   A    
C2    C8    S    
C3    C5    A    
C47   C49   A    
C40   H12   S    
C56   H22   S    
Cu1   N2    S    
C17   C25   A    
C28   C30   A    
Cu2   O6    S    
C43   C45   A    
Cu1   Cu2   S    
C10   C18   A    
C48   C50   A    
C33   C35   A    
C23   O7    A    
C44   H14   S    
C14   C16   A    
C35   C41   A    
C21   H5    S    
C22   H6    S    
C44   C54   A    
C7    C13   A    
C20   C21   A    
C28   C36   A    
C16   C18   A    
C22   C26   A    
C42   H8    S    
Cu1   O5    S    
