data_mof_unit_29268.cif
_audit_creation_date              2012-12-10T17:31:05-0500
_audit_creation_method            fapswitch 2.2
_symmetry_space_group_name_H-M    P1
_symmetry_Int_Tables_number       1
_space_group_crystal_system       triclinic
_cell_length_a                    12.115639
_cell_length_b                    12.870835
_cell_length_c                    15.840566
_cell_angle_alpha                 86.748589
_cell_angle_beta                  115.087151
_cell_angle_gamma                 93.268558
_cell_volume                      2232.04155902

loop_
_atom_site_label
_atom_site_type_symbol
_atom_type_description
_atom_site_fract_x
_atom_site_fract_y
_atom_site_fract_z
_atom_type_partial_charge
C1    C     C_R   0.477050 0.300402 0.497516 0.851348
C2    C     C_R   0.543447 0.961999 0.406210 -0.114353
C3    C     C_R   0.444227 0.143654 0.574355 -0.152441
C4    C     C_R   0.556889 0.856773 0.425525 -0.150643
C5    C     C_R   0.498628 0.131519 0.443496 -0.049084
C6    C     C_R   0.501791 0.869044 0.555963 -0.116925
C7    C     C_R   0.511179 0.023844 0.461911 0.127092
C8    C     C_R   0.490121 0.976787 0.537884 0.121960
C9    C     C_R   0.012993 0.612003 0.427079 -0.154065
C10   C     C_R   0.987016 0.387995 0.572938 -0.201133
C11   C     C_R   0.129999 0.600469 0.431206 0.093978
C12   C     C_R   0.522807 0.699717 0.502068 0.852936
C13   C     C_R   0.869969 0.399492 0.568749 0.091377
C14   C     C_R   0.154025 0.447220 0.527636 0.084910
C15   C     C_R   0.846057 0.552860 0.472488 0.095266
C16   C     C_R   0.574815 0.498338 0.679092 0.872746
C17   C     C_R   0.424862 0.500201 0.321065 0.842592
C18   C     C_R   0.035419 0.457895 0.525022 0.009105
C19   C     C_R   0.964642 0.542156 0.475067 0.029243
C20   C     C_R   0.615906 0.494792 0.780732 -0.082667
C21   C     C_R   0.382464 0.500202 0.219457 -0.181600
C22   C     C_R   0.756147 0.420006 0.929311 0.024431
C23   C     C_R   0.567211 0.373882 0.064904 -0.251371
C24   C     C_R   0.243076 0.574278 0.070510 -0.040608
C25   C     C_R   0.730026 0.454989 0.837863 -0.311653
C26   C     C_R   0.269141 0.540934 0.162332 -0.128717
C27   C     C_R   0.536006 0.519467 0.820969 -0.082890
C28   C     C_R   0.460916 0.471334 0.179530 -0.084405
C29   C     C_R   0.569050 0.494367 0.915943 -0.027752
C30   C     C_R   0.429810 0.496991 0.084677 0.095747
C31   C     C_R   0.664284 0.424359 0.962145 0.135865
C32   C     C_R   0.334731 0.567628 0.037827 -0.068229
C33   C     C_R   0.499195 0.525373 0.962110 -0.002893
C34   C     C_R   0.432070 0.616765 0.935333 -0.157473
C35   C     C_R   0.499983 0.465458 0.038744 0.124404
C36   C     C_2   0.716929 0.255305 0.061868 0.490351
C37   C     C_2   0.277410 0.733703 0.935892 0.414511
C38   C     C_2   0.828434 0.324355 0.624387 0.445641
C39   C     C_2   0.171471 0.675543 0.375481 0.489400
C40   C     C_2   0.584228 0.431623 0.239736 0.410738
C41   C     C_2   0.407461 0.549026 0.762937 0.419152
C42   C     C_2   0.882016 0.387612 0.989059 0.544104
C43   C     C_2   0.118449 0.608618 0.008713 0.373160
C44   C     C_2   0.479214 0.814949 0.632964 0.488372
C45   C     C_R   0.654534 0.355612 0.032013 -0.003986
C46   C     C_2   0.519683 0.185889 0.365838 0.392252
C47   C     C_2   0.774032 0.644148 0.424114 0.464340
C48   C     C_2   0.226126 0.356013 0.576136 0.423679
C49   C     C_R   0.343578 0.635023 0.966944 -0.072058
C50   C     C_R   0.534438 0.810759 0.498462 -0.103534
C51   C     C_R   0.465631 0.189540 0.500981 -0.106567
C52   C     C_R   0.458480 0.038665 0.593929 -0.114509
H1    H     H_    0.958982 0.674796 0.383725 0.217679
H2    H     H_    0.555262 0.992667 0.345618 0.195222
H3    H     H_    0.732943 0.220251 0.129856 0.097718
H4    H     H_    0.240758 0.768641 0.978813 0.076976
H5    H     H_    0.762538 0.344727 0.648867 0.108088
H6    H     H_    0.237497 0.655213 0.351129 0.101863
H7    H     H_    0.593690 0.364348 0.286041 0.121291
H8    H     H_    0.332979 0.501404 0.767248 0.046697
H9    H     H_    0.940744 0.365889 0.957340 0.041046
H10   H     H_    0.088853 0.614629 0.933734 0.067195
H11   H     H_    0.541598 0.756729 0.677062 0.072620
H12   H     H_    0.040993 0.325162 0.616254 0.213461
H13   H     H_    0.455566 0.242727 0.321277 0.026779
H14   H     H_    0.682928 0.634511 0.369724 0.108985
H15   H     H_    0.317074 0.365724 0.630709 0.065980
H16   H     H_    0.204506 0.553413 0.191204 0.204699
H17   H     H_    0.795783 0.444758 0.809518 0.149582
H18   H     H_    0.551519 0.315500 0.110989 0.128912
H19   H     H_    0.448645 0.674523 0.889250 0.222652
H20   H     H_    0.577239 0.809905 0.379508 0.164183
H21   H     H_    0.424142 0.190505 0.620533 0.166622
H22   H     H_    0.447787 0.008308 0.655039 0.198769
N1    N     N_R   0.799120 0.480200 0.517090 -0.182946
N2    N     N_R   0.200880 0.519800 0.482910 -0.168462
O1    O     O_R   0.580150 0.341050 0.504560 -0.632867
O2    O     O_2   0.264800 0.778225 0.862353 -0.497797
O3    O     O_2   0.869766 0.237467 0.645312 -0.543261
O4    O     O_2   0.129932 0.762335 0.354330 -0.537005
O5    O     O_2   0.675998 0.476858 0.240345 -0.559508
O6    O     O_2   0.384498 0.628958 0.714564 -0.499754
O7    O     O_2   0.923522 0.389815 0.073947 -0.540392
O8    O     O_2   0.046528 0.628625 0.040512 -0.527319
O9    O     O_2   0.387459 0.830058 0.643675 -0.471319
O10   O     O_2   0.611915 0.172845 0.355138 -0.558449
O11   O     O_2   0.816163 0.732110 0.445977 -0.552816
O12   O     O_R   0.419850 0.658950 0.495440 -0.619759
O13   O     O_2   0.184208 0.268018 0.554185 -0.539374
O14   O     O_R   0.388090 0.353760 0.493600 -0.608362
O15   O     O_R   0.611910 0.646240 0.506400 -0.612555
O16   O     O_R   0.650890 0.490020 0.640860 -0.649740
O17   O     O_R   0.349110 0.509980 0.359140 -0.640343
O18   O     O_R   0.458830 0.502730 0.629890 -0.618886
O19   O     O_R   0.541170 0.497270 0.370110 -0.649996
O20   O     O_2   0.744417 0.207871 0.009378 -0.562343
Zn1   Zn    Zn3+2 0.628240 0.491510 0.507320 0.949082
Zn2   Zn    Zn3+2 0.371760 0.508490 0.492680 0.978008

loop_
_geom_bond_atom_site_label_1
_geom_bond_atom_site_label_2
_ccdc_geom_bond_type
C15   N1    A    
C21   C26   A    
C1    O14   A    
C23   C45   A    
C27   C29   A    
C1    O1    A    
C14   C18   A    
C12   O15   A    
C2    C7    A    
C15   C47   S    
C7    C8    A    
O18   Zn2   S    
C15   C19   A    
C30   C35   A    
C24   C26   A    
C52   H22   S    
C11   N2    A    
C38   O3    D    
C28   C40   S    
N2    Zn2   S    
C29   C33   A    
N1    Zn1   S    
C37   C49   S    
C18   C19   A    
C36   O20   D    
C37   H4    S    
C9    C19   A    
C13   N1    A    
C22   C25   A    
O1    Zn1   S    
C17   O19   A    
C8    C52   A    
C47   H14   S    
C40   H7    S    
C6    C44   S    
C43   O8    D    
C23   H18   S    
C9    H1    S    
O16   Zn1   S    
C44   H11   S    
C22   C31   A    
C12   O12   A    
C20   C25   A    
C46   H13   S    
C2    H2    S    
C5    C7    A    
C3    C51   A    
C6    C8    A    
C39   H6    S    
C6    C50   A    
C4    C50   A    
C14   N2    A    
C2    C4    A    
C24   C32   A    
C38   H5    S    
C9    C11   A    
C27   C41   S    
C16   C20   S    
C33   C34   A    
C36   C45   S    
O15   Zn1   S    
C11   C39   S    
C1    C51   S    
C42   H9    S    
C13   C38   S    
C21   C28   A    
C16   O16   A    
C23   C35   A    
C48   O13   D    
C25   H17   S    
C44   O9    D    
C4    H20   S    
C37   O2    D    
C34   C49   A    
C40   O5    D    
C10   H12   S    
C42   O7    D    
C41   H8    S    
C10   C13   A    
C12   C50   S    
C3    C52   A    
O19   Zn1   S    
C20   C27   A    
C5    C46   S    
C16   O18   A    
C26   H16   S    
C39   O4    D    
C28   C30   A    
C29   C31   A    
C36   H3    S    
C30   C32   A    
C22   C42   S    
C10   C18   A    
C41   O6    D    
O17   Zn2   S    
C33   C35   A    
C48   H15   S    
C3    H21   S    
C17   C21   S    
C32   C49   A    
C17   O17   A    
C31   C45   A    
C24   C43   S    
C14   C48   S    
C5    C51   A    
C34   H19   S    
O14   Zn2   S    
O12   Zn2   S    
C43   H10   S    
C47   O11   D    
C46   O10   D    
