data_mof_unit_50169.cif
_audit_creation_date              2012-12-11T18:07:21-0500
_audit_creation_method            fapswitch 2.2
_symmetry_space_group_name_H-M    P1
_symmetry_Int_Tables_number       1
_space_group_crystal_system       triclinic
_cell_length_a                    8.214679
_cell_length_b                    12.712951
_cell_length_c                    26.971477
_cell_angle_alpha                 96.639249
_cell_angle_beta                  93.089811
_cell_angle_gamma                 81.379192
_cell_volume                      2764.28943256

loop_
_atom_site_label
_atom_site_type_symbol
_atom_type_description
_atom_site_fract_x
_atom_site_fract_y
_atom_site_fract_z
_atom_type_partial_charge
Ba1   Ba    Ba6+2 0.859560 0.448380 0.523550 1.635940
Ba2   Ba    Ba6+2 0.330270 0.551530 0.476440 1.634828
C1    C     C_3   0.641515 0.079834 0.661569 -0.376511
C2    C     C_R   0.908493 0.602573 0.178106 0.572564
C3    C     C_2   0.753928 0.564400 0.271142 -0.098070
C4    C     C_3   0.172881 0.217420 0.660403 0.290205
C5    C     C_3   0.732841 0.600338 0.325989 -0.043587
C6    C     C_1   0.984398 0.479309 0.342578 0.035203
C7    C     C_2   0.026588 0.473419 0.294947 -0.103911
C8    C     C_2   0.903655 0.515599 0.255563 0.202036
C9    C     C_R   0.026549 0.506883 0.101546 -0.080400
C10   C     C_R   0.067744 0.415128 0.126975 -0.036011
C11   C     C_R   0.149137 0.321832 0.101024 -0.062292
C12   C     C_3   0.662718 0.181588 0.639573 0.332262
C13   C     C_R   0.945962 0.600885 0.127490 -0.021634
C14   C     C_2   0.844548 0.533298 0.359539 -0.288749
C15   C     C_2   0.353384 0.475693 0.641259 -0.282027
C16   C     C_3   0.145616 0.193291 0.712940 -0.330196
C17   C     C_R   0.196028 0.410025 0.973955 0.019512
C18   C     C_R   0.052553 0.594716 0.973256 0.020312
C19   C     C_R   0.143828 0.501676 0.948251 0.049980
C20   C     C_R   0.291721 0.321091 0.947701 -0.099913
C21   C     C_R   0.331772 0.321467 0.898103 -0.060513
C22   C     C_R   0.278180 0.410273 0.872024 -0.031349
C23   C     C_3   0.482580 0.719769 0.628231 0.298713
C24   C     C_R   0.183504 0.500451 0.896983 -0.077667
C25   C     C_R   0.129022 0.589657 0.870731 -0.033776
C26   C     C_R   0.169655 0.587767 0.820224 0.590024
C27   C     C_R   0.317814 0.410657 0.821509 0.578521
C28   C     C_3   0.202642 0.219381 0.417734 0.276604
C29   C     C_2   0.461915 0.478514 0.729486 -0.070235
C30   C     C_3   0.502579 0.485378 0.675686 -0.052421
C31   C     C_1   0.208890 0.522661 0.656892 0.041309
C32   C     C_2   0.170130 0.523713 0.704265 -0.108756
C33   C     C_2   0.303017 0.498466 0.743670 0.201031
C34   C     C_3   0.446963 0.762962 0.682156 -0.369812
C35   C     C_R   0.152080 0.410459 0.024752 0.020067
C36   C     C_R   0.065938 0.504915 0.050199 0.049254
C37   C     C_R   0.018828 0.597666 0.024912 0.020107
C38   C     C_R   0.190634 0.319422 0.051306 -0.099804
C39   C     C_R   0.905154 0.692500 0.102541 -0.063151
C40   C     C_3   0.135075 0.114197 0.411362 -0.331591
C41   C     C_R   0.997121 0.681881 0.945342 -0.101239
C42   C     C_R   0.034767 0.679292 0.895466 -0.062439
C43   C     C_R   0.940453 0.691123 0.052616 -0.103047
C44   C     C_R   0.755992 0.819769 0.478892 -0.286259
C45   C     C_3   0.042655 0.777070 0.338852 0.330961
C46   C     C_R   0.431460 0.188460 0.519430 -0.290496
C47   C     C_R   0.408412 0.009484 0.536059 -0.095352
C48   C     C_R   0.345463 0.117425 0.538969 -0.008860
C49   C     C_R   0.574574 0.151794 0.493265 0.067452
C50   C     C_R   0.636600 0.040431 0.487586 -0.060820
C51   C     C_R   0.553346 0.969129 0.510280 -0.062311
C52   C     C_3   0.982367 0.777080 0.580966 0.275721
C53   C     C_R   0.616142 0.858969 0.505913 0.043798
C54   C     C_R   0.842612 0.888712 0.458427 -0.001205
C55   C     C_R   0.780473 0.997888 0.461136 -0.092580
C56   C     C_3   0.065769 0.802114 0.286065 -0.321884
C57   C     C_3   0.981655 0.896995 0.592018 -0.337708
C58   C     C_3   0.695134 0.312053 0.375561 0.298765
C59   C     C_3   0.702144 0.283496 0.319306 -0.379161
C60   C     C_3   0.609224 0.955606 0.306538 -0.235613
C61   C     C_3   0.597366 0.882683 0.257787 -0.331800
C62   C     C_3   0.502049 0.836108 0.364167 0.365643
C63   C     C_3   0.477681 0.944482 0.343033 -0.185148
C64   C     C_R   0.025473 0.418225 0.177659 0.595941
H1    H     H_    0.773343 0.165006 0.616321 0.086745
H2    H     H_    0.815393 0.333500 0.390161 0.009717
H3    H     H_    0.597134 0.381416 0.383273 0.078993
H4    H     H_    0.624424 0.015543 0.631026 0.085990
H5    H     H_    0.804155 0.217156 0.310422 0.128434
H6    H     H_    0.723049 0.353784 0.301049 0.074507
H7    H     H_    0.583828 0.258205 0.304251 0.129791
H8    H     H_    0.551337 0.204590 0.615929 -0.036517
H9    H     H_    0.531883 0.094150 0.685066 0.135494
H10   H     H_    0.367822 0.695089 0.610071 0.031606
H11   H     H_    0.581124 0.649599 0.627558 0.034099
H12   H     H_    0.194380 0.060529 0.380455 0.116128
H13   H     H_    0.353888 0.836167 0.683196 0.140040
H14   H     H_    0.397631 0.702698 0.701387 0.077745
H15   H     H_    0.561755 0.782981 0.702284 0.125229
H16   H     H_    0.751999 0.053667 0.685080 0.130457
H17   H     H_    0.173682 0.260834 0.740253 0.122442
H18   H     H_    0.130090 0.704138 0.345602 0.100924
H19   H     H_    0.914269 0.761542 0.341496 -0.048622
H20   H     H_    0.179852 0.837753 0.284049 0.145438
H21   H     H_    0.075840 0.727142 0.260317 0.120604
H22   H     H_    0.960490 0.859466 0.273709 0.113035
H23   H     H_    0.156263 0.075445 0.446252 0.108693
H24   H     H_    0.636024 0.812611 0.372327 -0.079171
H25   H     H_    0.437503 0.846435 0.399962 0.069996
H26   H     H_    0.484219 0.008019 0.374784 0.048312
H27   H     H_    0.099007 0.295699 0.654830 0.095240
H28   H     H_    0.354094 0.958803 0.324280 0.124818
H29   H     H_    0.150927 0.439864 0.284514 0.131225
H30   H     H_    0.181737 0.249498 0.119202 0.119260
H31   H     H_    0.561728 0.464816 0.757103 0.104402
H32   H     H_    0.405673 0.251018 0.880124 0.121939
H33   H     H_    0.340424 0.249741 0.964625 0.068371
H34   H     H_    0.001860 0.129104 0.401360 0.131544
H35   H     H_    0.251200 0.243717 0.034535 0.067673
H36   H     H_    0.658318 0.593136 0.244573 0.108803
H37   H     H_    0.844846 0.766637 0.121653 0.117015
H38   H     H_    0.921434 0.753574 0.960610 0.068459
H39   H     H_    0.305063 0.223024 0.656942 -0.020009
H40   H     H_    0.989066 0.748677 0.876212 0.122300
H41   H     H_    0.042881 0.543964 0.714863 0.129735
H42   H     H_    0.906766 0.766064 0.037182 0.067787
H43   H     H_    0.824606 0.549107 0.399322 0.081305
H44   H     H_    0.363957 0.429501 0.604785 0.071364
H45   H     H_    0.855770 0.760586 0.572110 0.004592
H46   H     H_    0.339951 0.958235 0.553161 0.105468
H47   H     H_    0.847577 0.048181 0.443543 0.098532
H48   H     H_    0.804224 0.735388 0.476710 0.062064
H49   H     H_    0.382071 0.272673 0.522520 0.068236
H50   H     H_    0.015048 0.182784 0.716434 0.144098
H51   H     H_    0.226849 0.119029 0.721408 0.120543
H52   H     H_    0.338663 0.203274 0.419984 -0.004730
H53   H     H_    0.156448 0.263875 0.453242 0.063808
H54   H     H_    0.630861 0.797764 0.264673 0.177237
H55   H     H_    0.470583 0.895100 0.240880 0.129993
H56   H     H_    0.060407 0.748146 0.548456 0.077461
H57   H     H_    0.683995 0.901199 0.230921 0.139394
H58   H     H_    0.591927 0.039867 0.297632 0.133147
H59   H     H_    0.733770 0.938999 0.324538 0.119668
H60   H     H_    0.914000 0.927216 0.626406 0.123378
H61   H     H_    0.921103 0.938734 0.560650 0.086220
H62   H     H_    0.110055 0.914599 0.597715 0.133851
N1    N     N_R   0.946430 0.511580 0.203024 -0.419981
N2    N     N_R   0.262623 0.498668 0.795889 -0.424875
O1    O     O_2   0.907040 0.557650 0.617910 -0.464560
O2    O     O_2   0.181721 0.883893 0.465680 -0.489696
O3    O     O_3   0.074326 0.864077 0.373136 -0.614050
O4    O     O_3   0.139040 0.557570 0.557730 -0.493936
O5    O     O_3   0.571310 0.369620 0.475470 -0.485742
O6    O     O_2   0.348200 0.764910 0.523260 -0.468506
O7    O     O_3   0.535337 0.800504 0.604680 -0.648208
O8    O     O_2   0.400659 0.555038 0.321855 -0.500497
O9    O     O_3   0.433186 0.759186 0.330814 -0.610478
O10   O     O_2   0.057214 0.337261 0.198818 -0.599152
O11   O     O_2   0.400695 0.332152 0.800290 -0.598570
O12   O     O_3   0.661230 0.223075 0.397046 -0.644866
O13   O     O_2   0.842914 0.686214 0.200122 -0.641903
O14   O     O_2   0.124225 0.666397 0.798167 -0.598181
O15   O     O_3   0.684960 0.360550 0.588460 -0.485110
O16   O     O_2   0.844181 0.419820 0.672881 -0.500981
O17   O     O_3   0.041598 0.729166 0.623707 -0.626554
O18   O     O_3   0.682238 0.262412 0.678591 -0.585762
O19   O     O_2   0.841490 0.235060 0.476710 -0.473129
O20   O     O_3   0.099640 0.305100 0.564190 -0.490557
O21   O     O_2   0.006993 0.116371 0.534401 -0.487807
O22   O     O_3   0.123253 0.135607 0.626051 -0.609975
O23   O     O_2   0.282660 0.442310 0.382060 -0.457823
O24   O     O_3   0.050670 0.442340 0.442260 -0.499740
O25   O     O_3   0.504750 0.639360 0.411530 -0.472746
O26   O     O_3   0.153877 0.271210 0.375185 -0.622376
O27   O     O_3   0.618400 0.630290 0.524520 -0.474298
O28   O     O_3   0.090070 0.694820 0.435810 -0.490820
P1    P     P_3+3 0.072810 0.589830 0.610360 0.995019
P2    P     P_3+3 0.661990 0.251250 0.462170 0.971283
P3    P     P_3+3 0.144193 0.167239 0.565511 0.932280
P4    P     P_3+3 0.116900 0.410080 0.389630 0.991136
P5    P     P_3+3 0.046217 0.833565 0.433491 0.931668
P6    P     P_3+3 0.678355 0.384154 0.653632 0.972538
P7    P     P_3+3 0.533445 0.764319 0.540136 0.936292
P8    P     P_3+3 0.517001 0.632481 0.346855 0.937899

loop_
_geom_bond_atom_site_label_1
_geom_bond_atom_site_label_2
_ccdc_geom_bond_type
C63   H26   S    
C19   C24   A    
Ba2   O25   S    
C9    C36   A    
Ba1   O15   S    
C62   H24   S    
O17   P1    S    
C15   H44   S    
Ba2   P4    S    
C2    O13   D    
O7    P7    S    
C57   H60   S    
C54   P5    S    
C24   C25   A    
Ba2   O4    S    
C23   H11   S    
C32   H41   S    
C12   H8    S    
C17   C19   A    
C22   C24   A    
C32   C33   S    
C35   C38   A    
C36   C37   A    
O6    P7    D    
O25   P8    S    
C57   H61   S    
O5    P2    S    
C12   O18   S    
C49   P2    S    
C54   C55   A    
Ba1   Ba2   S    
C41   H38   S    
C11   C38   A    
C17   C35   A    
C58   O12   S    
C38   H35   S    
C22   C27   A    
C9    C13   A    
C25   C42   A    
C46   C49   A    
C29   C30   S    
C6    C7    D    
O21   P3    D    
C44   C53   A    
C12   H1    S    
Ba1   O19   S    
C26   O14   D    
C1    H9    S    
C7    C8    S    
C7    H29   S    
O22   P3    S    
C43   H42   S    
Ba2   O28   S    
C37   C43   A    
C64   N1    Am   
C4    O22   S    
C59   H5    S    
C46   C48   A    
O4    P1    S    
C52   H56   S    
O26   P4    S    
Ba2   O24   S    
C56   H21   S    
C48   P3    S    
C15   C31   D    
C1    H16   S    
C56   H20   S    
C60   H58   S    
C61   H55   S    
C14   H43   S    
C31   C32   D    
C52   C57   S    
C51   C53   A    
C4    C16   S    
C44   H48   S    
C11   H30   S    
C49   C50   A    
O18   P6    S    
Ba1   P1    S    
C1    H4    S    
C13   C39   A    
C34   H14   S    
O27   P7    S    
C3    C5    S    
C18   C37   A    
C55   H47   S    
C28   H52   S    
C59   H7    S    
C57   H62   S    
O16   P6    D    
Ba2   O6    S    
C39   H37   S    
C58   C59   S    
O9    P8    S    
C23   O7    S    
C41   C42   A    
C35   C36   A    
C40   H34   S    
C27   N2    Am   
C33   N2    S    
C34   H15   S    
C21   C22   A    
C4    H27   S    
C27   O11   D    
C17   C20   A    
C60   C61   S    
C16   H17   S    
Ba1   O20   S    
C45   H18   S    
C18   C19   A    
O1    P1    D    
C16   H51   S    
C1    C12   S    
O28   P5    S    
C47   H46   S    
C59   H6    S    
C63   H28   S    
C5    P8    S    
C40   H12   S    
Ba2   O23   S    
C46   H49   S    
C29   C33   D    
C53   P7    S    
C16   H50   S    
Ba1   O4    S    
C45   H19   S    
C18   C41   A    
C50   C51   A    
O20   P3    S    
C3    H36   S    
C5    C14   S    
C20   H33   S    
C60   C63   S    
O24   P4    S    
Ba1   P2    S    
O3    P5    S    
O12   P2    S    
Ba1   O1    S    
C34   H13   S    
C56   H22   S    
C60   H59   S    
C61   H57   S    
C9    C10   A    
C2    N1    Am   
O15   P6    S    
C42   H40   S    
Ba2   O5    S    
O23   P4    D    
O8    P8    D    
C40   H23   S    
C62   C63   S    
C23   H10   S    
C2    C13   A    
Ba1   O27   S    
C8    N1    S    
C3    C8    D    
C6    P4    S    
C45   C56   S    
C61   H54   S    
C10   C64   A    
C58   H3    S    
Ba2   O27   S    
C47   C51   A    
C30   P6    S    
C28   O26   S    
C4    H39   S    
C52   H45   S    
C26   N2    Am   
C29   H31   S    
Ba1   O24   S    
O19   P2    D    
O2    P5    D    
C50   C55   A    
C23   C34   S    
C21   H32   S    
C64   O10   D    
C10   C11   A    
C58   H2    S    
C6    C14   D    
C47   C48   A    
C28   H53   S    
C44   C54   A    
C25   C26   A    
C15   C30   S    
C39   C43   A    
C20   C21   A    
C28   C40   S    
C62   H25   S    
Ba1   O5    S    
C45   O3    S    
C31   P1    S    
C52   O17   S    
C62   O9    S    
