data_mof_unit_33026.cif
_audit_creation_date              2012-12-11T15:22:28-0500
_audit_creation_method            fapswitch 2.2
_symmetry_space_group_name_H-M    P1
_symmetry_Int_Tables_number       1
_space_group_crystal_system       triclinic
_cell_length_a                    22.276973
_cell_length_b                    13.030929
_cell_length_c                    26.842434
_cell_angle_alpha                 90.302868
_cell_angle_beta                  90.766118
_cell_angle_gamma                 90.228612
_cell_volume                      7791.21119363

loop_
_atom_site_label
_atom_site_type_symbol
_atom_type_description
_atom_site_fract_x
_atom_site_fract_y
_atom_site_fract_z
_atom_type_partial_charge
C1    C     C_R   0.721319 0.346006 0.178782 0.544590
C2    C     C_R   0.295677 0.304173 0.826566 0.537905
C3    C     C_R   0.221511 0.846199 0.178899 0.547816
C4    C     C_R   0.795980 0.803387 0.826556 0.558192
C5    C     C_R   0.479477 0.162314 0.870200 0.025417
C6    C     C_R   0.523049 0.160126 0.128651 0.031509
C7    C     C_R   0.979737 0.661544 0.870189 0.026290
C8    C     C_R   0.022407 0.661897 0.128868 0.029617
C9    C     C_R   0.521352 0.253350 0.102910 -0.175967
C10   C     C_R   0.480262 0.254929 0.896966 -0.181876
C11   C     C_R   0.022993 0.754801 0.102622 -0.178214
C12   C     C_R   0.984589 0.755128 0.896035 -0.170967
C13   C     C_R   0.510217 0.254640 0.051697 -0.002391
C14   C     C_R   0.492668 0.255645 0.948036 0.014260
C15   C     C_R   0.011777 0.756084 0.051352 -0.006271
C16   C     C_R   0.996209 0.756018 0.947328 0.015262
C17   C     C_R   0.505109 0.161045 0.025353 0.052526
C18   C     C_R   0.499928 0.161696 0.973147 0.062205
C19   C     C_R   0.003394 0.662471 0.025613 0.048111
C20   C     C_R   0.998654 0.662203 0.973344 0.057922
C21   C     C_R   0.506434 0.347747 0.026032 -0.153435
C22   C     C_R   0.494829 0.348126 0.974931 -0.145243
C23   C     C_R   0.012011 0.848774 0.024964 -0.146295
C24   C     C_R   0.002563 0.848924 0.973452 -0.130895
C25   C     C_R   0.746329 0.942734 0.132827 0.015397
C26   C     C_R   0.275187 0.021870 0.880622 0.011207
C27   C     C_R   0.246011 0.445633 0.132480 0.017556
C28   C     C_R   0.759994 0.462036 0.871478 0.021072
C29   C     C_R   0.804299 0.946546 0.110332 -0.005924
C30   C     C_R   0.221606 0.039414 0.908461 0.001508
C31   C     C_R   0.303832 0.451583 0.109925 -0.004339
C32   C     C_R   0.702943 0.460469 0.894998 -0.005850
C33   C     C_R   0.810308 0.907541 0.061647 -0.096942
C34   C     C_R   0.221402 0.010447 0.958600 -0.097669
C35   C     C_R   0.309445 0.417106 0.060572 -0.093673
C36   C     C_R   0.701317 0.439392 0.946237 -0.095923
C37   C     C_R   0.762077 0.861650 0.036206 0.014102
C38   C     C_R   0.274312 0.985740 0.984135 0.016941
C39   C     C_R   0.261345 0.371628 0.034853 0.019028
C40   C     C_R   0.754449 0.430965 0.974337 0.016932
C41   C     C_R   0.706720 0.852273 0.059647 -0.116825
C42   C     C_R   0.327563 0.975469 0.957559 -0.110283
C43   C     C_R   0.205852 0.361665 0.058023 -0.108886
C44   C     C_R   0.809714 0.429119 0.950597 -0.124411
C45   C     C_R   0.552661 0.156540 0.177933 0.569237
C46   C     C_R   0.447856 0.157231 0.821751 0.544398
C47   C     C_R   0.052603 0.656832 0.177944 0.578790
C48   C     C_R   0.947982 0.657165 0.821717 0.552540
C49   C     C_R   0.698974 0.892041 0.107436 -0.133971
C50   C     C_R   0.327524 0.990450 0.906175 -0.142646
C51   C     C_R   0.198334 0.397690 0.106389 -0.124434
C52   C     C_R   0.812310 0.441781 0.899583 -0.138697
C53   C     C_R   0.732459 0.892365 0.948500 -0.146271
C54   C     C_R   0.298405 0.875073 0.056298 -0.141794
C55   C     C_R   0.229095 0.392265 0.947110 -0.148901
C56   C     C_R   0.783650 0.340346 0.050981 -0.145503
C57   C     C_R   0.741457 0.881979 0.897424 -0.125693
C58   C     C_R   0.285345 0.839607 0.103758 -0.140693
C59   C     C_R   0.237751 0.379186 0.896215 -0.128208
C60   C     C_R   0.778249 0.321895 0.101492 -0.140779
C61   C     C_R   0.820021 0.758004 0.913604 -0.086170
C62   C     C_R   0.222631 0.987791 0.117920 -0.080793
C63   C     C_R   0.322331 0.268178 0.913647 -0.091274
C64   C     C_R   0.713622 0.470247 0.109369 -0.074230
C65   C     C_R   0.811714 0.768156 0.964932 0.105918
C66   C     C_R   0.235977 0.025300 0.070841 0.108566
C67   C     C_R   0.314370 0.280675 0.964729 0.110554
C68   C     C_R   0.719350 0.490442 0.058718 0.105985
C69   C     C_R   0.767958 0.837415 0.982740 0.022846
C70   C     C_R   0.271768 0.965239 0.038230 0.039301
C71   C     C_R   0.267861 0.345406 0.981806 0.018924
C72   C     C_R   0.752416 0.421556 0.028697 0.038016
C73   C     C_R   0.786064 0.816293 0.879917 -0.000907
C74   C     C_R   0.244990 0.893344 0.133752 -0.005383
C75   C     C_R   0.285313 0.319044 0.879505 -0.010544
C76   C     C_R   0.740710 0.383549 0.130407 -0.005787
C77   C     C_R   0.526578 0.166667 0.370260 0.025169
C78   C     C_R   0.465314 0.163643 0.627245 0.027821
C79   C     C_R   0.059135 0.662327 0.378492 0.025537
C80   C     C_R   0.977014 0.663810 0.631381 0.027401
C81   C     C_R   0.520961 0.262032 0.394369 -0.140064
C82   C     C_R   0.498845 0.246019 0.608936 -0.136066
C83   C     C_R   0.031654 0.749966 0.398176 -0.129373
C84   C     C_R   0.990511 0.758027 0.609168 -0.136046
C85   C     C_R   0.507710 0.266049 0.444971 -0.136428
C86   C     C_R   0.510986 0.250823 0.558000 -0.124795
C87   C     C_R   0.015704 0.752247 0.448149 -0.133669
C88   C     C_R   0.009319 0.760364 0.559847 -0.132082
C89   C     C_R   0.732255 0.000034 0.179476 0.544633
C90   C     C_R   0.279769 0.043520 0.826434 0.530905
C91   C     C_R   0.232253 0.500282 0.179584 0.544817
C92   C     C_R   0.768504 0.502686 0.820957 0.534893
C93   C     C_R   0.500848 0.174709 0.471862 0.033016
C94   C     C_R   0.487344 0.175530 0.525284 0.027929
C95   C     C_R   0.029536 0.668736 0.479186 0.020678
C96   C     C_R   0.013072 0.668716 0.532075 0.033369
C97   C     C_R   0.505737 0.080001 0.447119 -0.132652
C98   C     C_R   0.451554 0.096590 0.544142 -0.130129
C99   C     C_R   0.058986 0.583128 0.459134 -0.125995
C100  C     C_R   0.000464 0.575017 0.555166 -0.127120
C101  C     C_R   0.516481 0.076133 0.396749 -0.132502
C102  C     C_R   0.442388 0.089023 0.594459 -0.121410
C103  C     C_R   0.071653 0.578818 0.409082 -0.125454
C104  C     C_R   0.984710 0.572397 0.604503 -0.127263
C105  C     C_R   0.719631 0.038748 0.382383 0.002477
C106  C     C_R   0.281812 0.030032 0.618126 0.003230
C107  C     C_R   0.220423 0.529855 0.381903 0.005804
C108  C     C_R   0.780771 0.539312 0.617843 0.001403
C109  C     C_R   0.672258 0.990091 0.406845 -0.140720
C110  C     C_R   0.304120 0.938420 0.598077 -0.150709
C111  C     C_R   0.203519 0.434532 0.401117 -0.139774
C112  C     C_R   0.828002 0.490824 0.593233 -0.142607
C113  C     C_R   0.675799 0.973341 0.457935 -0.140823
C114  C     C_R   0.308473 0.926160 0.546736 -0.162784
C115  C     C_R   0.199076 0.421352 0.452255 -0.157125
C116  C     C_R   0.824596 0.474449 0.542063 -0.141651
C117  C     C_R   0.726908 0.004051 0.485094 0.035107
C118  C     C_R   0.290073 0.004712 0.514531 0.036786
C119  C     C_R   0.213358 0.501849 0.485219 0.031654
C120  C     C_R   0.773656 0.505124 0.515059 0.035273
C121  C     C_R   0.772288 0.062636 0.461836 0.008792
C122  C     C_R   0.273476 0.101126 0.534662 0.025300
C123  C     C_R   0.226317 0.600555 0.466113 0.013518
C124  C     C_R   0.728322 0.563225 0.538540 0.008393
C125  C     C_R   0.767677 0.079778 0.410500 -0.118152
C126  C     C_R   0.268160 0.111452 0.586455 -0.135691
C127  C     C_R   0.230838 0.612708 0.414363 -0.133043
C128  C     C_R   0.732947 0.580396 0.589923 -0.119093
C129  C     C_R   0.783456 0.891759 0.542193 -0.132170
C130  C     C_R   0.217057 0.984850 0.445223 -0.134838
C131  C     C_R   0.283662 0.488559 0.556440 -0.133063
C132  C     C_R   0.717369 0.391139 0.457870 -0.132534
C133  C     C_R   0.721701 0.348291 0.321289 0.530758
C134  C     C_R   0.278650 0.347756 0.677921 0.542512
C135  C     C_R   0.221253 0.847640 0.322162 0.523754
C136  C     C_R   0.778281 0.848105 0.678669 0.540622
C137  C     C_R   0.796148 0.854797 0.589410 -0.122270
C138  C     C_R   0.200414 0.947070 0.398685 -0.132313
C139  C     C_R   0.299502 0.451149 0.602997 -0.127601
C140  C     C_R   0.704446 0.354026 0.410540 -0.122218
C141  C     C_R   0.711006 0.948064 0.622182 -0.134452
C142  C     C_R   0.302117 0.888140 0.385591 -0.140592
C143  C     C_R   0.198383 0.386167 0.613622 -0.140064
C144  C     C_R   0.788643 0.450354 0.377752 -0.134870
C145  C     C_R   0.698709 0.986564 0.574598 -0.131170
C146  C     C_R   0.319061 0.927771 0.432312 -0.141078
C147  C     C_R   0.182173 0.425618 0.566850 -0.136117
C148  C     C_R   0.801187 0.488931 0.425455 -0.130441
C149  C     C_R   0.736270 0.960894 0.534883 0.019458
C150  C     C_R   0.276460 0.976615 0.462334 0.028761
C151  C     C_R   0.225130 0.476115 0.537843 0.026047
C152  C     C_R   0.764186 0.461751 0.465211 0.020119
C153  C     C_R   0.760780 0.884352 0.629622 0.034003
C154  C     C_R   0.242419 0.897008 0.368638 0.015554
C155  C     C_R   0.257577 0.397520 0.631701 0.016132
C156  C     C_R   0.739226 0.385074 0.370325 0.036116
C157  C     C_R   0.554065 0.158734 0.321327 0.531339
C158  C     C_R   0.445491 0.158368 0.678524 0.533358
C159  C     C_R   0.077914 0.656106 0.326967 0.532866
C160  C     C_R   0.946395 0.658283 0.678997 0.534744
C161  C     C_R   0.718604 0.050226 0.327900 0.567717
C162  C     C_R   0.281420 0.047845 0.672049 0.568097
C163  C     C_R   0.218965 0.548216 0.328146 0.544533
C164  C     C_R   0.781570 0.550231 0.672330 0.569930
C165  C     C_R   0.508652 0.067407 0.103304 0.095465
C166  C     C_R   0.496918 0.070343 0.894059 0.086325
C167  C     C_R   0.004903 0.570205 0.104194 0.091855
C168  C     C_R   0.993449 0.568717 0.895003 0.091619
C169  C     C_R   0.505161 0.066905 0.051047 0.022876
C170  C     C_R   0.501416 0.068443 0.946253 0.017432
C171  C     C_R   0.000256 0.569048 0.051952 0.024430
C172  C     C_R   0.996747 0.568091 0.947185 0.022203
C173  C     C_R   0.504726 0.975349 0.972223 -0.155800
C174  C     C_R   0.504119 0.974485 0.023872 -0.149022
C175  C     C_R   0.995966 0.475585 0.973763 -0.149218
C176  C     C_R   0.995405 0.476236 0.025374 -0.143464
Cr1   Cr    Cr6+3 0.756570 0.170940 0.251190 0.999684
Cr2   Cr    Cr6+3 0.243430 0.170940 0.748810 0.995572
Cr3   Cr    Cr6+3 0.256570 0.670940 0.251190 0.995928
Cr4   Cr    Cr6+3 0.743430 0.670940 0.748810 0.999195
Cr5   Cr    Cr6+3 0.623740 0.299110 0.249580 1.001446
Cr6   Cr    Cr6+3 0.376260 0.299110 0.750420 0.995644
Cr7   Cr    Cr6+3 0.123740 0.799110 0.249580 0.999057
Cr8   Cr    Cr6+3 0.876260 0.799110 0.750420 1.003379
Cr9   Cr    Cr6+3 0.625990 0.036240 0.250480 1.020226
Cr10  Cr    Cr6+3 0.374010 0.036240 0.749520 1.018040
Cr11  Cr    Cr6+3 0.125990 0.536240 0.250480 1.021051
Cr12  Cr    Cr6+3 0.874010 0.536240 0.749520 1.012533
H1    H     H_    0.853095 0.704397 0.899960 0.119453
H2    H     H_    0.192952 0.031425 0.141618 0.139556
H3    H     H_    0.357346 0.217987 0.900489 0.115793
H4    H     H_    0.685468 0.519488 0.131742 0.142563
H5    H     H_    0.668762 0.817983 0.040057 0.122536
H6    H     H_    0.369053 0.955210 0.976461 0.123280
H7    H     H_    0.167814 0.328524 0.038060 0.108982
H8    H     H_    0.851157 0.420837 0.971778 0.121032
H9    H     H_    0.654716 0.887535 0.123515 0.128253
H10   H     H_    0.369246 0.980745 0.886562 0.137476
H11   H     H_    0.154093 0.392374 0.122459 0.127770
H12   H     H_    0.856250 0.443876 0.882851 0.137010
H13   H     H_    0.528948 0.333016 0.374683 0.128066
H14   H     H_    0.515767 0.305359 0.633852 0.113763
H15   H     H_    0.021505 0.815478 0.374932 0.128288
H16   H     H_    0.985004 0.829500 0.629335 0.125171
H17   H     H_    0.430099 0.040082 0.520098 0.105385
H18   H     H_    0.502923 0.007882 0.466780 0.095312
H19   H     H_    0.000495 0.502972 0.534979 0.093731
H20   H     H_    0.073115 0.519248 0.481942 0.102881
H21   H     H_    0.415012 0.026258 0.607511 0.142845
H22   H     H_    0.520886 0.001317 0.379434 0.125741
H23   H     H_    0.974773 0.498181 0.620449 0.125697
H24   H     H_    0.092348 0.510486 0.394296 0.133477
H25   H     H_    0.503106 0.340126 0.462911 0.100162
H26   H     H_    0.539037 0.312384 0.544454 0.100872
H27   H     H_    0.992210 0.818731 0.462100 0.101071
H28   H     H_    0.020228 0.833746 0.543548 0.097477
H29   H     H_    0.633547 0.961417 0.386260 0.132473
H30   H     H_    0.317152 0.875482 0.622030 0.134220
H31   H     H_    0.193251 0.370424 0.376564 0.132412
H32   H     H_    0.866387 0.461797 0.613757 0.130949
H33   H     H_    0.811137 0.867942 0.511350 0.107776
H34   H     H_    0.182774 0.017119 0.468823 0.099970
H35   H     H_    0.318112 0.523187 0.533807 0.101731
H36   H     H_    0.690103 0.366447 0.488759 0.106588
H37   H     H_    0.833870 0.803479 0.594732 0.118181
H38   H     H_    0.153719 0.952896 0.387316 0.130654
H39   H     H_    0.345742 0.459904 0.615321 0.134153
H40   H     H_    0.667025 0.301477 0.405132 0.118645
H41   H     H_    0.505456 0.902093 0.953140 0.105396
H42   H     H_    0.504795 0.900591 0.042005 0.104192
H43   H     H_    0.993827 0.401817 0.955188 0.099456
H44   H     H_    0.993271 0.402899 0.043946 0.101863
H45   H     H_    0.640381 0.930440 0.475762 0.112099
H46   H     H_    0.322514 0.852629 0.532126 0.104766
H47   H     H_    0.186330 0.346894 0.466079 0.100207
H48   H     H_    0.859856 0.431606 0.524040 0.112262
H49   H     H_    0.661281 0.038218 0.568957 0.116519
H50   H     H_    0.364804 0.918195 0.445615 0.097994
H51   H     H_    0.137023 0.413505 0.552486 0.098446
H52   H     H_    0.838310 0.541806 0.431182 0.117022
H53   H     H_    0.683070 0.969987 0.653155 0.112536
H54   H     H_    0.335103 0.848707 0.363335 0.123974
H55   H     H_    0.165380 0.344497 0.634880 0.123205
H56   H     H_    0.816109 0.473306 0.346709 0.112067
H57   H     H_    0.802656 0.122757 0.392107 0.130460
H58   H     H_    0.254812 0.184123 0.602390 0.112170
H59   H     H_    0.240440 0.687556 0.399145 0.109008
H60   H     H_    0.698033 0.623102 0.608508 0.130922
H61   H     H_    0.467501 0.325457 0.878698 0.132359
H62   H     H_    0.531412 0.324533 0.122321 0.133003
H63   H     H_    0.976307 0.826771 0.876821 0.127821
H64   H     H_    0.035454 0.825462 0.121568 0.134031
H65   H     H_    0.488258 0.420856 0.956536 0.109458
H66   H     H_    0.511083 0.420251 0.045550 0.108400
H67   H     H_    0.001118 0.921512 0.953967 0.104581
H68   H     H_    0.019007 0.921195 0.044169 0.105026
H69   H     H_    0.698967 0.945979 0.961460 0.120246
H70   H     H_    0.325811 0.827762 0.032410 0.107885
H71   H     H_    0.193234 0.441812 0.959472 0.119261
H72   H     H_    0.809811 0.287699 0.028755 0.109953
H73   H     H_    0.714242 0.926051 0.871603 0.130824
H74   H     H_    0.303465 0.766460 0.115495 0.127533
H75   H     H_    0.208075 0.417135 0.869923 0.133862
H76   H     H_    0.799728 0.254523 0.116928 0.131254
H77   H     H_    0.851682 0.917391 0.041711 0.108210
H78   H     H_    0.180074 0.009958 0.979087 0.112120
H79   H     H_    0.350413 0.430169 0.040561 0.105710
H80   H     H_    0.659103 0.432227 0.965170 0.110854
O1    O     O_R   0.769900 0.064540 0.196060 -0.533106
O2    O     O_R   0.230100 0.064540 0.803940 -0.527963
O3    O     O_R   0.269900 0.564540 0.196060 -0.532953
O4    O     O_R   0.730100 0.564540 0.803940 -0.536320
O5    O     O_R   0.574760 0.239320 0.300850 -0.507485
O6    O     O_R   0.425240 0.239320 0.699150 -0.500204
O7    O     O_R   0.074760 0.739320 0.300850 -0.504087
O8    O     O_R   0.925240 0.739320 0.699150 -0.504591
O9    O     O_R   0.566290 0.069580 0.305400 -0.534281
O10   O     O_R   0.433710 0.069580 0.694600 -0.523232
O11   O     O_R   0.066290 0.569580 0.305400 -0.514119
O12   O     O_R   0.933710 0.569580 0.694600 -0.531943
O13   O     O_R   0.680760 0.993330 0.302620 -0.500829
O14   O     O_R   0.319240 0.993330 0.697380 -0.494642
O15   O     O_R   0.180760 0.493330 0.302620 -0.515089
O16   O     O_R   0.819240 0.493330 0.697380 -0.496980
O17   O     O_3   0.668770 0.168760 0.250420 -0.261501
O18   O     O_3   0.331230 0.168760 0.749580 -0.302621
O19   O     O_3   0.168770 0.668760 0.250420 -0.274734
O20   O     O_3   0.831230 0.668760 0.749580 -0.288156
O21   O     O_R   0.750800 0.274080 0.199250 -0.502398
O22   O     O_R   0.249200 0.274080 0.800750 -0.518036
O23   O     O_R   0.250800 0.774080 0.199250 -0.498901
O24   O     O_R   0.749200 0.774080 0.800750 -0.497872
O25   O     O_R   0.669990 0.371670 0.194150 -0.518611
O26   O     O_R   0.330010 0.371670 0.805850 -0.494051
O27   O     O_R   0.169990 0.871670 0.194150 -0.518894
O28   O     O_R   0.830010 0.871670 0.805850 -0.503814
O29   O     O_R   0.574600 0.238480 0.197800 -0.510735
O30   O     O_R   0.425400 0.238480 0.802200 -0.534330
O31   O     O_R   0.074600 0.738480 0.197800 -0.507297
O32   O     O_R   0.925400 0.738480 0.802200 -0.529870
O33   O     O_R   0.566130 0.068680 0.194240 -0.473247
O34   O     O_R   0.433870 0.068680 0.805760 -0.484182
O35   O     O_R   0.066130 0.568680 0.194240 -0.470335
O36   O     O_R   0.933870 0.568680 0.805760 -0.475014
O37   O     O_R   0.680610 0.992490 0.199570 -0.492419
O38   O     O_R   0.319390 0.992490 0.800430 -0.482377
O39   O     O_R   0.180610 0.492490 0.199570 -0.493512
O40   O     O_R   0.819390 0.492490 0.800430 -0.498735
O41   O     O_R   0.770060 0.065440 0.307230 -0.517424
O42   O     O_R   0.229940 0.065440 0.692770 -0.499198
O43   O     O_R   0.270060 0.565440 0.307230 -0.503623
O44   O     O_R   0.729940 0.565440 0.692770 -0.516850
O45   O     O_R   0.750960 0.274920 0.302300 -0.519497
O46   O     O_R   0.249040 0.274920 0.697700 -0.516525
O47   O     O_R   0.250960 0.774920 0.302300 -0.522680
O48   O     O_R   0.749040 0.774920 0.697700 -0.515585
O49   O     O_R   0.670160 0.372580 0.305320 -0.512695
O50   O     O_R   0.329840 0.372580 0.694680 -0.509612
O51   O     O_R   0.170160 0.872580 0.305320 -0.523355
O52   O     O_R   0.829840 0.872580 0.694680 -0.506751
N1    N     N_3   0.507763 0.979300 0.865075 -0.602126
H81   H     H_    0.475564 0.923724 0.873524 0.223486
H82   H     H_    0.550445 0.951404 0.874187 0.221867
N2    N     N_3   0.499797 0.974292 0.130830 -0.603275
H83   H     H_    0.533838 0.922447 0.122149 0.222911
H84   H     H_    0.458163 0.942589 0.120709 0.224137
N3    N     N_3   0.002336 0.475780 0.866934 -0.601587
H85   H     H_    0.968214 0.423432 0.875029 0.222776
H86   H     H_    0.043830 0.444468 0.877126 0.217439
N4    N     N_3   0.994468 0.478449 0.132380 -0.603924
H87   H     H_    0.026793 0.423813 0.123202 0.222811
H88   H     H_    0.951744 0.449862 0.123333 0.224309
C177  C     C_3   0.827054 0.103382 0.490016 -0.252276
C178  C     C_3   0.810362 0.184079 0.529230 -0.285050
C179  C     C_3   0.864647 0.212748 0.561743 -0.453750
H89   H     H_    0.882490 0.143766 0.580956 0.160205
H90   H     H_    0.900495 0.247126 0.538714 0.139991
H91   H     H_    0.851124 0.269247 0.590500 0.152505
H92   H     H_    0.793354 0.253816 0.510273 0.172253
H93   H     H_    0.774537 0.155099 0.553802 0.179790
H94   H     H_    0.859224 0.139328 0.463931 0.129525
H95   H     H_    0.851625 0.039110 0.507726 0.144951
C180  C     C_3   0.262110 0.194645 0.502715 -0.249912
C181  C     C_3   0.320467 0.247833 0.486845 -0.288104
C182  C     C_3   0.348286 0.197824 0.441134 -0.408862
H96   H     H_    0.369304 0.123834 0.451265 0.168540
H97   H     H_    0.313974 0.185139 0.411315 0.161865
H98   H     H_    0.383558 0.249007 0.426236 0.151867
H99   H     H_    0.310181 0.328719 0.477276 0.161710
H100  H     H_    0.353575 0.249631 0.518208 0.176508
H101  H     H_    0.236367 0.251021 0.524826 0.128321
H102  H     H_    0.233274 0.176950 0.469865 0.136831
C183  C     C_3   0.231772 0.694111 0.499736 -0.259877
C184  C     C_3   0.170708 0.720960 0.521968 -0.288067
C185  C     C_3   0.175561 0.805409 0.561289 -0.440175
H103  H     H_    0.209065 0.784700 0.590486 0.168504
H104  H     H_    0.188134 0.879025 0.543728 0.167598
H105  H     H_    0.131513 0.815840 0.579341 0.151736
H106  H     H_    0.140577 0.747811 0.491538 0.177564
H107  H     H_    0.150386 0.652260 0.539476 0.184726
H108  H     H_    0.247775 0.761212 0.478271 0.150431
H109  H     H_    0.265452 0.681062 0.529739 0.140937
C186  C     C_3   0.673392 0.602709 0.510604 -0.252456
C187  C     C_3   0.689742 0.683591 0.471687 -0.284768
C188  C     C_3   0.635338 0.710655 0.439276 -0.454496
H110  H     H_    0.617818 0.641112 0.419774 0.159244
H111  H     H_    0.599332 0.744146 0.462445 0.140569
H112  H     H_    0.648598 0.767425 0.410759 0.151918
H113  H     H_    0.706426 0.753867 0.490911 0.172806
H114  H     H_    0.725697 0.655442 0.447016 0.179648
H115  H     H_    0.641177 0.638046 0.536885 0.129479
H116  H     H_    0.648969 0.537793 0.492671 0.144211
C189  C     C_3   0.858292 0.995528 0.137164 -0.239070
C190  C     C_3   0.919962 0.977632 0.113798 -0.331398
C191  C     C_3   0.970349 0.019570 0.147379 -0.453666
H117  H     H_    0.963303 0.102435 0.155170 0.153099
H118  H     H_    0.971992 0.976943 0.183098 0.159157
H119  H     H_    0.014140 0.010727 0.128621 0.136165
H120  H     H_    0.926829 0.894117 0.108044 0.174775
H121  H     H_    0.922398 0.017714 0.077429 0.151805
H122  H     H_    0.851382 0.079848 0.139040 0.165545
H123  H     H_    0.860462 0.963957 0.175563 0.173385
C192  C     C_3   0.166130 0.092106 0.886221 -0.233370
C193  C     C_3   0.118491 0.128510 0.923438 -0.329674
C194  C     C_3   0.070961 0.194715 0.897852 -0.455334
H124  H     H_    0.091909 0.264705 0.882113 0.153620
H125  H     H_    0.048089 0.150723 0.867496 0.158858
H126  H     H_    0.036931 0.218595 0.925409 0.133674
H127  H     H_    0.095513 0.061172 0.939976 0.152905
H128  H     H_    0.140219 0.174933 0.953596 0.162339
H129  H     H_    0.181674 0.162311 0.866888 0.185226
H130  H     H_    0.144035 0.039334 0.858901 0.175213
C195  C     C_3   0.358041 0.498471 0.137393 -0.238267
C196  C     C_3   0.419660 0.480015 0.114186 -0.334036
C197  C     C_3   0.470174 0.518824 0.148531 -0.453813
H131  H     H_    0.463753 0.601377 0.157434 0.154217
H132  H     H_    0.471241 0.474104 0.183649 0.157292
H133  H     H_    0.514019 0.510092 0.129842 0.140247
H134  H     H_    0.425624 0.396582 0.107491 0.174159
H135  H     H_    0.422807 0.521977 0.078374 0.150967
H136  H     H_    0.351784 0.582891 0.139995 0.167038
H137  H     H_    0.359834 0.465278 0.175478 0.173611
C198  C     C_3   0.645928 0.488988 0.866132 -0.241023
C199  C     C_3   0.586043 0.473568 0.892387 -0.332702
C200  C     C_3   0.533964 0.506525 0.858417 -0.451118
H138  H     H_    0.540558 0.586746 0.845726 0.155274
H139  H     H_    0.530573 0.454999 0.825385 0.159320
H140  H     H_    0.491082 0.503396 0.878847 0.138298
H141  H     H_    0.580853 0.391388 0.902036 0.178794
H142  H     H_    0.584763 0.521279 0.926806 0.152394
H143  H     H_    0.648482 0.572091 0.857400 0.183944
H144  H     H_    0.644446 0.443742 0.830869 0.164468
N5    N     N_3   0.847506 0.706366 0.997795 -0.632532
H145  H     H_    0.876326 0.753877 0.018496 0.235698
H146  H     H_    0.819310 0.668130 0.022386 0.243265
N6    N     N_3   0.211281 0.123171 0.057540 -0.650636
H147  H     H_    0.229313 0.151214 0.024731 0.237974
H148  H     H_    0.165037 0.113952 0.051923 0.208297
N7    N     N_3   0.353449 0.225651 0.997948 -0.630246
H149  H     H_    0.382084 0.277288 0.016178 0.236537
H150  H     H_    0.328119 0.188069 0.024718 0.249858
N8    N     N_3   0.690689 0.580241 0.039075 -0.655121
H151  H     H_    0.718552 0.615061 0.013084 0.243571
H152  H     H_    0.650597 0.558626 0.021341 0.217417

loop_
_geom_bond_atom_site_label_1
_geom_bond_atom_site_label_2
_ccdc_geom_bond_type
C99   C103  A    
C7    C168  A    
C55   C59   A    
C126  H58   S    
C142  C146  A    
C77   C101  A    
C19   C20   A    
C53   C69   A    
C38   C70   S    
C50   H10   S    
C62   H2    S    
C177  C178  S    
C108  C164  S    
C86   H26   S    
Cr9   O33   S    
C192  H129  S    
Cr11  O35   S    
C26   C50   A    
C95   C99   A    
C78   C102  A    
C176  H44   S    
C29   C33   A    
C100  C104  A    
C138  H38   S    
C3    C74   S    
C9    C13   A    
C41   H5    S    
C21   H66   S    
C146  C150  A    
C195  C196  S    
C131  C151  A    
C178  H92   S    
C12   C16   A    
N2    H83   S    
C56   C72   A    
C169  C174  A    
C168  N3    S    
C133  O45   A    
C45   O29   A    
C134  O46   A    
C172  C175  A    
C141  C145  A    
C84   H16   S    
C162  O14   A    
C6    C165  A    
N5    H146  S    
C21   C22   A    
C61   H1    S    
C36   H80   S    
C56   H72   S    
C199  H142  S    
C41   C49   A    
C64   H4    S    
C18   C170  A    
C25   C29   A    
C44   H8    S    
N4    H87   S    
C27   C31   A    
C46   O30   A    
C28   C32   A    
C114  H46   S    
Cr10  O18   S    
C167  N4    S    
C179  H90   S    
C62   C66   A    
C167  C171  A    
Cr4   O48   S    
C98   C102  A    
Cr5   O49   S    
C60   C76   A    
Cr7   O51   S    
C15   C19   A    
C67   N7    S    
C78   C82   A    
C185  H103  S    
C54   C70   A    
C68   C72   A    
C180  H102  S    
C1    O21   A    
C182  H98   S    
C198  H144  S    
C186  H115  S    
C140  C156  A    
C135  O47   A    
C20   C172  A    
Cr11  O11   S    
C132  C152  A    
C188  H112  S    
C132  C140  A    
C192  C193  S    
C130  C138  A    
C124  C128  A    
Cr12  O12   S    
C181  H99   S    
C148  H52   S    
C84   C88   A    
Cr9   O9    S    
C191  H117  S    
C119  C123  A    
C26   C90   S    
C5    C46   S    
Cr1   O21   S    
C166  N1    S    
C105  C125  A    
N6    H147  S    
C8    C47   S    
C107  C127  A    
C200  H138  S    
C7    C48   S    
C79   C159  S    
C136  C153  S    
Cr1   O17   S    
C66   C70   A    
C184  H107  S    
C144  H56   S    
Cr3   O19   S    
C162  O42   A    
C190  H120  S    
C158  O10   A    
C196  C197  S    
C157  O9    A    
C179  H89   S    
C61   C65   A    
C129  C137  A    
C65   N5    S    
N1    H81   S    
C39   C71   S    
C117  C149  S    
C35   H79   S    
C48   O32   A    
C124  C186  S    
C55   C71   A    
C2    C75   S    
C194  H125  S    
C91   O39   A    
Cr12  O16   S    
C122  C126  A    
C198  C199  S    
C159  O11   A    
N7    H149  S    
C160  O12   A    
C6    C9    A    
Cr5   O5    S    
C49   H9    S    
C121  C125  A    
C12   H63   S    
Cr4   O24   S    
Cr1   O41   S    
C64   C68   A    
C59   H75   S    
Cr3   O43   S    
C65   C69   A    
C187  C188  S    
C164  O16   A    
C43   H7    S    
C118  C122  A    
C57   C73   A    
C190  C191  S    
C137  H37   S    
C133  O49   A    
C143  C155  A    
C78   C158  S    
C146  H50   S    
C87   C95   A    
C130  C150  A    
C23   C24   A    
C27   C91   S    
C2    O22   A    
C52   H12   S    
C45   O33   A    
C97   H18   S    
Cr12  O40   S    
C110  C114  A    
C121  C177  S    
C183  H108  S    
C44   C52   A    
Cr9   O37   S    
C79   C103  A    
Cr10  O34   S    
C111  H31   S    
C27   C51   A    
C25   C49   A    
C7    C12   A    
C140  H40   S    
C30   C34   A    
C195  H137  S    
C13   C21   A    
Cr1   O45   S    
C199  C200  S    
C10   C14   A    
C200  H140  S    
N3    H86   S    
C178  C179  S    
C142  H54   S    
C142  C154  A    
C116  C120  A    
C187  H113  S    
C144  C156  A    
C147  C151  A    
Cr8   O52   S    
C129  C149  A    
C37   C69   S    
C123  C127  A    
C139  C155  A    
C66   N6    S    
C17   C18   A    
C112  H32   S    
C5    C166  A    
C108  C128  A    
C174  H42   S    
C4    C73   S    
C51   H11   S    
C42   C50   A    
C113  C117  A    
C185  H104  S    
C107  C163  S    
C177  H95   S    
C166  C170  A    
C115  C119  A    
N8    H151  S    
C105  C161  S    
C93   C97   A    
C112  C116  A    
C58   C74   A    
C191  H119  S    
C105  C109  A    
Cr6   O50   S    
C1    C76   S    
C107  C111  A    
C148  C152  A    
C23   H68   S    
Cr1   O1    S    
C102  H21   S    
C26   C30   A    
C164  O44   A    
Cr3   O3    S    
C171  C176  A    
C11   H64   S    
C1    O25   A    
C14   C22   A    
C9    H62   S    
C3    O27   A    
C193  H127  S    
Cr8   O32   S    
C135  O51   A    
C63   C75   A    
C136  O52   A    
C96   C100  A    
C55   H71   S    
C37   C41   A    
C131  C139  A    
C178  H93   S    
C40   C44   A    
C181  C182  S    
N2    H84   S    
C184  C185  S    
C131  H35   S    
C138  C154  A    
C29   C189  S    
C81   C85   A    
Cr10  O10   S    
C83   C87   A    
C88   C96   A    
N5    H145  S    
C6    C45   S    
Cr2   O22   S    
C133  C156  S    
C60   H76   S    
C125  H57   S    
Cr7   O27   S    
C80   C84   A    
C115  H47   S    
C183  C184  S    
C90   O2    A    
Cr2   O18   S    
C113  H45   S    
C57   H73   S    
C135  C154  S    
N4    H88   S    
C80   C104  A    
N7    H150  S    
C196  H134  S    
C157  O5    A    
C92   O4    A    
C197  H133  S    
C161  O13   A    
C80   C160  S    
C94   C98   A    
C139  H39   S    
C118  C150  S    
C14   C18   A    
C22   H65   S    
Cr12  O20   S    
C180  H101  S    
C186  C187  S    
C160  O8    A    
C182  H97   S    
C198  H143  S    
C189  H123  S    
Cr5   O17   S    
Cr6   O6    S    
Cr7   O19   S    
C58   H74   S    
C165  C169  A    
Cr8   O28   S    
Cr2   O42   S    
Cr6   O26   S    
Cr7   O31   S    
C100  H19   S    
C181  H100  S    
C53   H69   S    
C130  H34   S    
C192  H130  S    
C83   H15   S    
Cr6   O30   S    
C53   C57   A    
C81   H13   S    
C92   O40   A    
C61   C73   A    
C82   C86   A    
C141  H53   S    
C56   C60   A    
C33   H77   S    
N6    H148  S    
C47   O31   A    
C4    O24   A    
C123  C183  S    
C8    C167  A    
C89   O37   A    
C77   C81   A    
C116  H48   S    
Cr10  O38   S    
C190  H121  S    
C143  H55   S    
Cr4   O4    S    
C147  H51   S    
Cr5   O29   S    
C31   C35   A    
C127  H59   S    
C199  H141  S    
C163  O43   A    
Cr2   O46   S    
C32   C36   A    
C82   H14   S    
C194  H124  S    
Cr5   O25   S    
Cr11  O15   S    
C132  H36   S    
C179  H91   S    
C188  H110  S    
C197  H131  S    
C13   C17   A    
C31   C195  S    
C106  C126  A    
C25   C89   S    
C99   H20   S    
C188  H111  S    
N3    H85   S    
C79   C83   A    
C43   C51   A    
C63   H3    S    
C67   C71   A    
C106  C162  S    
C193  H128  S    
C33   C37   A    
C186  H116  S    
C108  C112  A    
C168  C172  A    
C87   H27   S    
C62   C74   A    
C145  C149  A    
Cr2   O2    S    
C68   N8    S    
C170  C173  A    
Cr8   O8    S    
C180  C181  S    
C93   C94   S    
C197  H132  S    
C2    O26   A    
C35   C39   A    
C95   C96   S    
C3    O23   A    
C144  C148  A    
C141  C153  A    
C193  C194  S    
C134  O50   A    
C173  C174  A    
C136  O48   A    
C143  C147  A    
C89   O1    A    
C195  H136  S    
C19   C171  A    
C38   C42   A    
C91   O3    A    
C200  H139  S    
Cr12  O36   S    
C17   C169  A    
C184  H106  S    
C187  H114  S    
C42   H6    S    
C117  C121  A    
C30   C192  S    
Cr9   O17   S    
C86   C94   A    
C106  C110  A    
Cr11  O19   S    
C175  C176  A    
N1    H82   S    
C145  H49   S    
C98   H17   S    
Cr3   O23   S    
Cr10  O14   S    
C16   C20   A    
C194  H126  S    
C15   C23   A    
C177  H94   S    
Cr8   O20   S    
C40   C72   S    
N8    H152  S    
C85   C93   A    
C158  O6    A    
C191  H118  S    
C119  C151  S    
C63   C67   A    
C120  C152  S    
C175  H43   S    
C137  C153  A    
C128  H60   S    
C165  N2    S    
Cr4   O44   S    
C36   C40   A    
C109  H29   S    
C122  C180  S    
C129  H33   S    
C39   C43   A    
Cr4   O20   S    
C24   H67   S    
C46   O34   A    
C85   H25   S    
Cr6   O18   S    
Cr7   O7    S    
C64   C76   A    
C28   C92   S    
C32   C198  S    
C114  C118  A    
C173  H41   S    
C183  H109  S    
C163  O15   A    
C11   C15   A    
C161  O41   A    
C59   C75   A    
C54   C58   A    
C134  C155  S    
C88   H28   S    
C34   C38   A    
C34   H78   S    
C47   O35   A    
C4    O28   A    
C48   O36   A    
C103  H24   S    
C90   O38   A    
C109  C113  A    
C101  H22   S    
C10   H61   S    
C159  O7    A    
Cr11  O39   S    
C5    C10   A    
C196  H135  S    
C189  C190  S    
C28   C52   A    
Cr9   O13   S    
C8    C11   A    
C54   H70   S    
C110  H30   S    
Cr3   O47   S    
C185  H105  S    
C16   C24   A    
C111  C115  A    
C104  H23   S    
C182  H96   S    
C189  H122  S    
C97   C101  A    
C120  C124  A    
C77   C157  S    
