data_mof_unit_5685.cif
_audit_creation_date              2012-12-11T16:07:22-0500
_audit_creation_method            fapswitch 2.2
_symmetry_space_group_name_H-M    P1
_symmetry_Int_Tables_number       1
_space_group_crystal_system       triclinic
_cell_length_a                    17.135833
_cell_length_b                    17.394552
_cell_length_c                    17.431537
_cell_angle_alpha                 90.159398
_cell_angle_beta                  89.991103
_cell_angle_gamma                 90.147167
_cell_volume                      5195.78333895

loop_
_atom_site_label
_atom_site_type_symbol
_atom_type_description
_atom_site_fract_x
_atom_site_fract_y
_atom_site_fract_z
_atom_type_partial_charge
C1    C     C_R   0.418388 0.674268 0.641466 -0.170134
C2    C     C_R   0.606048 0.698371 0.601461 -0.158471
C3    C     C_3   0.685705 0.224450 0.742331 0.105130
C4    C     C_3   0.769166 0.707444 0.288314 0.159340
C5    C     C_3   0.177756 0.274848 0.676918 0.100387
C6    C     C_3   0.750467 0.187979 0.346962 0.162003
C7    C     C_3   0.311603 0.778082 0.742458 0.103167
C8    C     C_3   0.729303 0.796355 0.769105 0.112152
C9    C     C_3   0.305041 0.256116 0.155157 0.113323
C10   C     C_3   0.765821 0.320113 0.835148 0.096507
C11   C     C_3   0.205362 0.723863 0.226593 0.113037
C12   C     C_3   0.280689 0.181713 0.747075 0.101666
C13   C     C_R   0.699380 0.396582 0.396740 -0.155273
C14   C     C_3   0.695446 0.746522 0.158154 0.104997
C15   C     C_3   0.232465 0.679374 0.832682 0.092768
C16   C     C_3   0.794866 0.275465 0.226942 0.112163
C17   C     C_3   0.198363 0.312428 0.367402 -0.285560
C18   C     C_3   0.117900 0.279136 0.384501 -0.974138
C19   C     C_3   0.864018 0.727191 0.579278 -0.293860
C20   C     C_3   0.951436 0.743398 0.585910 -0.984571
C21   C     C_3   0.280659 0.850877 0.420654 -0.305834
C22   C     C_3   0.241163 0.926289 0.442823 -0.933673
C23   C     C_3   0.637824 0.169243 0.691684 -0.321798
C24   C     C_R   0.327142 0.581067 0.643099 -0.110994
C25   C     C_3   0.662119 0.085272 0.697899 -0.958838
C26   C     C_3   0.806258 0.684939 0.366052 -0.285074
C27   C     C_3   0.888729 0.715535 0.378992 -0.976275
C28   C     C_3   0.123575 0.331332 0.635921 -0.331211
C29   C     C_3   0.037516 0.314554 0.649196 -0.955975
C30   C     C_3   0.719991 0.149866 0.421082 -0.305659
C31   C     C_3   0.760470 0.075405 0.443493 -0.937927
C32   C     C_3   0.359296 0.835359 0.693821 -0.312075
C33   C     C_3   0.333006 0.918789 0.702551 -0.965392
C34   C     C_3   0.678265 0.823090 0.837017 -0.264926
C35   C     C_R   0.575557 0.667618 0.354676 -0.129491
C36   C     C_3   0.592722 0.798830 0.830297 -0.997190
C37   C     C_3   0.340448 0.230264 0.078092 -0.313547
C38   C     C_3   0.419747 0.266508 0.061273 -0.961331
C39   C     C_3   0.815735 0.368567 0.890450 -0.331826
C40   C     C_3   0.791312 0.452296 0.894259 -0.951074
C41   C     C_3   0.175587 0.674677 0.158840 -0.334690
C42   C     C_3   0.213310 0.595828 0.154549 -0.924128
C43   C     C_3   0.339052 0.127172 0.785873 -0.322139
C44   C     C_3   0.424273 0.144809 0.767530 -0.972282
C45   C     C_3   0.657714 0.773563 0.082798 -0.308077
C46   C     C_R   0.391143 0.301879 0.599411 -0.166396
C47   C     C_3   0.579680 0.734400 0.066266 -0.957573
C48   C     C_3   0.184592 0.626716 0.885567 -0.327060
C49   C     C_3   0.208845 0.542458 0.880815 -0.938851
C50   C     C_3   0.823897 0.324213 0.158802 -0.331228
C51   C     C_3   0.785088 0.402546 0.153825 -0.924422
C52   C     C_3   0.707390 0.639187 0.780219 -0.275451
C53   C     C_3   0.702861 0.639646 0.867786 -0.947397
C54   C     C_3   0.316807 0.414030 0.147241 -0.282234
C55   C     C_3   0.282170 0.428811 0.068138 -0.959545
C56   C     C_3   0.614611 0.374195 0.859753 -0.303928
C57   C     C_R   0.300685 0.603381 0.396563 -0.156384
C58   C     C_3   0.604318 0.368803 0.946472 -0.945569
C59   C     C_3   0.362668 0.695412 0.218670 -0.284473
C60   C     C_3   0.377046 0.715124 0.134723 -0.999463
C61   C     C_3   0.350018 0.322935 0.779022 -0.281610
C62   C     C_3   0.361535 0.317284 0.865649 -0.932217
C63   C     C_3   0.682591 0.589011 0.145430 -0.289268
C64   C     C_3   0.717920 0.575460 0.066267 -0.941251
C65   C     C_3   0.384096 0.625645 0.854799 -0.295858
C66   C     C_3   0.392533 0.627063 0.941919 -0.933376
C67   C     C_3   0.637291 0.302278 0.218963 -0.282926
C68   C     C_R   0.670621 0.421247 0.644687 -0.109188
C69   C     C_3   0.623064 0.281422 0.135180 -1.001117
C70   C     C_3   0.880214 0.350308 0.334376 -0.323969
C71   C     C_3   0.897822 0.349699 0.420297 -0.962983
C72   C     C_3   0.158224 0.640108 0.702108 -0.295358
C73   C     C_3   0.163476 0.644569 0.614464 -0.917709
C74   C     C_3   0.596821 0.820931 0.252746 -0.311840
C75   C     C_3   0.588860 0.851115 0.335277 -0.968937
C76   C     C_3   0.295017 0.121601 0.602628 -0.302816
C77   C     C_3   0.291423 0.149332 0.519636 -0.954930
C78   C     C_3   0.119802 0.650356 0.334036 -0.323539
C79   C     C_R   0.915781 0.174417 0.141356 -0.166174
C80   C     C_3   0.102709 0.651336 0.419909 -0.968724
C81   C     C_3   0.837174 0.364490 0.705269 -0.296392
C82   C     C_3   0.834244 0.357616 0.617545 -0.911091
C83   C     C_3   0.405422 0.180471 0.246989 -0.316833
C84   C     C_3   0.413039 0.147628 0.328246 -0.977826
C85   C     C_3   0.649007 0.874488 0.663778 -0.328162
C86   C     C_3   0.647620 0.896730 0.579229 -0.942649
C87   C     C_3   0.226170 0.136497 0.302167 -0.324859
C88   C     C_3   0.140145 0.113038 0.294730 -0.918142
C89   C     C_3   0.841291 0.912446 0.645354 -0.297012
C90   C     C_R   0.107469 0.802023 0.898807 -0.202872
C91   C     C_3   0.850596 0.915762 0.558157 -0.929800
C92   C     C_3   0.089245 0.833831 0.352370 -0.315399
C93   C     C_3   0.075613 0.917595 0.330683 -0.931722
C94   C     C_3   0.835836 0.172518 0.712457 -0.260747
C95   C     C_3   0.832413 0.168049 0.624842 -0.907803
C96   C     C_3   0.776531 0.861125 0.309910 -0.314163
C97   C     C_3   0.861248 0.887282 0.299036 -0.923041
C98   C     C_3   0.106007 0.133174 0.650374 -0.295687
C99   C     C_3   0.094814 0.132630 0.563544 -0.934757
C100  C     C_3   0.912087 0.167680 0.352902 -0.310210
C101  C     C_R   0.194924 0.105887 0.113071 -0.153524
C102  C     C_3   0.926300 0.083739 0.331817 -0.934788
C103  C     C_3   0.161234 0.830362 0.715445 -0.268909
C104  C     C_3   0.162486 0.834658 0.627834 -0.923980
C105  C     C_3   0.380650 0.816948 0.878429 -0.324186
C106  C     C_3   0.361394 0.818161 0.964164 -0.919218
C107  C     C_3   0.658497 0.122165 0.234090 -0.317580
C108  C     C_3   0.667892 0.041656 0.264607 -1.002021
C109  C     C_3   0.161740 0.338191 0.817331 -0.299153
C110  C     C_3   0.171731 0.321775 0.903162 -0.911054
C111  C     C_3   0.871463 0.639142 0.189154 -0.305954
C112  C     C_R   0.610101 0.303095 0.398738 -0.198159
C113  C     C_R   0.829446 0.919754 0.855236 -0.169310
C114  C     C_3   0.877509 0.563953 0.233556 -0.953448
C115  C     C_3   0.617124 0.181934 0.877529 -0.312307
C116  C     C_3   0.636756 0.178482 0.963141 -0.917154
C117  C     C_3   0.343038 0.875801 0.232680 -0.316204
C118  C     C_3   0.334963 0.956283 0.263821 -1.006446
C119  C     C_3   0.900160 0.672543 0.751604 -0.320809
C120  C     C_3   0.899603 0.637031 0.831518 -0.969796
C121  C     C_3   0.127677 0.360102 0.192396 -0.307431
C122  C     C_3   0.121184 0.434578 0.238341 -0.954000
C123  C     C_R   0.084887 0.825178 0.140766 -0.164007
C124  C     C_R   0.892983 0.197253 0.896570 -0.199489
C125  C     C_R   0.805716 0.895081 0.114849 -0.156767
C126  C     C_R   0.177105 0.083062 0.860348 -0.173676
C127  C     C_R   0.921092 0.827658 0.857253 -0.138756
C128  C     C_R   0.101829 0.196171 0.109739 -0.160705
C129  C     C_R   0.198490 0.893628 0.896353 -0.148272
C130  C     C_R   0.820257 0.085012 0.137220 -0.162336
C131  C     C_R   0.083571 0.174027 0.858396 -0.110845
C132  C     C_R   0.698662 0.608637 0.602015 -0.192890
C133  C     C_R   0.898647 0.804529 0.110970 -0.164143
C134  C     C_R   0.801652 0.105650 0.895074 -0.147256
C135  C     C_R   0.180323 0.914685 0.136791 -0.163856
C136  C     C_3   0.316869 0.314815 0.263155 -0.152592
C137  C     C_3   0.731160 0.736304 0.660862 -0.150432
C138  C     C_3   0.263107 0.725152 0.336395 -0.137957
C139  C     C_3   0.685599 0.313781 0.739465 -0.143805
C140  C     C_3   0.684500 0.685391 0.264551 -0.151260
C141  C     C_3   0.265612 0.268182 0.659588 -0.121786
C142  C     C_3   0.737197 0.274729 0.336714 -0.138244
C143  C     C_R   0.333422 0.423663 0.353088 -0.168906
C144  C     C_3   0.311598 0.688980 0.736645 -0.142893
C145  C     C_3   0.817606 0.813011 0.758993 -0.161414
C146  C     C_3   0.221750 0.232987 0.178523 -0.146197
C147  C     C_3   0.765611 0.231513 0.837553 -0.132032
C148  C     C_3   0.192824 0.811201 0.235129 -0.097218
C149  C     C_3   0.192225 0.188164 0.764277 -0.144444
C150  C     C_3   0.779219 0.768630 0.180936 -0.143151
C151  C     C_3   0.232690 0.767856 0.838290 -0.129687
C152  C     C_3   0.808144 0.188307 0.235879 -0.096606
C153  C     C_R   0.355559 0.645073 0.680938 0.096681
C154  C     C_R   0.579007 0.328874 0.643553 -0.171854
C155  C     C_R   0.686828 0.321041 0.382913 0.110388
C156  C     C_R   0.682799 0.685227 0.615918 0.107554
C157  C     C_R   0.364629 0.362377 0.312928 0.095737
C158  C     C_R   0.641112 0.358666 0.684116 0.092215
C159  C     C_R   0.313274 0.678925 0.382789 0.111550
C160  C     C_R   0.313648 0.316476 0.611960 0.138398
C161  C     C_R   0.636381 0.637617 0.313460 0.093723
C162  C     C_R   0.849387 0.146822 0.177110 0.140613
C163  C     C_R   0.184411 0.816804 0.884598 0.134080
C164  C     C_R   0.174982 0.180391 0.134100 0.148518
C165  C     C_R   0.390009 0.696836 0.398734 -0.196857
C166  C     C_R   0.859702 0.856784 0.816545 0.100419
C167  C     C_R   0.151616 0.852554 0.176271 0.140375
C168  C     C_R   0.815833 0.182096 0.881838 0.127594
C169  C     C_R   0.825984 0.821022 0.136626 0.144706
C170  C     C_R   0.149053 0.145987 0.821660 0.109932
C171  C     C_3   0.744368 0.712345 0.745105 0.173189
C172  C     C_3   0.287712 0.338950 0.183333 0.165305
C173  C     C_3   0.675634 0.318257 0.827130 0.174689
C174  C     C_3   0.290013 0.735522 0.252797 0.138927
C175  C     C_3   0.284881 0.270340 0.746293 0.166841
C176  C     C_R   0.300467 0.393245 0.600367 -0.199919
C177  C     C_3   0.712318 0.662962 0.183730 0.165525
C178  C     C_3   0.322461 0.681842 0.823909 0.169710
C179  C     C_3   0.710332 0.263280 0.253216 0.139053
C180  C     C_3   0.822003 0.287245 0.310419 0.091285
C181  C     C_3   0.221625 0.686526 0.744923 0.136469
C182  C     C_3   0.668547 0.769073 0.239834 0.096554
C183  C     C_3   0.261198 0.179643 0.660464 0.147929
C184  C     C_3   0.178232 0.713048 0.310122 0.092837
C185  C     C_3   0.775662 0.315620 0.747089 0.129754
C186  C     C_3   0.333159 0.231866 0.235774 0.100224
C187  C     C_R   0.667333 0.576439 0.353489 -0.167306
C188  C     C_3   0.716117 0.820447 0.685196 0.149825
C189  C     C_3   0.249121 0.209527 0.258765 0.177848
C190  C     C_3   0.804319 0.837460 0.675350 0.167160
C191  C     C_3   0.164739 0.800533 0.318531 0.173954
C192  C     C_3   0.775367 0.227097 0.749641 0.170517
C193  C     C_3   0.753035 0.790421 0.262278 0.177269
C194  C     C_3   0.172692 0.185895 0.678136 0.163839
C195  C     C_3   0.836159 0.199962 0.319186 0.172668
C196  C     C_3   0.221993 0.774977 0.750622 0.168079
C197  C     C_3   0.321943 0.770747 0.830096 0.143741
C198  C     C_R   0.424821 0.332153 0.354575 -0.132817
C199  C     C_3   0.722635 0.176486 0.262999 0.130092
C200  C     C_3   0.197057 0.276927 0.763447 0.137209
C201  C     C_3   0.796832 0.685065 0.207095 0.145278
C202  C     C_3   0.676027 0.229132 0.830306 0.143145
C203  C     C_3   0.278466 0.822518 0.262191 0.128805
C204  C     C_3   0.832361 0.728275 0.734782 0.157498
C205  C     C_3   0.203702 0.315667 0.207512 0.141303
C206  C     C_3   0.232725 0.291524 0.287671 0.161711
C207  C     C_3   0.818730 0.752833 0.650567 0.107179
C208  C     C_3   0.250487 0.812176 0.346297 0.161293
H1    H     H_    0.455301 0.722158 0.656153 0.093746
H2    H     H_    0.576003 0.752399 0.598804 0.123021
H3    H     H_    0.544946 0.770793 0.026990 0.248868
H4    H     H_    0.647891 0.836458 0.086407 0.171897
H5    H     H_    0.698258 0.763097 0.034222 0.183334
H6    H     H_    0.223715 0.525649 0.821237 0.244596
H7    H     H_    0.259801 0.531180 0.918065 0.275251
H8    H     H_    0.160018 0.505806 0.901240 0.256733
H9    H     H_    0.189998 0.646943 0.945849 0.191895
H10   H     H_    0.122370 0.630313 0.868481 0.171660
H11   H     H_    0.730992 0.399702 0.119156 0.278130
H12   H     H_    0.770819 0.424448 0.211802 0.250703
H13   H     H_    0.753750 0.427720 0.396417 0.118586
H14   H     H_    0.825284 0.443108 0.124798 0.261441
H15   H     H_    0.887518 0.333937 0.165565 0.172455
H16   H     H_    0.814334 0.292909 0.103989 0.187588
H17   H     H_    0.697209 0.580009 0.888752 0.258999
H18   H     H_    0.650135 0.669983 0.888022 0.277192
H19   H     H_    0.754706 0.666811 0.894224 0.270884
H20   H     H_    0.647176 0.631445 0.757999 0.184150
H21   H     H_    0.741456 0.588626 0.760726 0.167574
H22   H     H_    0.291040 0.378954 0.029852 0.269455
H23   H     H_    0.218950 0.440599 0.072020 0.267887
H24   H     H_    0.280018 0.543702 0.660156 0.108663
H25   H     H_    0.311231 0.479568 0.042212 0.255656
H26   H     H_    0.302571 0.462668 0.185755 0.179989
H27   H     H_    0.381371 0.411911 0.142716 0.187095
H28   H     H_    0.576673 0.422277 0.968176 0.249235
H29   H     H_    0.661039 0.361196 0.976035 0.273030
H30   H     H_    0.565042 0.320308 0.960902 0.278632
H31   H     H_    0.631800 0.433728 0.844181 0.191935
H32   H     H_    0.557474 0.362512 0.831913 0.173710
H33   H     H_    0.321676 0.721033 0.102885 0.282459
H34   H     H_    0.410303 0.769586 0.130102 0.257012
H35   H     H_    0.535471 0.711738 0.338572 0.131204
H36   H     H_    0.412170 0.668938 0.107606 0.270295
H37   H     H_    0.415482 0.712299 0.251313 0.168701
H38   H     H_    0.355980 0.632272 0.224833 0.198592
H39   H     H_    0.423027 0.331136 0.880305 0.249616
H40   H     H_    0.348288 0.258929 0.887344 0.272069
H41   H     H_    0.324649 0.360145 0.895278 0.271926
H42   H     H_    0.406044 0.308404 0.750825 0.185955
H43   H     H_    0.336870 0.383632 0.764246 0.174523
H44   H     H_    0.716611 0.628357 0.031308 0.273150
H45   H     H_    0.779098 0.556094 0.070892 0.266440
H46   H     H_    0.420070 0.246819 0.601088 0.104273
H47   H     H_    0.684053 0.529983 0.036285 0.253303
H48   H     H_    0.695658 0.539243 0.182709 0.180473
H49   H     H_    0.618129 0.592203 0.140358 0.189116
H50   H     H_    0.421219 0.573323 0.961238 0.248438
H51   H     H_    0.335055 0.631624 0.970759 0.268816
H52   H     H_    0.430238 0.675753 0.959738 0.277871
H53   H     H_    0.368465 0.566574 0.835919 0.190067
H54   H     H_    0.441574 0.639755 0.828775 0.175531
H55   H     H_    0.678407 0.275788 0.103183 0.282571
H56   H     H_    0.590545 0.226501 0.130913 0.254823
H57   H     H_    0.246357 0.572166 0.395741 0.118180
H58   H     H_    0.587259 0.326875 0.108001 0.271844
H59   H     H_    0.584702 0.285222 0.251754 0.168910
H60   H     H_    0.643308 0.365546 0.224774 0.198786
H61   H     H_    0.843991 0.340063 0.454196 0.273710
H62   H     H_    0.940380 0.304055 0.434390 0.258892
H63   H     H_    0.923845 0.405681 0.437457 0.259342
H64   H     H_    0.935625 0.342348 0.302283 0.181144
H65   H     H_    0.856773 0.407230 0.317961 0.195399
H66   H     H_    0.108133 0.666115 0.590316 0.255262
H67   H     H_    0.211796 0.682316 0.595012 0.275791
H68   H     H_    0.717386 0.459134 0.661554 0.111348
H69   H     H_    0.172243 0.586407 0.589565 0.240371
H70   H     H_    0.161118 0.578981 0.719491 0.173590
H71   H     H_    0.100260 0.661562 0.720907 0.170647
H72   H     H_    0.618358 0.813374 0.377417 0.263623
H73   H     H_    0.614582 0.909074 0.340960 0.264126
H74   H     H_    0.526156 0.855798 0.350705 0.250336
H75   H     H_    0.600562 0.870790 0.213447 0.183285
H76   H     H_    0.543392 0.788855 0.236371 0.175951
H77   H     H_    0.237416 0.182092 0.508043 0.276273
H78   H     H_    0.341931 0.186736 0.506301 0.256243
H79   H     H_    0.951864 0.222334 0.158369 0.090778
H80   H     H_    0.294068 0.098939 0.480568 0.253395
H81   H     H_    0.356526 0.108469 0.616494 0.189137
H82   H     H_    0.261898 0.066932 0.607953 0.182756
H83   H     H_    0.157085 0.658562 0.453493 0.275994
H84   H     H_    0.062621 0.698875 0.434435 0.257845
H85   H     H_    0.074181 0.596539 0.436740 0.261226
H86   H     H_    0.064307 0.658548 0.302225 0.181707
H87   H     H_    0.142848 0.593232 0.317526 0.196529
H88   H     H_    0.885572 0.326469 0.595547 0.261572
H89   H     H_    0.781424 0.326912 0.597127 0.271631
H90   H     H_    0.078070 0.747211 0.898554 0.097018
H91   H     H_    0.835381 0.415705 0.591259 0.238783
H92   H     H_    0.830024 0.425585 0.721982 0.170232
H93   H     H_    0.895494 0.346880 0.726135 0.177171
H94   H     H_    0.385883 0.185501 0.371833 0.267285
H95   H     H_    0.384380 0.090986 0.332488 0.266653
H96   H     H_    0.475623 0.139663 0.342658 0.253146
H97   H     H_    0.402628 0.131872 0.205709 0.185085
H98   H     H_    0.458526 0.213926 0.232750 0.177426
H99   H     H_    0.687935 0.945451 0.569237 0.272254
H100  H     H_    0.663737 0.847500 0.541820 0.261028
H101  H     H_    0.251294 0.078719 0.118275 0.089127
H102  H     H_    0.588107 0.916161 0.563372 0.253316
H103  H     H_    0.592601 0.847573 0.679068 0.186941
H104  H     H_    0.654448 0.926895 0.699394 0.188021
H105  H     H_    0.102459 0.162113 0.278836 0.277684
H106  H     H_    0.133075 0.067722 0.250393 0.265276
H107  H     H_    0.119129 0.089017 0.349965 0.256224
H108  H     H_    0.262123 0.090250 0.278839 0.196043
H109  H     H_    0.241275 0.144116 0.363430 0.200200
H110  H     H_    0.904450 0.885933 0.539754 0.271710
H111  H     H_    0.800339 0.889688 0.527813 0.266634
H112  H     H_    0.582558 0.247206 0.396644 0.094312
H113  H     H_    0.783070 0.957195 0.836943 0.087975
H114  H     H_    0.856523 0.976534 0.540149 0.249221
H115  H     H_    0.804698 0.961346 0.664792 0.177410
H116  H     H_    0.899892 0.920094 0.671578 0.182325
H117  H     H_    0.038684 0.945219 0.375032 0.252065
H118  H     H_    0.131388 0.949333 0.326342 0.277853
H119  H     H_    0.044836 0.921404 0.274807 0.273197
H120  H     H_    0.038857 0.799555 0.331446 0.185470
H121  H     H_    0.091199 0.828359 0.415712 0.191570
H122  H     H_    0.837403 0.107229 0.606096 0.241929
H123  H     H_    0.777244 0.191561 0.601870 0.269119
H124  H     H_    0.048853 0.777296 0.157643 0.090374
H125  H     H_    0.882505 0.198915 0.599104 0.252208
H126  H     H_    0.895387 0.190776 0.730108 0.168961
H127  H     H_    0.826418 0.113810 0.735584 0.180720
H128  H     H_    0.883655 0.912190 0.353478 0.257851
H129  H     H_    0.899824 0.839335 0.281628 0.277752
H130  H     H_    0.864841 0.932420 0.254381 0.265354
H131  H     H_    0.738169 0.908329 0.293276 0.198154
H132  H     H_    0.765439 0.849068 0.371496 0.188255
H133  H     H_    0.035525 0.110743 0.549615 0.250027
H134  H     H_    0.100943 0.191174 0.539427 0.269470
H135  H     H_    0.922970 0.251650 0.894892 0.090212
H136  H     H_    0.137555 0.093568 0.535998 0.271642
H137  H     H_    0.117683 0.073468 0.669695 0.172754
H138  H     H_    0.050906 0.151930 0.678151 0.191110
H139  H     H_    0.963685 0.057030 0.376203 0.252124
H140  H     H_    0.870776 0.051512 0.328020 0.278136
H141  H     H_    0.956795 0.079408 0.275797 0.273635
H142  H     H_    0.962101 0.202018 0.331386 0.184789
H143  H     H_    0.910466 0.174063 0.416204 0.191450
H144  H     H_    0.147119 0.893757 0.609288 0.244155
H145  H     H_    0.220537 0.820265 0.604036 0.270185
H146  H     H_    0.749347 0.922198 0.120324 0.091462
H147  H     H_    0.118160 0.795613 0.602960 0.268512
H148  H     H_    0.101857 0.812893 0.734304 0.170429
H149  H     H_    0.171926 0.888929 0.738614 0.186111
H150  H     H_    0.321884 0.770263 0.979931 0.275025
H151  H     H_    0.415996 0.813821 0.997878 0.249036
H152  H     H_    0.333294 0.872950 0.980989 0.247106
H153  H     H_    0.438296 0.790048 0.870012 0.192474
H154  H     H_    0.385130 0.876859 0.857559 0.188298
H155  H     H_    0.730670 0.027438 0.267144 0.269446
H156  H     H_    0.641942 0.037626 0.322670 0.276322
H157  H     H_    0.225590 0.046586 0.846520 0.091078
H158  H     H_    0.637455 0.000499 0.226184 0.257777
H159  H     H_    0.600557 0.143957 0.252512 0.192364
H160  H     H_    0.659331 0.120934 0.170504 0.193606
H161  H     H_    0.211398 0.272714 0.913844 0.272892
H162  H     H_    0.194715 0.373527 0.932637 0.249124
H163  H     H_    0.114498 0.308910 0.930086 0.241758
H164  H     H_    0.189752 0.393924 0.803367 0.177254
H165  H     H_    0.098751 0.345145 0.805086 0.176509
H166  H     H_    0.906805 0.573475 0.289517 0.269148
H167  H     H_    0.819172 0.539226 0.244143 0.256170
H168  H     H_    0.959727 0.781665 0.842437 0.124734
H169  H     H_    0.913463 0.522195 0.200842 0.256250
H170  H     H_    0.873719 0.627032 0.126760 0.180138
H171  H     H_    0.923586 0.673840 0.204014 0.165466
H172  H     H_    0.678354 0.224406 0.979842 0.274261
H173  H     H_    0.582562 0.184473 0.997374 0.251528
H174  H     H_    0.662581 0.122252 0.978460 0.244655
H175  H     H_    0.559007 0.208742 0.870432 0.182283
H176  H     H_    0.612701 0.122547 0.854917 0.186353
H177  H     H_    0.272281 0.970338 0.267916 0.270182
H178  H     H_    0.362113 0.960146 0.321412 0.277277
H179  H     H_    0.073023 0.250711 0.105094 0.083981
H180  H     H_    0.364629 0.997436 0.224938 0.259293
H181  H     H_    0.400914 0.853332 0.250344 0.193060
H182  H     H_    0.341348 0.876985 0.169096 0.193928
H183  H     H_    0.885452 0.679493 0.876731 0.265520
H184  H     H_    0.856864 0.589589 0.833664 0.281554
H185  H     H_    0.957969 0.612440 0.843999 0.247078
H186  H     H_    0.897876 0.624689 0.709296 0.186407
H187  H     H_    0.956291 0.702984 0.742660 0.181034
H188  H     H_    0.093684 0.423651 0.294884 0.268649
H189  H     H_    0.179199 0.460537 0.247766 0.255436
H190  H     H_    0.253200 0.923873 0.891038 0.103453
H191  H     H_    0.083522 0.476004 0.207323 0.256963
H192  H     H_    0.123482 0.373067 0.130335 0.179566
H193  H     H_    0.076977 0.323713 0.208136 0.166939
H194  H     H_    0.768498 0.051765 0.146717 0.129182
H195  H     H_    0.047957 0.222459 0.842387 0.099839
H196  H     H_    0.754774 0.580539 0.604736 0.090556
H197  H     H_    0.927255 0.749957 0.106100 0.084265
H198  H     H_    0.746908 0.075333 0.890065 0.103882
H199  H     H_    0.232032 0.948120 0.146559 0.128923
H200  H     H_    0.078708 0.283969 0.334359 0.266789
H201  H     H_    0.122615 0.218659 0.403114 0.280755
H202  H     H_    0.091186 0.311472 0.432785 0.250970
H203  H     H_    0.239515 0.293306 0.412699 0.185944
H204  H     H_    0.192735 0.375468 0.372330 0.189706
H205  H     H_    0.963692 0.794533 0.622223 0.276743
H206  H     H_    0.980887 0.692976 0.611287 0.253848
H207  H     H_    0.285408 0.459577 0.335876 0.088127
H208  H     H_    0.976681 0.753487 0.528268 0.255077
H209  H     H_    0.855328 0.664767 0.569409 0.173360
H210  H     H_    0.839557 0.757631 0.529149 0.205515
H211  H     H_    0.244184 0.969041 0.396187 0.268867
H212  H     H_    0.179697 0.916552 0.459642 0.274596
H213  H     H_    0.271553 0.951000 0.493504 0.249904
H214  H     H_    0.272430 0.810329 0.469132 0.181235
H215  H     H_    0.344171 0.861629 0.414858 0.179906
H216  H     H_    0.680563 0.069915 0.756795 0.246777
H217  H     H_    0.611577 0.048841 0.681345 0.258470
H218  H     H_    0.540491 0.282659 0.659250 0.094535
H219  H     H_    0.710258 0.072285 0.657646 0.275776
H220  H     H_    0.576151 0.172943 0.710148 0.181823
H221  H     H_    0.641864 0.186809 0.630647 0.191905
H222  H     H_    0.924060 0.713327 0.326094 0.265157
H223  H     H_    0.887315 0.775057 0.401485 0.277535
H224  H     H_    0.918221 0.679375 0.422508 0.263950
H225  H     H_    0.767974 0.705164 0.413383 0.173601
H226  H     H_    0.809878 0.621735 0.370140 0.189196
H227  H     H_    0.026213 0.294242 0.708382 0.247095
H228  H     H_    0.004480 0.368409 0.639566 0.263376
H229  H     H_    0.417676 0.752640 0.396602 0.093370
H230  H     H_    0.016075 0.270685 0.608094 0.271573
H231  H     H_    0.135713 0.389934 0.658318 0.171534
H232  H     H_    0.135777 0.330448 0.573349 0.193750
H233  H     H_    0.757679 0.031907 0.397283 0.273738
H234  H     H_    0.821891 0.086388 0.459573 0.271626
H235  H     H_    0.730777 0.051342 0.494615 0.251460
H236  H     H_    0.727319 0.190945 0.469450 0.181661
H237  H     H_    0.656670 0.138231 0.414828 0.181041
H238  H     H_    0.284206 0.931612 0.663046 0.271073
H239  H     H_    0.314252 0.931450 0.762017 0.248220
H240  H     H_    0.245652 0.423265 0.600714 0.092313
H241  H     H_    0.381989 0.957834 0.687389 0.254573
H242  H     H_    0.421187 0.832232 0.712382 0.169444
H243  H     H_    0.355924 0.819227 0.632260 0.188914
H244  H     H_    0.557178 0.846679 0.807029 0.245539
H245  H     H_    0.584590 0.747917 0.792758 0.270567
H246  H     H_    0.570149 0.785206 0.888312 0.260590
H247  H     H_    0.703647 0.800756 0.891086 0.192700
H248  H     H_    0.678581 0.886515 0.840759 0.165723
H249  H     H_    0.457664 0.264391 0.112404 0.266069
H250  H     H_    0.448334 0.234481 0.013876 0.254579
H251  H     H_    0.715257 0.540282 0.336315 0.087803
H252  H     H_    0.413817 0.326994 0.042796 0.278495
H253  H     H_    0.347877 0.166971 0.079082 0.172145
H254  H     H_    0.299450 0.243877 0.030797 0.189463
H255  H     H_    0.838228 0.486516 0.922104 0.260677
H256  H     H_    0.780196 0.475070 0.836016 0.254005
H257  H     H_    0.738351 0.458660 0.929708 0.276660
H258  H     H_    0.812611 0.343616 0.948993 0.195084
H259  H     H_    0.877207 0.367154 0.870683 0.174004
H260  H     H_    0.227624 0.574765 0.212682 0.250501
H261  H     H_    0.172484 0.555108 0.126319 0.263201
H262  H     H_    0.464805 0.287760 0.338637 0.131522
H263  H     H_    0.267304 0.597698 0.119680 0.277961
H264  H     H_    0.111871 0.665789 0.165752 0.173007
H265  H     H_    0.185509 0.705141 0.103783 0.188041
H266  H     H_    0.432727 0.159353 0.706410 0.249232
H267  H     H_    0.445266 0.193272 0.803058 0.268142
H268  H     H_    0.460731 0.093994 0.781319 0.257140
H269  H     H_    0.331571 0.129610 0.849056 0.188982
H270  H     H_    0.326214 0.068067 0.765938 0.182185
H271  H     H_    0.588453 0.678131 0.037669 0.274024
H272  H     H_    0.546064 0.725507 0.119722 0.266592
N1    N     N_R   0.424590 0.632770 0.578330 -0.035812
N2    N     N_R   0.575410 0.632770 0.578330 -0.039456
N3    N     N_R   0.632770 0.424590 0.421670 -0.037193
N4    N     N_R   0.367230 0.575410 0.578330 -0.041256
N5    N     N_R   0.575410 0.632770 0.421670 -0.041758
N6    N     N_R   0.424590 0.367230 0.578330 -0.039328
N7    N     N_R   0.367230 0.575410 0.421670 -0.036973
N8    N     N_R   0.632770 0.424590 0.578330 -0.041844
N9    N     N_R   0.924590 0.132770 0.078330 -0.035898
N10   N     N_R   0.075410 0.867230 0.921670 -0.035466
N11   N     N_R   0.132770 0.075410 0.078330 -0.040532
N12   N     N_R   0.575410 0.367230 0.421670 -0.034346
N13   N     N_R   0.867230 0.924590 0.921670 -0.038702
N14   N     N_R   0.075410 0.867230 0.078330 -0.035271
N15   N     N_R   0.924590 0.132770 0.921670 -0.035587
N16   N     N_R   0.867230 0.924590 0.078330 -0.040366
N17   N     N_R   0.132770 0.075410 0.921670 -0.038522
N18   N     N_R   0.924590 0.867230 0.921670 -0.041990
N19   N     N_R   0.075410 0.132770 0.078330 -0.035928
N20   N     N_R   0.132770 0.924590 0.921670 -0.041015
N21   N     N_R   0.867230 0.075410 0.078330 -0.039619
N22   N     N_R   0.075410 0.132770 0.921670 -0.042190
N23   N     N_R   0.632770 0.575410 0.578330 -0.036801
N24   N     N_R   0.924590 0.867230 0.078330 -0.035580
N25   N     N_R   0.867230 0.075410 0.921670 -0.040334
N26   N     N_R   0.132770 0.924590 0.078330 -0.039486
N27   N     N_R   0.367230 0.424590 0.421670 -0.036876
N28   N     N_R   0.575410 0.367230 0.578330 -0.035925
N29   N     N_R   0.424590 0.632770 0.421670 -0.034699
N30   N     N_R   0.367230 0.424590 0.578330 -0.037171
N31   N     N_R   0.632770 0.575410 0.421670 -0.037526
N32   N     N_R   0.424590 0.367230 0.421670 -0.041395
Ni1   Ni    Ni4+2 0.500000 0.631570 0.500000 0.201981
Ni2   Ni    Ni4+2 0.500000 0.368430 0.500000 0.200394
Ni3   Ni    Ni4+2 0.631570 0.500000 0.500000 0.200053
Ni4   Ni    Ni4+2 0.368430 0.500000 0.500000 0.200603
Ni5   Ni    Ni4+2 0.000000 0.131570 0.000000 0.198834
Ni6   Ni    Ni4+2 0.000000 0.868430 0.000000 0.201054
Ni7   Ni    Ni4+2 0.131570 0.000000 0.000000 0.199296
Ni8   Ni    Ni4+2 0.868430 0.000000 0.000000 0.199111

loop_
_geom_bond_atom_site_label_1
_geom_bond_atom_site_label_2
_ccdc_geom_bond_type
C118  H178  S    
C22   H212  S    
C151  C197  S    
C65   H54   S    
C61   C175  S    
C31   H233  S    
C15   C151  S    
C109  C200  S    
C50   H16   S    
C60   H33   S    
C17   C206  S    
C154  C158  A    
C116  H173  S    
C115  C202  S    
C30   H237  S    
C65   C178  S    
C83   H97   S    
C10   C185  S    
C1    N1    A    
C53   H17   S    
C124  C168  A    
C107  H159  S    
C19   C20   S    
C61   H42   S    
N8    Ni3   S    
C138  C174  S    
C45   H5    S    
C143  C157  A    
C129  N20   A    
C121  C205  S    
C125  C169  A    
N24   Ni6   S    
C16   C179  S    
C119  H187  S    
C148  C191  S    
C86   H100  S    
C57   C159  A    
C122  H188  S    
C59   C60   S    
C70   H65   S    
C21   C22   S    
N13   Ni8   S    
C97   H129  S    
C102  H139  S    
C68   C158  A    
N2    Ni1   S    
C14   C182  S    
C108  H158  S    
C17   H203  S    
C5    C200  S    
C145  C166  S    
C45   C47   S    
C45   H4    S    
C39   H259  S    
N17   N22   A    
C89   H115  S    
C113  C166  A    
C128  N19   A    
C120  H185  S    
C122  H189  S    
C73   H69   S    
C17   H204  S    
C1    H1    S    
C110  H163  S    
C151  C196  S    
C7    C197  S    
C43   C44   S    
C37   C38   S    
C99   H134  S    
N27   Ni4   S    
N30   Ni4   S    
C189  C206  S    
C71   H61   S    
C46   C160  A    
C184  C191  S    
N20   Ni7   S    
N22   Ni5   S    
C84   H94   S    
C96   C193  S    
C6    C30   S    
C144  C178  S    
C74   H75   S    
C38   H250  S    
N14   Ni6   S    
C103  C196  S    
C187  H251  S    
C108  H156  S    
C185  C192  S    
C98   H137  S    
C2    C156  A    
C136  C186  S    
C114  H169  S    
C34   H247  S    
C56   H32   S    
C119  C204  S    
C77   H77   S    
C72   C73   S    
N6    N30   A    
C81   H93   S    
C101  N11   A    
N23   Ni3   S    
C49   H7    S    
C100  H142  S    
C40   H255  S    
C53   H19   S    
C95   H122  S    
C46   N6    A    
C78   H87   S    
C44   H267  S    
C123  H124  S    
C32   H243  S    
C88   H105  S    
C59   H38   S    
C72   H70   S    
C26   H226  S    
N7    N29   A    
C132  H196  S    
N10   Ni6   S    
C133  H197  S    
C79   N9    A    
C98   C99   S    
N16   N24   A    
C3    C202  S    
N15   Ni5   S    
C67   C179  S    
C150  C201  S    
C7    C196  S    
C112  N12   A    
C39   H258  S    
C5    C194  S    
C35   N5    A    
N5    Ni1   S    
C139  C185  S    
C35   H35   S    
C47   H3    S    
C145  C190  S    
C70   C180  S    
C111  C201  S    
C126  N17   A    
C4    C201  S    
N2    N23   A    
C69   H55   S    
C85   C86   S    
C110  H161  S    
C129  C163  A    
C35   C161  A    
C18   H201  S    
N13   N18   A    
C172  C205  S    
C66   H52   S    
C20   H205  S    
C71   H62   S    
C97   H128  S    
C6    C199  S    
C91   H110  S    
C78   C80   S    
C52   H21   S    
C12   C183  S    
C98   C194  S    
C115  C116  S    
C5    C28   S    
C9    C146  S    
C128  C164  A    
C183  C194  S    
C188  C190  S    
C157  C198  A    
C25   H217  S    
C171  C204  S    
C181  C196  S    
C116  H172  S    
C64   H44   S    
C126  H157  S    
C5    C141  S    
C104  H144  S    
C142  C180  S    
C83   C84   S    
C89   C190  S    
C143  H207  S    
C23   H221  S    
C89   C91   S    
C105  H154  S    
C76   H82   S    
C21   H215  S    
C92   C191  S    
N3    Ni3   S    
C137  C188  S    
C165  H229  S    
C90   H90   S    
C104  H145  S    
C92   H120  S    
C55   H22   S    
C37   H253  S    
C15   C48   S    
C146  C205  S    
C135  H199  S    
C9    C37   S    
N5    N31   A    
C85   H104  S    
C79   H79   S    
C134  C168  A    
C176  N30   A    
C54   C172  S    
C106  H151  S    
C9    C186  S    
C39   C40   S    
C138  C208  S    
C80   H84   S    
C134  N25   A    
C51   H11   S    
C24   N4    A    
C146  C164  S    
C112  C155  A    
C88   H107  S    
C140  C182  S    
C159  C165  A    
C141  C183  S    
C47   H272  S    
C126  C170  A    
C130  H194  S    
C62   H40   S    
C63   H48   S    
C136  C172  S    
C73   H66   S    
C117  H181  S    
C17   C18   S    
C83   C186  S    
C8    C34   S    
N11   N19   A    
N8    N28   A    
C28   H231  S    
C57   N7    A    
C177  C201  S    
C176  H240  S    
C3    C139  S    
C54   H26   S    
C134  H198  S    
C115  H175  S    
C52   C53   S    
C90   N10   A    
N9    Ni5   S    
C64   H45   S    
C148  C167  S    
C54   C55   S    
C11   C174  S    
N11   Ni7   S    
C127  H168  S    
C22   H213  S    
C178  C197  S    
C65   H53   S    
C11   C184  S    
C13   H13   S    
C66   H50   S    
C38   H249  S    
N4    Ni4   S    
C74   C182  S    
C112  H112  S    
C203  C208  S    
C60   H34   S    
C94   H126  S    
C33   H239  S    
C75   H72   S    
C64   H47   S    
C113  N13   A    
C116  H174  S    
C117  C118  S    
C136  C206  S    
C67   H60   S    
N27   N32   A    
C127  N18   A    
C85   C188  S    
C18   H200  S    
C105  C197  S    
C132  C156  A    
C56   C58   S    
C34   C36   S    
C61   C62   S    
N26   Ni7   S    
C95   H123  S    
C63   C64   S    
N29   Ni1   S    
C190  C207  S    
C43   H270  S    
C44   H266  S    
C36   H245  S    
C104  H147  S    
C32   H242  S    
C41   H264  S    
C135  C167  A    
N21   Ni8   S    
C113  H113  S    
C16   C180  S    
C30   H236  S    
C19   H210  S    
C87   C88   S    
N15   N25   A    
C58   H29   S    
C41   C42   S    
C102  H140  S    
C59   C174  S    
C93   H118  S    
C108  H155  S    
N28   Ni2   S    
C48   H10   S    
C8    C188  S    
C75   H74   S    
C26   C27   S    
C114  H166  S    
C21   C208  S    
C28   C29   S    
C16   C50   S    
C72   C181  S    
C58   H28   S    
C63   H49   S    
C137  C207  S    
C30   C31   S    
C121  H193  S    
C187  N31   A    
C198  H262  S    
N1    N4    A    
C2    N2    A    
C198  N32   A    
C133  C169  A    
C99   H133  S    
C93   H119  S    
C144  C181  S    
C91   H111  S    
C52   H20   S    
C92   H121  S    
N6    Ni2   S    
N32   Ni2   S    
C27   H224  S    
C146  C189  S    
C70   C71   S    
C7    C32   S    
C14   C45   S    
C76   C183  S    
C152  C195  S    
C48   H9    S    
C120  H183  S    
C10   C173  S    
C74   H76   S    
C118  H177  S    
N14   N26   A    
C22   H211  S    
N16   Ni8   S    
C31   H234  S    
C6    C195  S    
C98   H138  S    
C4    C193  S    
N31   Ni3   S    
C50   H15   S    
C60   H36   S    
C23   H220  S    
C133  N24   A    
C55   H23   S    
C81   H92   S    
C69   H58   S    
C82   H91   S    
C83   H98   S    
C49   H6    S    
C29   H228  S    
C152  C199  S    
C173  C202  S    
C56   C173  S    
C40   H256  S    
C150  C193  S    
C34   H248  S    
C53   H18   S    
C37   H254  S    
C44   H268  S    
C204  C207  S    
C61   H43   S    
C20   H208  S    
C14   C150  S    
C88   H106  S    
C50   C51   S    
N18   Ni6   S    
C59   H37   S    
C182  C193  S    
C1    C153  A    
C121  C122  S    
C180  C195  S    
C143  N27   A    
C48   C49   S    
C97   H130  S    
C79   C162  A    
C24   C153  A    
C154  H218  S    
C100  C195  S    
C42   H263  S    
C89   H116  S    
C12   C149  S    
C101  C164  A    
C24   H24   S    
C103  H149  S    
C145  C204  S    
C4    C26   S    
C119  C120  S    
C131  H195  S    
C105  C106  S    
C110  H162  S    
N12   Ni2   S    
C18   H202  S    
C90   C163  A    
C123  N14   A    
C32   C33   S    
C186  C189  S    
N1    Ni1   S    
C161  C187  A    
C20   H206  S    
C109  C110  S    
C111  H170  S    
C25   H219  S    
C179  C199  S    
C127  C166  A    
C15   C181  S    
C27   H222  S    
C92   C93   S    
C130  N21   A    
C111  C114  S    
C25   H216  S    
C94   C95   S    
C11   C148  S    
C6    C142  S    
C147  C168  S    
C149  C200  S    
C125  H146  S    
C103  C104  S    
C124  N15   A    
C10   C39   S    
C9    C172  S    
C82   H88   S    
C129  H190  S    
C51   H14   S    
C3    C192  S    
C105  H153  S    
C40   H257  S    
C46   H46   S    
C152  C162  S    
C21   H214  S    
N10   N20   A    
C107  C199  S    
C36   H244  S    
C131  C170  A    
C87   H108  S    
C131  N22   A    
C138  C184  S    
C56   H31   S    
C3    C23   S    
C77   H78   S    
C81   C82   S    
C82   H89   S    
C85   H103  S    
C205  C206  S    
N3    N12   A    
C49   H8    S    
C125  N16   A    
N9    N21   A    
C106  H152  S    
C12   C43   S    
C78   H86   S    
C150  C169  S    
C135  N26   A    
C128  H179  S    
C42   H260  S    
C107  H160  S    
C26   H225  S    
C144  C153  S    
C91   H114  S    
C47   H271  S    
C13   C155  A    
C103  H148  S    
C119  H186  S    
C138  C159  S    
C62   H41   S    
C139  C158  S    
C13   N3    A    
C142  C155  S    
C87   H109  S    
C10   C147  S    
C87   C189  S    
C123  C167  A    
C132  N23   A    
C28   H232  S    
C57   H57   S    
C42   H261  S    
C84   H96   S    
C19   C207  S    
C160  C176  A    
C154  N28   A    
C54   H27   S    
C55   H25   S    
C52   C171  S    
C81   C185  S    
C7    C144  S    
C140  C177  S    
C69   H56   S    
C165  N29   A    
C2    H2    S    
C118  H180  S    
C74   C75   S    
C149  C170  S    
C76   C77   S    
C16   C152  S    
C66   H51   S    
C29   H227  S    
C31   H235  S    
C41   H265  S    
C140  C161  S    
C94   H127  S    
C68   N8    A    
C137  C156  S    
C67   C69   S    
C38   H252  S    
C149  C194  S    
C4    C140  S    
C84   H95   S    
C67   H59   S    
C80   H85   S    
C141  C160  S    
C70   H64   S    
C142  C179  S    
C68   H68   S    
C147  C192  S    
C107  C108  S    
C96   C97   S    
C8    C145  S    
C100  C102  S    
C109  H165  S    
C96   H131  S    
C76   H81   S    
C12   C175  S    
C96   H132  S    
C136  C157  S    
C43   H269  S    
C36   H246  S    
C151  C163  S    
C139  C173  S    
C77   H80   S    
C141  C175  S    
C19   H209  S    
C86   H102  S    
C86   H99   S    
C100  H143  S    
C147  C202  S    
C106  H150  S    
C102  H141  S    
C78   C184  S    
C124  H135  S    
C95   H125  S    
C93   H117  S    
C8    C171  S    
C80   H83   S    
C51   H12   S    
N7    Ni4   S    
C75   H73   S    
C114  H167  S    
C63   C177  S    
C72   H71   S    
C33   H241  S    
C117  C203  S    
C121  H192  S    
C130  C162  A    
C62   H39   S    
C122  H191  S    
C73   H67   S    
C117  H182  S    
C174  C203  S    
C11   C41   S    
C191  C208  S    
C23   C25   S    
N25   Ni8   S    
C94   C192  S    
C175  C200  S    
C137  C171  S    
C14   C177  S    
C99   H136  S    
C111  H171  S    
C101  H101  S    
C71   H63   S    
C65   C66   S    
N17   Ni7   S    
C15   C178  S    
C27   H223  S    
C29   H230  S    
C109  H164  S    
N19   Ni5   S    
C58   H30   S    
C115  H176  S    
C148  C203  S    
C33   H238  S    
C120  H184  S    
