data_mof_unit_21429.cif
_audit_creation_date              2012-12-11T15:42:41-0500
_audit_creation_method            fapswitch 2.2
_symmetry_space_group_name_H-M    P1
_symmetry_Int_Tables_number       1
_space_group_crystal_system       triclinic
_cell_length_a                    6.931943
_cell_length_b                    14.542604
_cell_length_c                    16.207662
_cell_angle_alpha                 90.411937
_cell_angle_beta                  89.887251
_cell_angle_gamma                 89.970798
_cell_volume                      1633.82451141

loop_
_atom_site_label
_atom_site_type_symbol
_atom_type_description
_atom_site_fract_x
_atom_site_fract_y
_atom_site_fract_z
_atom_type_partial_charge
O1    O     O_R   0.505810 0.583360 0.413880 -0.541314
O2    O     O_R   0.175870 0.595480 0.585520 -0.544053
O3    O     O_R   0.005540 0.416640 0.586120 -0.541152
C1    C     C_R   0.344721 0.617963 0.614304 0.711534
O4    O     O_R   0.176100 0.594390 0.414490 -0.543721
O5    O     O_R   0.005770 0.415540 0.413870 -0.541142
C2    C     C_R   0.345254 0.616513 0.385760 0.684382
O6    O     O_R   0.505580 0.584460 0.586130 -0.540394
O7    O     O_3   0.339190 0.441320 0.500000 -0.369618
V1    V     V_3+5 0.064350 0.510890 0.500000 1.398099
O8    O     O_R   0.676050 0.404520 0.414480 -0.544230
C3    C     C_R   0.845225 0.382061 0.385747 0.685189
O9    O     O_R   0.675830 0.405610 0.585510 -0.539600
C4    C     C_R   0.845065 0.383334 0.613471 0.748660
V2    V     V_3+5 0.564340 0.489110 0.500000 1.401461
O10   O     O_3   0.839370 0.558680 0.500000 -0.372435
C5    C     C_2   0.721213 0.205912 0.783803 -0.133544
C6    C     C_2   0.885843 0.181232 0.822105 -0.315416
H1    H     H_    0.585871 0.175291 0.803305 0.133392
H2    H     H_    0.022972 0.210769 0.804440 0.129353
C7    C     C_2   0.708479 0.274455 0.715939 -0.135293
C8    C     C_2   0.861746 0.314635 0.679894 -0.307205
H3    H     H_    0.564426 0.291868 0.694920 0.134522
H4    H     H_    0.007003 0.297530 0.698792 0.128941
C9    C     C_R   0.047345 0.222886 0.219270 -0.156244
H5    H     H_    0.188146 0.204294 0.195385 0.116960
C10   C     C_R   0.036193 0.286874 0.284074 -0.151586
H6    H     H_    0.168927 0.315771 0.307949 0.118985
C11   C     C_R   0.856539 0.313253 0.317395 -0.045484
C12   C     C_R   0.688352 0.273850 0.284071 -0.156155
H7    H     H_    0.547553 0.292437 0.307961 0.116840
C13   C     C_R   0.699504 0.209860 0.219267 -0.151453
H8    H     H_    0.566772 0.180958 0.195395 0.118445
C14   C     C_R   0.879154 0.183515 0.185919 -0.045356
C15   C     C_R   0.191602 0.710957 0.728972 -0.160329
H9    H     H_    0.052699 0.680645 0.714933 0.143519
C16   C     C_R   0.205190 0.772955 0.795306 -0.206124
H10   H     H_    0.076543 0.787859 0.830815 0.191703
C17   C     C_R   0.382297 0.814085 0.816619 -0.157584
C18   C     C_R   0.546963 0.792394 0.767988 0.432166
C19   C     C_R   0.533192 0.727377 0.703794 -0.219623
H11   H     H_    0.662629 0.709811 0.669571 0.133657
C20   C     C_R   0.355862 0.686706 0.682809 -0.114647
C21   C     C_R   0.188474 0.723313 0.283924 -0.156189
H12   H     H_    0.047642 0.704971 0.307641 0.116540
C22   C     C_R   0.199690 0.786415 0.219165 -0.150216
H13   H     H_    0.066940 0.814866 0.195193 0.118712
C23   C     C_R   0.379354 0.812465 0.185971 -0.046060
C24   C     C_R   0.547489 0.773647 0.219502 -0.154998
H14   H     H_    0.688318 0.792003 0.195790 0.116824
C25   C     C_R   0.536273 0.710543 0.284265 -0.151507
H15   H     H_    0.669017 0.682097 0.308248 0.118722
C26   C     C_R   0.356598 0.684454 0.317423 -0.046781
O11   O     O_R   0.230120 0.912300 0.917180 -0.542991
O12   O     O_R   0.559740 0.902430 0.088770 -0.543805
O13   O     O_R   0.729930 0.081310 0.089370 -0.542076
C27   C     C_R   0.390629 0.880324 0.117563 0.685347
O14   O     O_R   0.559840 0.901330 0.917750 -0.519357
O15   O     O_R   0.730030 0.080210 0.917120 -0.541367
C28   C     C_R   0.391493 0.880031 0.887860 0.705928
O16   O     O_R   0.230020 0.913400 0.089430 -0.541312
O17   O     O_3   0.396460 0.055470 0.003290 -0.373167
V3    V     V_3+5 0.671360 0.985960 0.003250 1.424813
O18   O     O_R   0.059740 0.091300 0.917690 -0.545095
C29   C     C_R   0.891079 0.113236 0.889467 0.725754
O19   O     O_R   0.059640 0.092400 0.088720 -0.544438
C30   C     C_R   0.890470 0.114778 0.117509 0.683992
V4    V     V_3+5 0.171350 0.007820 0.003190 1.400305
O20   O     O_3   0.896380 0.938200 0.003220 -0.365152
O21   O     O_3   0.726284 0.829206 0.785429 -0.583193
C31   C     C_3   0.743583 0.917433 0.749781 0.111205
H16   H     H_    0.847377 0.956896 0.788142 0.143837
H17   H     H_    0.605900 0.957321 0.750286 0.082562
C32   C     C_3   0.824873 0.910901 0.661973 -0.358343
H18   H     H_    0.959180 0.869171 0.662072 0.210527
H19   H     H_    0.718241 0.876840 0.620886 0.187190
C33   C     C_3   0.870016 0.006166 0.628016 -0.816269
H20   H     H_    0.737449 0.049093 0.626968 0.235437
H21   H     H_    0.926466 0.999537 0.564102 0.231272
H22   H     H_    0.980844 0.040826 0.666652 0.229243

loop_
_geom_bond_atom_site_label_1
_geom_bond_atom_site_label_2
_ccdc_geom_bond_type
O19   V4    S    
C3    C11   S    
C10   C11   A    
C19   H11   S    
C15   H9    S    
C1    O6    A    
C23   C27   S    
O11   C28   A    
C33   H20   S    
C6    C29   S    
C11   C12   A    
C18   O21   S    
O18   V4    S    
C15   C16   A    
O5    C3    A    
C12   H7    S    
O11   V4    S    
O14   C28   A    
V2    O10   S    
O8    V2    S    
C21   C26   A    
V3    O20   S    
V4    O20   S    
C24   C25   A    
C32   C33   S    
O12   V3    S    
O21   C31   S    
O1    V2    S    
C15   C20   A    
O7    V1    S    
C9    C14   A    
O19   C30   A    
O9    C4    A    
C19   C20   A    
C21   C22   A    
C33   H21   S    
C22   C23   A    
C32   H18   S    
C25   H15   S    
C17   C18   A    
C31   H17   S    
C9    H5    S    
C5    C7    S    
C25   C26   A    
C13   C14   A    
O2    C1    A    
C16   H10   S    
O17   V3    S    
C5    C6    D    
O13   V3    S    
O12   C27   A    
O3    C4    A    
C32   H19   S    
C23   C24   A    
O6    V2    S    
O9    V2    S    
C8    H4    S    
C2    C26   S    
O2    V1    S    
C21   H12   S    
O4    C2    A    
C33   H22   S    
O14   V3    S    
C22   H13   S    
C18   C19   A    
O1    C2    A    
C14   C30   S    
O5    V1    S    
C31   C32   S    
O8    C3    A    
C27   O16   A    
C1    C20   S    
C9    C10   A    
O13   C30   A    
O15   V3    S    
O17   V4    S    
C13   H8    S    
C4    C8    S    
C7    H3    S    
O7    V2    S    
C31   H16   S    
C16   C17   A    
O3    V1    S    
V1    O10   S    
O18   C29   A    
C12   C13   A    
O16   V4    S    
C17   C28   S    
C5    H1    S    
C6    H2    S    
O4    V1    S    
C24   H14   S    
C10   H6    S    
C7    C8    D    
O15   C29   A    
