data_mof_unit_29965.cif
_audit_creation_date              2012-10-26T18:34:24-0400
_audit_creation_method            fapswitch 2.2
_symmetry_space_group_name_H-M    P1
_symmetry_Int_Tables_number       1
_space_group_crystal_system       triclinic
_cell_length_a                    10.768837
_cell_length_b                    9.53746
_cell_length_c                    9.075012
_cell_angle_alpha                 89.924035
_cell_angle_beta                  90.185712
_cell_angle_gamma                 89.977908
_cell_volume                      932.064666919

loop_
_atom_site_label
_atom_site_type_symbol
_atom_type_description
_atom_site_fract_x
_atom_site_fract_y
_atom_site_fract_z
_atom_type_partial_charge
Br1   Br    Br    0.153939 0.379680 0.206859 -0.381403
Br2   Br    Br    0.846069 0.620243 0.793211 -0.381271
Br3   Br    Br    0.844578 0.379605 0.206924 -0.350685
Br4   Br    Br    0.155373 0.620797 0.792823 -0.350759
C1    C     C_R   0.262431 0.500027 0.499954 0.606328
C2    C     C_R   0.065084 0.553271 0.622848 0.150308
C3    C     C_R   0.871401 0.499922 0.500072 -0.028762
C4    C     C_R   0.128594 0.500078 0.499942 -0.028720
C5    C     C_R   0.421510 0.074492 0.409959 0.041306
C6    C     C_R   0.578489 0.925508 0.590042 0.041307
C7    C     C_R   0.578499 0.074199 0.590031 0.040439
C8    C     C_R   0.421500 0.925801 0.409970 0.040459
C9    C     C_R   0.737567 0.499974 0.500057 0.606318
C10   C     C_R   0.499928 0.500061 0.220636 0.592804
C11   C     C_R   0.500071 0.499939 0.779364 0.592775
C12   C     C_1   0.499972 0.500084 0.065541 0.034750
C13   C     C_1   0.500028 0.499916 0.934459 0.034738
C14   C     C_R   0.064476 0.446861 0.377059 0.141686
C15   C     C_R   0.935518 0.553137 0.622953 0.141723
C16   C     C_R   0.934902 0.446807 0.377103 0.150319
Cu1   Cu    Cu3+1 0.500000 0.640660 0.500000 1.045235
Cu2   Cu    Cu3+1 0.500000 0.359340 0.500000 1.045203
H1    H     H_    0.358614 0.130500 0.337713 0.154177
H2    H     H_    0.641380 0.869500 0.662292 0.154161
H3    H     H_    0.641431 0.129982 0.662246 0.138501
H4    H     H_    0.358567 0.870018 0.337755 0.138504
N1    N     N_R   0.500000 0.852070 0.500000 -0.236904
N2    N     N_R   0.500000 0.147930 0.500000 -0.236913
O1    O     O_R   0.319640 0.618740 0.499990 -0.483071
O2    O     O_R   0.680360 0.381260 0.500010 -0.483113
O3    O     O_R   0.680360 0.618740 0.500010 -0.483317
O4    O     O_R   0.319640 0.381260 0.499990 -0.483321
O5    O     O_R   0.500000 0.618760 0.288390 -0.500658
O6    O     O_R   0.500000 0.381240 0.711610 -0.500669
O7    O     O_R   0.500000 0.618760 0.711610 -0.480735
O8    O     O_R   0.500000 0.381240 0.288390 -0.480740

loop_
_geom_bond_atom_site_label_1
_geom_bond_atom_site_label_2
_ccdc_geom_bond_type
C6    N1    A    
C1    C4    S    
Cu1   O7    S    
Cu2   O8    S    
C11   O6    A    
C14   C16   A    
C1    O4    A    
C10   O5    A    
Cu1   N1    S    
Br3   C16   S    
Cu2   N2    S    
Cu1   Cu2   S    
C2    C15   A    
Cu1   O3    S    
Br1   C14   S    
Cu2   O4    S    
C7    N2    A    
C11   O7    A    
C3    C15   A    
C10   O8    A    
Cu2   O6    S    
C5    C8    A    
C10   C12   S    
Cu1   O5    S    
C6    C7    A    
C7    H3    S    
C8    N1    A    
C1    O1    A    
C9    O2    A    
C3    C9    S    
Br4   C2    S    
C3    C16   A    
C11   C13   S    
C5    H1    S    
C2    C4    A    
Cu2   O2    S    
C6    H2    S    
Br2   C15   S    
Cu1   O1    S    
C9    O3    A    
C4    C14   A    
C5    N2    A    
C8    H4    S    
C12   C13   T    
