data_mof_unit_57906.cif
_audit_creation_date              2012-12-11T16:56:12-0500
_audit_creation_method            fapswitch 2.2
_symmetry_space_group_name_H-M    P1
_symmetry_Int_Tables_number       1
_space_group_crystal_system       triclinic
_cell_length_a                    6.962171
_cell_length_b                    14.529956
_cell_length_c                    16.189272
_cell_angle_alpha                 90.437934
_cell_angle_beta                  90.020044
_cell_angle_gamma                 90.006045
_cell_volume                      1637.65942733

loop_
_atom_site_label
_atom_site_type_symbol
_atom_type_description
_atom_site_fract_x
_atom_site_fract_y
_atom_site_fract_z
_atom_type_partial_charge
O1    O     O_R   0.505830 0.583360 0.413880 -0.536645
O2    O     O_R   0.175830 0.595460 0.585520 -0.542919
O3    O     O_R   0.005520 0.416640 0.586120 -0.540855
C1    C     C_R   0.344670 0.617401 0.614441 0.697653
O4    O     O_R   0.176120 0.594390 0.414490 -0.543654
O5    O     O_R   0.005810 0.415570 0.413870 -0.539435
C2    C     C_R   0.344865 0.616210 0.385886 0.697086
O6    O     O_R   0.505540 0.584430 0.586130 -0.537018
O7    O     O_3   0.339200 0.441330 0.500000 -0.370571
V1    V     V_3+5 0.064350 0.510880 0.500000 1.391261
O8    O     O_R   0.676100 0.404540 0.414480 -0.540479
C3    C     C_R   0.845166 0.382188 0.386089 0.699386
O9    O     O_R   0.675810 0.405610 0.585510 -0.539807
C4    C     C_R   0.845015 0.383795 0.613695 0.744338
V2    V     V_3+5 0.564340 0.489120 0.500000 1.400840
O10   O     O_3   0.839360 0.558670 0.500000 -0.373242
C5    C     C_2   0.720937 0.209356 0.786410 -0.120542
C6    C     C_2   0.885580 0.181976 0.822761 -0.304480
H1    H     H_    0.585448 0.180845 0.807446 0.137790
H2    H     H_    0.022723 0.209870 0.803886 0.128930
C7    C     C_2   0.708604 0.277875 0.718441 -0.131825
C8    C     C_2   0.861503 0.315592 0.680582 -0.309918
H3    H     H_    0.565113 0.297189 0.698743 0.135782
H4    H     H_    0.006125 0.296973 0.698423 0.130147
C9    C     C_R   0.732214 0.249504 0.188720 0.151494
C10   C     C_R   0.883280 0.186062 0.183019 -0.144738
C11   C     C_R   0.033060 0.194690 0.241193 -0.189739
H5    H     H_    0.154303 0.148292 0.238713 0.121261
C12   C     C_R   0.021200 0.258904 0.306785 -0.174378
H6    H     H_    0.134609 0.260724 0.352443 0.127346
C13   C     C_R   0.858435 0.315715 0.316506 -0.116742
C14   C     C_R   0.719580 0.312138 0.254069 0.103173
C15   C     C_3   0.506653 0.303001 0.259371 -0.425644
C16   C     C_3   0.519910 0.235084 0.187122 -0.204443
H7    H     H_    0.431947 0.368694 0.245233 0.191492
H8    H     H_    0.461823 0.270102 0.317990 0.153666
H9    H     H_    0.479047 0.163504 0.203282 0.094918
C17   C     C_R   0.507817 0.681654 0.741321 0.113865
C18   C     C_R   0.353082 0.682129 0.685860 -0.114953
C19   C     C_R   0.201345 0.743431 0.703116 -0.179367
H10   H     H_    0.078559 0.746250 0.662420 0.133099
C20   C     C_R   0.212623 0.806297 0.769771 -0.175894
H11   H     H_    0.097603 0.855416 0.778407 0.127598
C21   C     C_R   0.376302 0.810095 0.821132 -0.113802
C22   C     C_R   0.519472 0.744139 0.807024 0.112748
C23   C     C_3   0.729872 0.757068 0.795231 -0.412684
C24   C     C_3   0.717344 0.688648 0.723995 -0.400564
H12   H     H_    0.814595 0.731196 0.848426 0.181992
H13   H     H_    0.765265 0.828079 0.775249 0.164959
H14   H     H_    0.794119 0.623048 0.736150 0.175235
H15   H     H_    0.746254 0.719736 0.662715 0.167970
C25   C     C_R   0.509666 0.746070 0.311593 0.099316
C26   C     C_R   0.352998 0.686302 0.319728 -0.110262
C27   C     C_R   0.200606 0.696599 0.263283 -0.169102
H16   H     H_    0.077251 0.651751 0.266786 0.134279
C28   C     C_R   0.212368 0.760063 0.197952 -0.171187
H17   H     H_    0.096578 0.763027 0.153552 0.132807
C29   C     C_R   0.377549 0.814651 0.186704 -0.108037
C30   C     C_R   0.521725 0.808549 0.246756 0.096688
C31   C     C_3   0.731268 0.791818 0.236065 -0.413019
C32   C     C_3   0.718220 0.724164 0.306932 -0.394723
H18   H     H_    0.818410 0.853837 0.251090 0.170225
H19   H     H_    0.764029 0.758362 0.175734 0.176162
H20   H     H_    0.797204 0.747226 0.363073 0.171099
H21   H     H_    0.744183 0.651557 0.287848 0.172704
O11   O     O_R   0.229930 0.912420 0.917160 -0.539548
O12   O     O_R   0.559420 0.902500 0.088780 -0.538990
O13   O     O_R   0.729660 0.081330 0.089380 -0.541835
C33   C     C_R   0.390391 0.880419 0.117180 0.694457
O14   O     O_R   0.559650 0.901420 0.917750 -0.539576
O15   O     O_R   0.729880 0.080250 0.917130 -0.536045
C34   C     C_R   0.390551 0.879595 0.888707 0.698388
O16   O     O_R   0.229700 0.913500 0.089410 -0.540485
O17   O     O_3   0.396250 0.055540 0.003280 -0.378045
V3    V     V_3+5 0.671130 0.986010 0.003260 1.400451
O18   O     O_R   0.059600 0.091310 0.917720 -0.544924
C35   C     C_R   0.890880 0.113273 0.889631 0.748738
O19   O     O_R   0.059370 0.092380 0.088750 -0.550085
C36   C     C_R   0.890672 0.114878 0.117071 0.698304
V4    V     V_3+5 0.171120 0.007820 0.003230 1.385540
O20   O     O_3   0.896130 0.938240 0.003240 -0.370218
C37   C     C_2   0.427791 0.269119 0.108874 0.428240
H22   H     H_    0.311487 0.230144 0.081168 0.067960
O21   O     O_2   0.479443 0.340846 0.076830 -0.528969

loop_
_geom_bond_atom_site_label_1
_geom_bond_atom_site_label_2
_ccdc_geom_bond_type
C11   C12   A    
C16   H9    S    
C1    O6    A    
C26   C27   A    
C21   C22   A    
O13   V3    S    
C23   H13   S    
C10   C11   A    
C31   H19   S    
C25   C32   S    
O5    C3    A    
C17   C18   A    
O19   V4    S    
V2    O10   S    
C15   H8    S    
C28   H17   S    
C31   H18   S    
C17   C22   A    
C15   H7    S    
C27   H16   S    
O8    V2    S    
O11   C34   A    
C33   O16   A    
O1    V2    S    
O7    V1    S    
C9    C16   S    
C9    C14   A    
C19   C20   A    
C30   C31   S    
O17   V4    S    
O9    C4    A    
C20   C21   A    
C5    C6    D    
C24   H14   S    
C23   H12   S    
C27   C28   A    
O17   V3    S    
O18   C35   A    
C18   C19   A    
O4    C2    A    
O19   C36   A    
V3    O20   S    
C24   H15   S    
C29   C30   A    
C22   C23   S    
C5    C7    S    
C31   C32   S    
O12   C33   A    
C32   H20   S    
O2    C1    A    
C12   H6    S    
C25   C30   A    
C13   C14   A    
C1    C18   S    
C15   C16   S    
C17   C24   S    
O3    C4    A    
C19   H10   S    
O6    V2    S    
C37   O21   D    
O9    V2    S    
C3    C13   S    
C8    H4    S    
O12   V3    S    
C20   H11   S    
C2    C26   S    
O2    V1    S    
O15   C35   A    
C25   C26   A    
C23   C24   S    
O1    C2    A    
O18   V4    S    
V4    O20   S    
O5    V1    S    
O8    C3    A    
C29   C33   S    
O11   V4    S    
C10   C36   S    
C14   C15   S    
C4    C8    S    
C7    H3    S    
C9    C10   A    
O4    V1    S    
C12   C13   A    
O3    V1    S    
V1    O10   S    
O15   V3    S    
O13   C36   A    
C6    C35   S    
C5    H1    S    
O16   V4    S    
C28   C29   A    
C21   C34   S    
C6    H2    S    
O7    V2    S    
C32   H21   S    
C37   H22   S    
O14   V3    S    
O14   C34   A    
C16   C37   S    
C7    C8    D    
C11   H5    S    
