data_mof_unit_37767.cif
_audit_creation_date              2012-12-10T17:44:34-0500
_audit_creation_method            fapswitch 2.2
_symmetry_space_group_name_H-M    P1
_symmetry_Int_Tables_number       1
_space_group_crystal_system       triclinic
_cell_length_a                    9.964548
_cell_length_b                    10.628279
_cell_length_c                    15.487985
_cell_angle_alpha                 91.769389
_cell_angle_beta                  67.221455
_cell_angle_gamma                 89.475909
_cell_volume                      1511.22542399

loop_
_atom_site_label
_atom_site_type_symbol
_atom_type_description
_atom_site_fract_x
_atom_site_fract_y
_atom_site_fract_z
_atom_type_partial_charge
C1    C     C_R   0.500924 0.739153 0.497544 0.854987
C2    C     C_R   0.424552 0.556519 0.909411 0.094041
C3    C     C_R   0.284475 0.608796 0.962586 0.179291
C4    C     C_R   0.532898 0.553832 0.947353 0.064323
C5    C     C_R   0.491885 0.581408 0.044202 0.068738
C6    C     C_R   0.350760 0.633245 0.096329 -0.240949
C7    C     C_R   0.249960 0.648851 0.055328 -0.242315
C8    C     C_R   0.681240 0.526536 0.891174 -0.229993
C9    C     C_R   0.783094 0.511911 0.931054 -0.244727
C10   C     C_R   0.739463 0.520019 0.027951 0.177194
C11   C     C_R   0.593319 0.554492 0.085359 0.095657
C12   C     C_R   0.408350 0.502159 0.676076 0.857135
C13   C     C_R   0.839101 0.490204 0.068459 -0.220194
C14   C     C_R   0.793463 0.488381 0.165463 -0.204030
C15   C     C_R   0.550217 0.550559 0.182397 -0.281569
C16   C     C_R   0.463912 0.862324 0.342708 -0.176266
C17   C     C_R   0.445400 0.924913 0.270131 -0.135261
C18   C     C_R   0.447154 0.055784 0.269565 -0.134331
C19   C     C_R   0.467721 0.124485 0.341471 -0.194815
C20   C     C_R   0.484781 0.062478 0.416320 0.095052
C21   C     C_R   0.482818 0.930578 0.416978 0.100770
C22   C     C_R   0.504254 0.871282 0.491097 -0.090779
C23   C     C_R   0.502487 0.260683 0.496769 0.868614
C24   C     C_R   0.533023 0.938308 0.560342 -0.214490
C25   C     C_R   0.534966 0.066772 0.559660 -0.203125
C26   C     C_R   0.507900 0.127998 0.489824 -0.103748
C27   C     C_R   0.786697 0.667480 0.622923 -0.142622
C28   C     C_R   0.819732 0.746636 0.684884 -0.198736
C29   C     C_R   0.958044 0.743667 0.685948 -0.194677
C30   C     C_R   0.064684 0.662350 0.624411 -0.152176
C31   C     C_R   0.035222 0.580983 0.560803 0.146762
C32   C     C_R   0.891126 0.581920 0.560542 0.132524
C33   C     C_R   0.966893 0.421121 0.441304 0.187018
C34   C     C_R   0.591429 0.502424 0.324025 0.835845
C35   C     C_R   0.108111 0.420537 0.443647 -0.108308
C36   C     C_R   0.352921 0.523232 0.777599 -0.055880
C37   C     C_R   0.647780 0.514609 0.222486 -0.050602
C38   C     C_R   0.181462 0.620701 0.921697 -0.225056
C39   C     C_R   0.216543 0.580020 0.828723 -0.220439
C40   C     C_R   0.451456 0.505545 0.820165 -0.265047
H1    H     H_    0.143624 0.690040 0.096970 0.152627
H2    H     H_    0.950725 0.463466 0.025183 0.152227
H3    H     H_    0.551028 0.890937 0.616105 0.139815
H4    H     H_    0.465320 0.760701 0.339078 0.150026
H5    H     H_    0.431213 0.871635 0.213668 0.137738
H6    H     H_    0.434177 0.104216 0.212711 0.138693
H7    H     H_    0.472491 0.225755 0.336810 0.141755
H8    H     H_    0.553884 0.118911 0.615069 0.152892
H9    H     H_    0.678382 0.676641 0.626284 0.199408
H10   H     H_    0.737137 0.810613 0.732514 0.150440
H11   H     H_    0.438217 0.568399 0.228136 0.160721
H12   H     H_    0.983138 0.804986 0.734548 0.150771
H13   H     H_    0.168855 0.664689 0.628730 0.199156
H14   H     H_    0.191888 0.355206 0.398987 0.160764
H15   H     H_    0.870245 0.462206 0.195563 0.166842
H16   H     H_    0.895180 0.488938 0.886056 0.153311
H17   H     H_    0.075620 0.664424 0.960758 0.146496
H18   H     H_    0.139575 0.596320 0.796294 0.149562
H19   H     H_    0.550897 0.452805 0.781427 0.157867
H20   H     H_    0.316796 0.666845 0.168211 0.144388
H21   H     H_    0.722234 0.518806 0.815662 0.163271
N1    N     N_R   0.856800 0.501200 0.500850 -0.142609
N2    N     N_R   0.142390 0.501280 0.500880 -0.138518
O1    O     O_R   0.385310 0.683220 0.500000 -0.633678
O2    O     O_R   0.614640 0.683250 0.500010 -0.622951
O3    O     O_R   0.319840 0.499980 0.632240 -0.625610
O4    O     O_R   0.549160 0.500000 0.632250 -0.632207
O5    O     O_R   0.385360 0.316750 0.499990 -0.608100
O6    O     O_R   0.614690 0.316780 0.500000 -0.633708
O7    O     O_R   0.450840 0.500000 0.367750 -0.625859
O8    O     O_R   0.680160 0.500020 0.367760 -0.618129
Zn1   Zn    Zn3+2 0.346880 0.499980 0.499990 0.921700
Zn2   Zn    Zn3+2 0.653120 0.500020 0.500010 0.920511
C41   C     C_3   0.943732 0.329280 0.372231 -0.368981
C42   C     C_3   0.050770 0.348549 0.271571 -0.930022
H22   H     H_    0.054058 0.449617 0.254747 0.267993
H23   H     H_    0.162176 0.315566 0.261104 0.256587
H24   H     H_    0.016559 0.292863 0.222038 0.254209
H25   H     H_    0.957794 0.231701 0.391670 0.195311
H26   H     H_    0.833878 0.337352 0.373095 0.267473

loop_
_geom_bond_atom_site_label_1
_geom_bond_atom_site_label_2
_ccdc_geom_bond_type
C8    C9    A    
C16   C21   A    
C34   C37   S    
C23   O6    A    
C19   C20   A    
C4    C8    A    
C28   C29   A    
C17   H5    S    
C5    C11   A    
C3    C7    A    
C30   C31   A    
C19   H7    S    
O2    Zn2   S    
C18   C19   A    
C23   C26   S    
C15   C37   A    
C11   C15   A    
O3    Zn1   S    
C3    C38   A    
C16   C17   A    
C1    O2    A    
N1    Zn2   S    
O6    Zn2   S    
O4    Zn2   S    
C15   H11   S    
C12   C36   S    
C9    C10   A    
C34   O7    A    
C8    H21   S    
O1    Zn1   S    
C14   H15   S    
C1    C22   S    
C40   H19   S    
C41   H26   S    
C21   C22   A    
C35   H14   S    
C28   H10   S    
C18   H6    S    
C13   H2    S    
C30   H13   S    
C38   C39   A    
C12   O4    A    
C41   C42   S    
C31   N2    A    
C36   C40   A    
C24   C25   A    
O8    Zn2   S    
C33   N1    A    
C25   C26   A    
C39   H18   S    
C12   O3    A    
C23   O5    A    
C2    C4    A    
C42   H22   S    
C29   C30   A    
C6    H20   S    
C38   H17   S    
C31   C32   A    
O5    Zn1   S    
C17   C18   A    
C9    H16   S    
N2    Zn1   S    
C42   H23   S    
C25   H8    S    
C41   H25   S    
C22   C24   A    
C1    O1    A    
C16   H4    S    
C27   C32   A    
C36   C39   A    
C4    C5    A    
C10   C13   A    
C35   N2    A    
C6    C7    A    
C2    C3    A    
C32   N1    A    
C14   C37   A    
C5    C6    A    
C20   C26   A    
C33   C35   A    
C7    H1    S    
C42   H24   S    
C10   C11   A    
C2    C40   A    
C33   C41   S    
C20   C21   A    
C27   C28   A    
C24   H3    S    
O7    Zn1   S    
C13   C14   A    
C34   O8    A    
C27   H9    S    
C29   H12   S    
