data_mof_unit_19082.cif
_audit_creation_date              2012-12-10T16:53:12-0500
_audit_creation_method            fapswitch 2.2
_symmetry_space_group_name_H-M    P1
_symmetry_Int_Tables_number       1
_space_group_crystal_system       triclinic
_cell_length_a                    10.784017
_cell_length_b                    10.912383
_cell_length_c                    9.708035
_cell_angle_alpha                 91.025738
_cell_angle_beta                  90.306365
_cell_angle_gamma                 90.335905
_cell_volume                      1142.2153118

loop_
_atom_site_label
_atom_site_type_symbol
_atom_type_description
_atom_site_fract_x
_atom_site_fract_y
_atom_site_fract_z
_atom_type_partial_charge
C1    C     C_R   0.503722 0.265306 0.498458 0.878199
C2    C     C_R   0.065554 0.394081 0.561777 0.086359
C3    C     C_R   0.128582 0.492388 0.498594 -0.131395
C4    C     C_R   0.062573 0.586263 0.433685 -0.039562
C5    C     C_R   0.934360 0.584189 0.434532 -0.225566
C6    C     C_R   0.870725 0.490769 0.500578 -0.087449
C7    C     C_2   0.538588 0.930420 0.392819 -0.180263
C8    C     C_2   0.517196 0.866758 0.506812 -0.394478
C9    C     C_2   0.558022 0.063515 0.396933 0.470677
C10   C     C_2   0.501153 0.132696 0.494498 -0.445108
C11   C     C_2   0.430260 0.427503 0.919811 -0.069895
C12   C     C_R   0.262711 0.497779 0.499640 0.786017
C13   C     C_2   0.427228 0.429745 0.075422 0.071970
C14   C     C_R   0.503467 0.734744 0.501384 0.887839
C15   C     C_R   0.737211 0.496965 0.500234 0.811501
C16   C     C_R   0.129716 0.294447 0.619858 -0.161608
C17   C     C_R   0.065307 0.198324 0.680152 -0.128761
C18   C     C_R   0.936383 0.198515 0.682460 -0.106755
C19   C     C_R   0.871128 0.294716 0.624235 -0.102183
C20   C     C_R   0.934535 0.393767 0.563545 0.100616
Cu1   Cu    Cu3+1 0.500020 0.500020 0.638630 0.956256
Cu2   Cu    Cu3+1 0.499980 0.499980 0.361370 1.024359
H1    H     H_    0.443920 0.091208 0.572657 0.124552
H2    H     H_    0.370038 0.362448 0.865716 0.151840
H3    H     H_    0.553734 0.563030 0.895718 0.198833
H4    H     H_    0.563160 0.553941 0.107616 0.193202
H5    H     H_    0.229693 0.288555 0.617641 0.136280
H6    H     H_    0.115682 0.122803 0.724129 0.144373
H7    H     H_    0.886651 0.123165 0.728251 0.145711
H8    H     H_    0.771023 0.289365 0.625433 0.151373
H9    H     H_    0.883332 0.657428 0.386013 0.159823
H10   H     H_    0.547446 0.883347 0.293810 0.211667
H11   H     H_    0.517824 0.910511 0.608061 0.161022
N1    N     N_2   0.498640 0.498660 0.846910 -0.282050
N2    N     N_2   0.498610 0.498630 0.153040 -0.293168
O1    O     O_R   0.500020 0.321960 0.617040 -0.598749
O2    O     O_R   0.499980 0.321920 0.382900 -0.505380
O3    O     O_R   0.319670 0.500020 0.617100 -0.582576
O4    O     O_R   0.319630 0.499980 0.382950 -0.576343
O5    O     O_R   0.500020 0.678080 0.617100 -0.577380
O6    O     O_R   0.499980 0.678040 0.382960 -0.576712
O7    O     O_R   0.680370 0.500020 0.617050 -0.592223
O8    O     O_R   0.680330 0.499980 0.382900 -0.544386
C21   C     C_1   0.124546 0.688186 0.369337 0.266535
N3    N     N_1   0.174212 0.769686 0.317971 -0.260648
C22   C     C_1   0.339604 0.348188 0.138586 0.375384
N4    N     N_1   0.269093 0.282382 0.188634 -0.276018
S1    S     S_3+6 0.657848 0.123755 0.269621 0.009413
O9    O     O_2   0.581232 0.175192 0.154820 -0.295058
O10   O     O_2   0.739306 0.222974 0.330909 -0.302935
O11   O     O_3   0.747687 0.011113 0.205548 -0.544368
H12   H     H_    0.796692 0.049986 0.131983 0.377215

loop_
_geom_bond_atom_site_label_1
_geom_bond_atom_site_label_2
_ccdc_geom_bond_type
Cu1   N1    S    
C10   H1    S    
C6    C20   A    
C9    C10   D    
C11   H2    S    
Cu2   O8    S    
C1    O2    A    
H3    N1    S    
C17   H6    S    
C12   O4    A    
S1    O10   D    
C17   C18   A    
C3    C4    A    
C15   O8    A    
C7    C8    D    
Cu1   O1    S    
Cu1   Cu2   S    
C18   H7    S    
Cu2   N2    S    
C11   C13   S    
O11   H12   S    
C13   C22   S    
Cu1   O5    S    
C16   H5    S    
C14   O6    A    
Cu2   O4    S    
S1    O9    D    
C13   N2    D    
C2    C3    A    
C8    H11   S    
C11   N1    D    
C12   O3    A    
C5    C6    A    
C7    H10   S    
Cu2   O6    S    
C1    C10   S    
C14   O5    A    
Cu1   O7    S    
H4    N2    S    
C2    C16   A    
C21   N3    T    
C15   O7    A    
C9    S1    S    
C18   C19   A    
C7    C9    S    
C22   N4    T    
C16   C17   A    
C8    C14   S    
C3    C12   S    
C4    C21   S    
C6    C15   S    
C19   H8    S    
C2    C20   A    
Cu2   O2    S    
S1    O11   S    
Cu1   O3    S    
C19   C20   A    
C1    O1    A    
C4    C5    A    
C5    H9    S    
