data_mof_unit_19511.cif
_audit_creation_date              2013-03-05T15:57:57-0500
_audit_creation_method            fapswitch 2.2
_symmetry_space_group_name_H-M    P1
_symmetry_Int_Tables_number       1
_space_group_crystal_system       triclinic
_cell_length_a                    15.030833
_cell_length_b                    15.173042
_cell_length_c                    17.01875
_cell_angle_alpha                 109.05577
_cell_angle_beta                  106.021587
_cell_angle_gamma                 109.434812
_cell_volume                      3120.93734001

loop_
_atom_site_label
_atom_site_type_symbol
_atom_site_description
_atom_site_fract_x
_atom_site_fract_y
_atom_site_fract_z
_atom_type_partial_charge
C1    C     C_R   0.081792 0.286445 0.078378 -0.107622
C2    C     C_R   0.908546 0.721291 0.969527 -0.067039
H1    H     H_    0.160222 0.308520 0.123962 0.142199
H2    H     H_    0.826958 0.702506 0.943325 0.135474
N1    N     N_R   0.055660 0.348550 0.045620 -0.052328
N2    N     N_R   0.944340 0.651450 0.954380 -0.047935
C3    C     C_R   0.937405 0.519011 0.746649 -0.171198
C4    C     C_R   0.065481 0.551625 0.263961 -0.151724
H3    H     H_    0.859168 0.496308 0.700006 0.117817
H4    H     H_    0.144845 0.605301 0.314407 0.113556
N3    N     N_R   0.960830 0.507850 0.823700 -0.054674
N4    N     N_R   0.039170 0.492150 0.176300 -0.050657
C5    C     C_R   0.778984 0.203654 0.811906 -0.135933
C6    C     C_R   0.278408 0.786392 0.177406 -0.108036
H5    H     H_    0.770816 0.140645 0.830005 0.104499
H6    H     H_    0.307288 0.839386 0.150366 0.116249
N5    N     N_R   0.811290 0.303410 0.871650 -0.042822
N6    N     N_R   0.188710 0.696590 0.128350 -0.042956
C7    C     C_R   0.262061 0.535492 0.951823 -0.113061
C8    C     C_R   0.696729 0.397776 0.988273 -0.099441
H7    H     H_    0.284405 0.573768 0.911942 0.145968
H8    H     H_    0.665016 0.329996 0.998962 0.156777
N7    N     N_R   0.205200 0.552990 0.997670 -0.033806
N8    N     N_R   0.794800 0.447010 0.002330 -0.047692
C9    C     C_R   0.783652 0.298891 0.735262 -0.125876
C10   C     C_R   0.274160 0.691455 0.253168 -0.149225
H9    H     H_    0.778913 0.324789 0.683083 0.096949
H10   H     H_    0.298848 0.656292 0.295065 0.101162
N9    N     N_R   0.814800 0.361830 0.823700 -0.040575
N10   N     N_R   0.185200 0.638170 0.176300 -0.045450
C11   C     C_R   0.246395 0.434914 0.023843 -0.108057
C12   C     C_R   0.703597 0.498532 0.918724 -0.127489
H11   H     H_    0.249416 0.377970 0.047785 0.112595
H12   H     H_    0.681417 0.531444 0.873671 0.122869
N11   N     N_R   0.201680 0.494570 0.045620 -0.045436
N12   N     N_R   0.798320 0.505430 0.954380 -0.051879
C13   C     C_R   0.110264 0.607904 0.828337 0.269874
C14   C     C_R   0.891287 0.458055 0.189933 0.313734
N13   N     N_R   0.068420 0.560530 0.871650 -0.064326
N14   N     N_R   0.931580 0.439470 0.128350 -0.066150
C15   C     C_R   0.909415 0.208190 0.003733 -0.143569
C16   C     C_R   0.084241 0.807392 0.039677 -0.057753
H13   H     H_    0.828056 0.167423 0.987948 0.132583
H14   H     H_    0.164905 0.867310 0.074038 0.117373
N15   N     N_R   0.948070 0.295860 0.997670 -0.049234
N16   N     N_R   0.051930 0.704140 0.002330 -0.042708
C17   C     C_R   0.990112 0.197474 0.052854 0.156693
C18   C     C_R   0.995287 0.820338 0.020257 0.085733
C19   C     C_R   0.030204 0.580379 0.747400 -0.000544
C20   C     C_R   0.974485 0.533856 0.275651 -0.021934
C21   C     C_R   0.763185 0.198828 0.725634 0.053263
C22   C     C_R   0.334709 0.785245 0.256186 0.049065
C23   C     C_R   0.290208 0.462994 0.969382 0.023954
C24   C     C_R   0.638511 0.429910 0.938610 0.026175
C25   C     C_R   0.916331 0.919501 0.968107 0.295996
C26   C     C_R   0.054242 0.104940 0.134611 0.275211
H15   H     H_    0.773113 0.956616 0.813226 0.149743
H16   H     H_    0.014915 0.902274 0.219244 0.115458
C27   C     C_R   0.992013 0.919004 0.037772 -0.084233
C28   C     C_R   0.976899 0.102664 0.063815 -0.068057
C29   C     C_R   0.058932 0.010846 0.123595 -0.124458
C30   C     C_R   0.897339 0.005101 0.988931 -0.107394
C31   C     C_R   0.733131 0.958332 0.857217 -0.108730
C32   C     C_R   0.098056 0.947929 0.241918 -0.130705
Ni1   Ni    Ni4+2 0.119340 0.493420 0.109960 0.226936
Ni2   Ni    Ni4+2 0.880660 0.506580 0.890040 0.225981
Ni3   Ni    Ni4+2 0.872590 0.372590 0.000000 0.233709
Ni4   Ni    Ni4+2 0.127410 0.627410 0.000000 0.261470
C33   C     C_R   0.576280 0.940343 0.878524 -0.070253
C34   C     C_R   0.276684 0.003040 0.342540 -0.076783
H17   H     H_    0.477700 0.530988 0.366585 0.111867
H18   H     H_    0.495735 0.361256 0.541098 0.109159
C35   C     C_R   0.490416 0.588595 0.268028 -0.133019
C36   C     C_R   0.501978 0.304817 0.642268 -0.120433
H19   H     H_    0.515342 0.668968 0.315362 0.123599
H20   H     H_    0.519808 0.243616 0.608011 0.114189
C37   C     C_R   0.479959 0.562904 0.178175 -0.110854
C38   C     C_R   0.492441 0.317351 0.724165 -0.132002
H21   H     H_    0.496161 0.623891 0.156533 0.121088
H22   H     H_    0.502601 0.264830 0.752117 0.117333
C39   C     C_R   0.449461 0.458848 0.116805 0.099082
C40   C     C_R   0.469859 0.397073 0.769560 0.106437
C41   C     C_R   0.431100 0.381377 0.146928 -0.166588
C42   C     C_R   0.455903 0.463074 0.730732 -0.162133
H23   H     H_    0.408686 0.301017 0.100698 0.131841
H24   H     H_    0.439295 0.525550 0.764563 0.121520
C43   C     C_R   0.440220 0.407227 0.236497 -0.071689
C44   C     C_R   0.465300 0.450057 0.648675 -0.065650
H25   H     H_    0.424805 0.347096 0.259105 0.125300
H26   H     H_    0.454997 0.501475 0.619437 0.117612
C45   C     C_R   0.469887 0.510817 0.297029 -0.088654
C46   C     C_R   0.488399 0.371100 0.604544 -0.076190
C47   C     C_R   0.519393 0.412490 0.006852 -0.219191
C48   C     C_R   0.378376 0.425271 0.870585 -0.233307
H27   H     H_    0.576521 0.413223 0.062715 0.168915
H28   H     H_    0.320713 0.427031 0.817141 0.131411
C49   C     C_R   0.534690 0.410494 0.929264 0.055191
C50   C     C_R   0.370503 0.438834 0.953506 0.078311
C51   C     C_R   0.461429 0.411369 0.857446 0.034296
C52   C     C_R   0.441836 0.431818 0.022343 0.013294
C53   C     C_R   0.628154 0.936409 0.821815 -0.159956
C54   C     C_R   0.169157 0.944604 0.312590 -0.104423
C55   C     C_R   0.972821 0.578566 0.365535 0.145273
C56   C     C_R   0.043167 0.613914 0.678541 0.160287
C57   C     C_R   0.148882 0.653225 0.598700 -0.223324
C58   C     C_R   0.877913 0.591628 0.459654 -0.207612
C59   C     C_R   0.138538 0.638391 0.671778 -0.121573
C60   C     C_R   0.881279 0.573077 0.374786 -0.120543
C61   C     C_R   0.958589 0.608673 0.612613 -0.238305
C62   C     C_R   0.064724 0.620327 0.444405 -0.257041
C63   C     C_R   0.966035 0.615112 0.534599 0.164035
C64   C     C_R   0.061306 0.634619 0.527363 0.181065
H29   H     H_    0.137591 0.629547 0.440771 0.120763
H30   H     H_    0.884935 0.590402 0.617625 0.135712
H31   H     H_    0.811499 0.550376 0.316388 0.165345
H32   H     H_    0.203311 0.637626 0.718459 0.157590
H33   H     H_    0.222036 0.667430 0.593196 0.131103
H34   H     H_    0.804901 0.579802 0.464650 0.138322
C65   C     C_R   0.723464 0.104796 0.638636 0.128555
C66   C     C_R   0.442903 0.861275 0.323618 0.130605
C67   C     C_R   0.588476 0.036082 0.394871 -0.225073
C68   C     C_R   0.619215 0.915666 0.552002 -0.223804
C69   C     C_R   0.495692 0.954875 0.320322 -0.180274
C70   C     C_R   0.689592 0.005020 0.635079 -0.159062
C71   C     C_R   0.490524 0.845159 0.397262 -0.305118
C72   C     C_R   0.702480 0.112660 0.556261 -0.278930
C73   C     C_R   0.581398 0.926717 0.472885 0.190772
C74   C     C_R   0.627591 0.024700 0.473612 0.187777
H35   H     H_    0.586861 0.916477 0.750467 0.119544
H36   H     H_    0.140903 0.896687 0.344125 0.117294
H37   H     H_    0.733419 0.188242 0.556741 0.121815
H38   H     H_    0.452755 0.773386 0.401000 0.115898
H39   H     H_    0.710007 0.996230 0.696786 0.112805
H40   H     H_    0.462658 0.968771 0.263386 0.126213
H41   H     H_    0.624201 0.110495 0.394022 0.137295
H42   H     H_    0.586740 0.840061 0.551632 0.131335
H43   H     H_    0.495133 0.923528 0.851044 0.131738
H44   H     H_    0.331616 0.000420 0.397258 0.115255
C75   C     C_R   0.629135 0.965959 0.970692 -0.072899
C76   C     C_R   0.313321 0.064403 0.301497 -0.137444
H45   H     H_    0.588903 0.968988 0.014594 0.138421
H46   H     H_    0.396590 0.109358 0.324541 0.115763
C77   C     C_R   0.733817 0.987277 0.006170 -0.160279
C78   C     C_R   0.242546 0.067363 0.230373 -0.105720
H47   H     H_    0.773757 0.006508 0.077637 0.135897
H48   H     H_    0.271894 0.114196 0.198337 0.126291
C79   C     C_R   0.786669 0.983494 0.949629 0.156550
C80   C     C_R   0.134283 0.009461 0.200324 0.197519
Br1   Br    Br    0.239484 0.737125 0.896593 -0.644520
Br2   Br    Br    0.757461 0.362276 0.171775 -0.645365
Br3   Br    Br    0.846890 0.811811 0.840433 -0.608226
Br4   Br    Br    0.140260 0.231439 0.251098 -0.599402

loop_
_geom_bond_atom_site_label_1
_geom_bond_atom_site_label_2
_geom_bond_distance
_ccdc_geom_bond_type
C33   C75   1.396860 A    
C41   C43   1.398116 A    
C34   C76   1.397793 A    
C43   C45   1.397606 A    
N5    N9    1.385431 A    
N13   Ni4   1.863351 S    
C6    N6    1.335928 A    
C7    N7    1.339248 A    
C63   C64   1.411546 A    
C78   C80   1.406157 A    
C19   C56   1.455889 S    
C65   C70   1.401794 A    
C3    N3    1.342396 A    
C57   C59   1.374002 A    
N8    N12   1.385430 A    
C36   H20   1.082766 S    
C70   H39   1.074991 S    
C55   C62   1.396430 A    
C1    N1    1.349641 A    
C12   N12   1.337438 A    
C60   H31   1.080341 S    
C7    H7    1.078976 S    
C29   C80   1.485190 S    
C42   H24   1.082993 S    
C25   C27   1.402444 A    
C61   C63   1.394384 A    
C16   N16   1.329405 A    
C56   C61   1.403019 A    
H18   C46   1.082458 S    
N12   Ni2   1.864732 S    
C48   C50   1.402357 A    
C36   C46   1.396866 A    
C25   C30   1.376975 A    
C72   H37   1.080917 S    
C28   C30   1.412233 A    
C40   C51   1.487059 S    
C31   C79   1.404167 A    
C68   C73   1.397353 A    
C34   H44   1.082639 S    
N8    Ni3   1.875826 S    
C49   C51   1.408561 A    
C17   C28   1.466025 S    
C5    C21   1.393993 A    
C75   C77   1.397970 A    
C6    C22   1.383012 A    
C44   C46   1.397533 A    
N14   Ni3   1.863349 S    
N15   Ni3   1.875585 S    
C21   C65   1.466309 S    
C11   H11   1.077216 S    
C24   C49   1.440055 S    
C55   C60   1.406010 A    
N6    N10   1.385431 A    
C26   Br4   1.932585 S    
N3    Ni2   1.864640 S    
C31   C53   1.399454 A    
C7    C23   1.390274 A    
C20   C55   1.468213 S    
C47   H27   1.085105 S    
C32   C80   1.405431 A    
C9    N9    1.330966 A    
C15   H13   1.075639 S    
C57   H33   1.084717 S    
C2    N2    1.325319 A    
C16   H14   1.080035 S    
C12   C24   1.375021 A    
C39   C41   1.405852 A    
H15   C31   1.080919 S    
C58   C63   1.401714 A    
C37   H21   1.083210 S    
C33   H43   1.082414 S    
N5    Ni3   1.862904 S    
C27   C29   1.419220 A    
C69   H40   1.080465 S    
N3    N13   1.380391 A    
C3    C19   1.389556 A    
C67   C74   1.398226 A    
N1    Ni1   1.842979 S    
C66   C71   1.401561 A    
C1    C17   1.399553 A    
H16   C32   1.083348 S    
C2    C18   1.389705 A    
N1    N15   1.380390 A    
C11   C23   1.371993 A    
C26   C28   1.406153 A    
C1    H1    1.080040 S    
C12   H12   1.080805 S    
N7    Ni4   1.875826 S    
N4    N14   1.380392 A    
C2    H2    1.080061 S    
C9    C21   1.387635 A    
N16   Ni4   1.875587 S    
C10   C22   1.385891 A    
C78   H48   1.083481 S    
C13   C19   1.376525 A    
C38   C40   1.408199 A    
C47   C52   1.364227 A    
C37   C39   1.403955 A    
C4    N4    1.324452 A    
C68   H42   1.084079 S    
C34   C54   1.398076 A    
C15   C17   1.362657 A    
C38   H22   1.083087 S    
C16   C18   1.381574 A    
C67   H41   1.083899 S    
C48   H28   1.084116 S    
C62   H29   1.078905 S    
C35   C45   1.397713 A    
C61   H30   1.083095 S    
C22   C66   1.466078 S    
C8    C24   1.364764 A    
C41   H23   1.083105 S    
C57   C64   1.390371 A    
C8    H8    1.077859 S    
C32   C54   1.399014 A    
C10   N10   1.333180 A    
C40   C42   1.406731 A    
C30   C79   1.483812 S    
C43   H25   1.082550 S    
C6    H6    1.079996 S    
C35   H19   1.079060 S    
C68   C70   1.387253 A    
C73   C74   1.410251 A    
C47   C49   1.394101 A    
C77   C79   1.405904 A    
C72   C74   1.388253 A    
C18   C27   1.448516 S    
C77   H47   1.083291 S    
C35   C37   1.397272 A    
N2    N16   1.380391 A    
C10   H10   1.079283 S    
C76   C78   1.398357 A    
C13   Br1   1.923340 S    
C66   C69   1.405830 A    
C25   Br3   1.943051 S    
C14   C20   1.398237 A    
C39   C52   1.484009 S    
C33   C53   1.397033 A    
C23   C50   1.440058 S    
C9    H9    1.076852 S    
N4    Ni1   1.864642 S    
C50   C52   1.413310 A    
C5    N5    1.339419 A    
C5    H5    1.076569 S    
C44   H26   1.082397 S    
C13   N13   1.325395 A    
C15   N15   1.313813 A    
C14   N14   1.347508 A    
C75   H45   1.082363 S    
C71   H38   1.079836 S    
C42   C44   1.398760 A    
C58   C60   1.397241 A    
C48   C51   1.396921 A    
C14   Br2   1.916231 S    
C4    C20   1.386661 A    
C11   N11   1.315933 A    
N7    N11   1.385428 A    
C62   C64   1.374972 A    
C59   H32   1.079695 S    
C67   C69   1.389907 A    
N10   Ni1   1.842666 S    
N9    Ni2   1.842665 S    
C65   C72   1.403312 A    
C3    H3    1.080862 S    
N2    Ni2   1.842978 S    
H17   C45   1.082365 S    
C4    H4    1.074695 S    
C36   C38   1.398103 A    
C71   C73   1.385016 A    
N11   Ni1   1.864731 S    
C26   C29   1.406395 A    
C54   H36   1.082658 S    
C76   H46   1.082504 S    
N6    Ni4   1.862903 S    
C8    N8    1.320634 A    
C56   C59   1.403859 A    
C58   H34   1.083613 S    
C53   H35   1.081837 S    
