data_mof_unit_8299.cif
_audit_creation_date              2012-12-10T20:31:51-0500
_audit_creation_method            fapswitch 2.2
_symmetry_space_group_name_H-M    P1
_symmetry_Int_Tables_number       1
_space_group_crystal_system       triclinic
_cell_length_a                    9.878912
_cell_length_b                    10.679717
_cell_length_c                    15.367527
_cell_angle_alpha                 90.05664
_cell_angle_beta                  68.794381
_cell_angle_gamma                 90.139538
_cell_volume                      1511.54751738

loop_
_atom_site_label
_atom_site_type_symbol
_atom_type_description
_atom_site_fract_x
_atom_site_fract_y
_atom_site_fract_z
_atom_type_partial_charge
C1    C     C_R   0.498702 0.739991 0.502166 0.884128
C2    C     C_R   0.433297 0.403370 0.903654 0.096260
C3    C     C_R   0.290711 0.361217 0.954036 0.181587
C4    C     C_R   0.541367 0.396698 0.943621 0.009615
C5    C     C_R   0.495727 0.385641 0.041552 0.056538
C6    C     C_R   0.352536 0.342902 0.091724 -0.220036
C7    C     C_R   0.253425 0.325779 0.047143 -0.239173
C8    C     C_R   0.692517 0.402356 0.890178 -0.020334
C9    C     C_R   0.790509 0.429339 0.933727 -0.291529
C10   C     C_R   0.741987 0.444840 0.030120 0.157580
C11   C     C_R   0.594608 0.420079 0.085117 0.094848
C12   C     C_R   0.410031 0.495086 0.676029 0.864300
C13   C     C_R   0.839350 0.483784 0.072375 -0.205817
C14   C     C_R   0.791298 0.500929 0.168553 -0.203259
C15   C     C_R   0.548424 0.440179 0.181276 -0.260278
C16   C     C_R   0.376562 0.936061 0.501187 0.127632
C17   C     C_R   0.489862 0.871659 0.514481 -0.107973
C18   C     C_R   0.589477 0.935699 0.544138 -0.224527
C19   C     C_R   0.589339 0.065254 0.544359 -0.212024
C20   C     C_R   0.489254 0.128657 0.515082 -0.108569
C21   C     C_R   0.376210 0.063721 0.501593 0.149756
C22   C     C_3   0.321904 0.071249 0.422709 -0.487877
C23   C     C_R   0.498447 0.260105 0.502366 0.879846
C24   C     C_3   0.322624 0.929325 0.422018 -0.479758
C25   C     C_R   0.886793 0.543107 0.575514 0.269002
C26   C     C_R   0.967739 0.446663 0.429118 -0.139787
C27   C     C_R   0.111603 0.446558 0.429140 -0.129242
C28   C     C_R   0.028824 0.542208 0.575871 0.226323
C29   C     C_3   0.012494 0.669824 0.617504 -0.514832
C30   C     C_3   0.859498 0.671454 0.616091 -0.530351
C31   C     C_R   0.590125 0.497740 0.323967 0.866970
C32   C     C_R   0.359141 0.461171 0.774841 -0.063276
C33   C     C_R   0.645034 0.480934 0.222944 -0.059391
C34   C     C_R   0.187319 0.359091 0.910925 -0.227583
C35   C     C_R   0.222370 0.407081 0.820740 -0.203011
C36   C     C_R   0.460844 0.462692 0.818269 -0.237910
H1    H     H_    0.144974 0.292307 0.087043 0.147838
H2    H     H_    0.951838 0.503474 0.030975 0.148271
H3    H     H_    0.671559 0.886757 0.561924 0.163119
H4    H     H_    0.671752 0.114854 0.561989 0.180543
H5    H     H_    0.210966 0.111757 0.444904 0.209624
H6    H     H_    0.402463 0.113459 0.358666 0.197652
H7    H     H_    0.212049 0.887997 0.443304 0.202788
H8    H     H_    0.403807 0.888669 0.357639 0.204245
H9    H     H_    0.946086 0.405610 0.371085 0.144995
H10   H     H_    0.197940 0.405043 0.371172 0.139422
H11   H     H_    0.015038 0.668195 0.689224 0.204767
H12   H     H_    0.435867 0.428533 0.224768 0.148424
H13   H     H_    0.086003 0.739652 0.569838 0.217514
H14   H     H_    0.773809 0.672303 0.686942 0.201890
H15   H     H_    0.845624 0.741202 0.566488 0.209640
H16   H     H_    0.867612 0.531675 0.200066 0.156306
H17   H     H_    0.904750 0.439086 0.892148 0.146826
H18   H     H_    0.080305 0.319970 0.946732 0.143394
H19   H     H_    0.144346 0.400208 0.786418 0.157412
H20   H     H_    0.562349 0.511803 0.784892 0.157465
H21   H     H_    0.315776 0.318856 0.164823 0.136926
N1    N     N_R   0.856900 0.500860 0.500610 -0.107073
N2    N     N_R   0.142540 0.500820 0.500610 -0.106533
O1    O     O_R   0.385310 0.683210 0.499990 -0.612855
O2    O     O_R   0.614650 0.683240 0.500000 -0.619629
O3    O     O_R   0.319830 0.499970 0.632240 -0.614693
O4    O     O_R   0.549170 0.500000 0.632250 -0.609002
O5    O     O_R   0.385350 0.316760 0.500000 -0.613587
O6    O     O_R   0.614690 0.316790 0.500010 -0.614282
O7    O     O_R   0.450830 0.500000 0.367750 -0.620823
O8    O     O_R   0.680170 0.500030 0.367760 -0.617263
Zn1   Zn    Zn3+2 0.346870 0.499980 0.499990 0.942878
Zn2   Zn    Zn3+2 0.653130 0.500020 0.500010 0.949405
C37   C     C_1   0.751860 0.361422 0.794050 0.144802
N3    N     N_1   0.799184 0.327010 0.717532 -0.218254

loop_
_geom_bond_atom_site_label_1
_geom_bond_atom_site_label_2
_ccdc_geom_bond_type
C31   O7    A    
O7    Zn1   S    
C18   H3    S    
C31   C33   S    
N1    Zn2   S    
C5    C11   A    
C37   N3    T    
C36   H20   S    
N2    Zn1   S    
C29   C30   S    
C12   O3    A    
C9    C10   A    
C1    C17   S    
C19   C20   A    
C3    C34   A    
C20   C23   S    
O3    Zn1   S    
C4    C8    A    
C23   O6    A    
C14   C33   A    
C2    C3    A    
C7    H1    S    
C16   C24   S    
C29   H13   S    
C21   C22   S    
C12   C32   S    
C25   C28   A    
C31   O8    A    
C26   N1    A    
C6    H21   S    
C28   C29   S    
C13   H2    S    
C22   H6    S    
C11   C15   A    
C15   H12   S    
C29   H11   S    
O6    Zn2   S    
C2    C4    A    
O5    Zn1   S    
C27   H10   S    
C23   O5    A    
C30   H15   S    
C34   H18   S    
C6    C7    A    
C3    C7    A    
C10   C11   A    
C26   C27   A    
C5    C6    A    
C24   H8    S    
C22   C24   S    
C28   N2    A    
C22   H5    S    
C9    H17   S    
C25   N1    A    
C2    C36   A    
C32   C35   A    
C32   C36   A    
C18   C19   A    
C20   C21   A    
O1    Zn1   S    
C17   C18   A    
C34   C35   A    
C19   H4    S    
C1    O1    A    
O2    Zn2   S    
C25   C30   S    
C12   O4    A    
C24   H7    S    
C16   C21   A    
C4    C5    A    
C27   N2    A    
C26   H9    S    
C30   H14   S    
C13   C14   A    
C8    C37   S    
C15   C33   A    
C35   H19   S    
C14   H16   S    
O4    Zn2   S    
C16   C17   A    
C8    C9    A    
O8    Zn2   S    
C10   C13   A    
C1    O2    A    
