data_mof_unit_38961.cif
_audit_creation_date              2012-12-10T18:50:53-0500
_audit_creation_method            fapswitch 2.2
_symmetry_space_group_name_H-M    P1
_symmetry_Int_Tables_number       1
_space_group_crystal_system       triclinic
_cell_length_a                    10.710762
_cell_length_b                    9.837325
_cell_length_c                    15.72713
_cell_angle_alpha                 89.756051
_cell_angle_beta                  90.324469
_cell_angle_gamma                 90.018099
_cell_volume                      1657.05127196

loop_
_atom_site_label
_atom_site_type_symbol
_atom_type_description
_atom_site_fract_x
_atom_site_fract_y
_atom_site_fract_z
_atom_type_partial_charge
C1    C     C_R   0.259828 0.499966 0.499477 0.862938
C2    C     C_R   0.935858 0.620582 0.480579 -0.200741
C3    C     C_R   0.872502 0.499916 0.498951 -0.016911
C4    C     C_R   0.127379 0.499780 0.498530 -0.009036
C5    C     C_R   0.583285 0.071660 0.548917 -0.073417
C6    C     C_R   0.583286 0.927742 0.548915 -0.073771
C7    C     C_R   0.499648 0.500273 0.338227 0.902222
C8    C     C_R   0.416688 0.928340 0.451014 -0.073410
C9    C     C_R   0.416687 0.072262 0.451015 -0.071577
C10   C     C_R   0.740096 0.500009 0.499707 0.864505
C11   C     C_R   0.500534 0.499694 0.661861 0.910316
C12   C     C_3   0.633401 0.439923 0.951392 -0.513990
C13   C     C_3   0.481447 0.642395 0.048186 -0.453563
C14   C     C_3   0.406030 0.400262 0.049156 -0.486547
C15   C     C_3   0.400898 0.405845 0.951295 -0.423164
C16   C     C_3   0.489432 0.643529 0.950573 -0.400736
C17   C     C_1   0.503337 0.498780 0.750843 -0.195541
C18   C     C_3   0.509385 0.497241 0.082591 0.283001
C19   C     C_3   0.507571 0.497124 0.917768 0.283659
C20   C     C_3   0.842309 0.513537 0.111813 0.111720
C21   C     C_3   0.831065 0.492329 0.208287 -0.324627
C22   C     C_3   0.958151 0.463230 0.248766 -0.983497
C23   C     C_3   0.641167 0.447711 0.051567 0.926775
C24   C     C_3   0.744936 0.225911 0.055247 0.028528
C25   C     C_3   0.671361 0.098345 0.030759 -0.339967
C26   C     C_3   0.755827 0.991821 0.990634 -0.957118
C27   C     C_1   0.505804 0.497781 0.826218 -0.083091
C28   C     C_1   0.504679 0.499912 0.174139 -0.034178
C29   C     C_1   0.501601 0.500732 0.249400 -0.203135
C30   C     C_R   0.063974 0.378866 0.516103 -0.202309
C31   C     C_R   0.063768 0.620493 0.480322 -0.198101
C32   C     C_R   0.936137 0.378947 0.516356 -0.205318
H1    H     H_    0.402545 0.688690 0.923424 0.175109
H2    H     H_    0.568990 0.708356 0.930099 0.182163
H3    H     H_    0.712449 0.497817 0.923201 0.166494
H4    H     H_    0.640277 0.334975 0.926777 0.151340
H5    H     H_    0.112764 0.284989 0.530507 0.157322
H6    H     H_    0.112464 0.714231 0.465697 0.151861
H7    H     H_    0.887548 0.285108 0.530892 0.154608
H8    H     H_    0.886968 0.714350 0.466056 0.158509
H9    H     H_    0.649865 0.125978 0.588047 0.122379
H10   H     H_    0.649866 0.872946 0.588047 0.126973
H11   H     H_    0.908117 0.599274 0.101529 0.152681
H12   H     H_    0.308914 0.446921 0.930159 0.183159
H13   H     H_    0.886614 0.426865 0.079509 0.111379
H14   H     H_    0.791124 0.585292 0.237452 0.220875
H15   H     H_    0.768065 0.405997 0.222828 0.254013
H16   H     H_    0.000060 0.370756 0.220402 0.259738
H17   H     H_    0.946805 0.445842 0.318054 0.284383
H18   H     H_    0.022096 0.550846 0.239272 0.262132
H19   H     H_    0.816308 0.195572 0.103249 0.168647
H20   H     H_    0.797989 0.266608 0.000254 0.114684
H21   H     H_    0.627715 0.054214 0.088607 0.230220
H22   H     H_    0.595422 0.124866 0.985302 0.209283
H23   H     H_    0.350124 0.874021 0.411871 0.121547
H24   H     H_    0.798108 0.032496 0.931420 0.259254
H25   H     H_    0.700137 0.900255 0.974593 0.265278
H26   H     H_    0.831156 0.961685 0.035745 0.265175
H27   H     H_    0.350123 0.127062 0.411871 0.126562
H28   H     H_    0.386142 0.674468 0.067717 0.173504
H29   H     H_    0.313406 0.430014 0.074979 0.179230
H30   H     H_    0.424572 0.294163 0.070563 0.203576
H31   H     H_    0.547860 0.718197 0.075012 0.211479
H32   H     H_    0.409425 0.301101 0.925405 0.173358
N1    N     N_R   0.499970 0.857200 0.499980 -0.078374
N2    N     N_R   0.499970 0.142800 0.499980 -0.078415
O1    O     O_R   0.316750 0.614620 0.499990 -0.628450
O2    O     O_3   0.663969 0.320478 0.094608 -0.695228
O3    O     O_R   0.316750 0.385380 0.499990 -0.630105
O4    O     O_R   0.499990 0.614720 0.377140 -0.616277
O5    O     O_R   0.499990 0.385280 0.377140 -0.607066
O6    O     O_R   0.683220 0.614710 0.500000 -0.629605
O7    O     O_R   0.683220 0.385290 0.500000 -0.627983
O8    O     O_R   0.499980 0.614620 0.622860 -0.612035
O9    O     O_R   0.499980 0.385380 0.622860 -0.614993
O10   O     O_3   0.727182 0.553331 0.074920 -0.700632
Zn1   Zn    Zn3+2 0.499980 0.653120 0.500000 0.944911
Zn2   Zn    Zn3+2 0.499980 0.346880 0.500000 0.947422

loop_
_geom_bond_atom_site_label_1
_geom_bond_atom_site_label_2
_ccdc_geom_bond_type
C24   H20   S    
C22   H16   S    
C7    C29   S    
C14   C18   S    
O1    Zn1   S    
C23   O10   S    
C7    O4    A    
C13   H28   S    
C15   C19   S    
C12   C23   S    
C13   C18   S    
C28   C29   T    
C25   H21   S    
C15   H12   S    
C7    O5    A    
C5    C6    A    
C10   O7    A    
C14   H30   S    
C20   O10   S    
C32   H7    S    
C9    N2    A    
C16   H2    S    
C6    N1    A    
C8    C9    A    
O8    Zn1   S    
O7    Zn2   S    
C12   H4    S    
C19   C27   S    
C20   H13   S    
C22   H18   S    
C24   H19   S    
C8    N1    A    
C21   C22   S    
O4    Zn1   S    
O3    Zn2   S    
C8    H23   S    
C26   H25   S    
N2    Zn2   S    
N1    Zn1   S    
C18   C23   S    
C17   C27   T    
C18   C28   S    
C25   H22   S    
C25   C26   S    
C14   H29   S    
C1    O3    A    
C30   H5    S    
C2    C31   A    
C9    H27   S    
C23   O2    S    
O6    Zn1   S    
C16   H1    S    
C13   H31   S    
C15   H32   S    
C24   C25   S    
C12   H3    S    
C26   H26   S    
C22   H17   S    
C20   H11   S    
C21   H14   S    
C5    H9    S    
C11   C17   S    
C5    N2    A    
C11   O8    A    
C26   H24   S    
C31   H6    S    
C1    C4    S    
C2    C3    A    
C3    C10   S    
C11   O9    A    
C30   C32   A    
C16   C19   S    
C12   C19   S    
C1    O1    A    
C3    C32   A    
O9    Zn2   S    
C4    C31   A    
C24   O2    S    
C2    H8    S    
C20   C21   S    
C6    H10   S    
C13   C16   S    
C14   C15   S    
O5    Zn2   S    
C4    C30   A    
C21   H15   S    
C10   O6    A    
