data_mof_unit_33025.cif
_audit_creation_date              2012-12-10T17:19:01-0500
_audit_creation_method            fapswitch 2.2
_symmetry_space_group_name_H-M    P1
_symmetry_Int_Tables_number       1
_space_group_crystal_system       triclinic
_cell_length_a                    10.200979
_cell_length_b                    10.485895
_cell_length_c                    13.671493
_cell_angle_alpha                 92.420826
_cell_angle_beta                  100.764345
_cell_angle_gamma                 94.811826
_cell_volume                      1429.08751784

loop_
_atom_site_label
_atom_site_type_symbol
_atom_type_description
_atom_site_fract_x
_atom_site_fract_y
_atom_site_fract_z
_atom_type_partial_charge
Br1   Br    Br    0.209620 0.167728 0.651008 -0.481313
Br2   Br    Br    0.943077 0.863397 0.682528 -0.501860
C1    C     C_R   0.054278 0.734821 0.500159 0.959152
C2    C     C_2   0.042749 0.076839 0.583437 0.275624
C3    C     C_2   0.430819 0.511676 0.509072 -0.111813
C4    C     C_2   0.569203 0.487918 0.491347 -0.136210
C5    C     C_R   0.094958 0.516015 0.685784 0.915535
C6    C     C_R   0.906457 0.489041 0.314155 0.861794
C7    C     C_R   0.152473 0.547583 0.790737 -0.060713
C8    C     C_R   0.860859 0.498501 0.207339 -0.060516
C9    C     C_R   0.149701 0.653753 0.950801 -0.188765
C10   C     C_R   0.889499 0.473139 0.036294 -0.203772
C11   C     C_R   0.082954 0.609274 0.855304 -0.169275
C12   C     C_R   0.951516 0.266320 0.512413 0.960896
C13   C     C_R   0.938603 0.464562 0.137711 -0.193136
C14   C     C_R   0.287298 0.530667 0.822012 -0.234121
C15   C     C_R   0.737911 0.546769 0.175680 -0.262053
C16   C     C_R   0.358480 0.583728 0.913434 0.091856
C17   C     C_R   0.687702 0.558527 0.074776 0.096048
C18   C     C_R   0.287063 0.640587 0.980576 0.170280
C19   C     C_R   0.763202 0.516848 0.004208 0.166280
C20   C     C_R   0.497737 0.574872 0.941236 0.070281
C21   C     C_R   0.558691 0.599156 0.042427 0.068865
C22   C     C_R   0.487067 0.659556 0.107887 -0.225207
C23   C     C_R   0.577576 0.541433 0.871429 -0.197403
C24   C     C_R   0.353737 0.682116 0.076440 -0.223154
C25   C     C_R   0.709434 0.515072 0.902762 -0.216436
C26   C     C_2   0.088155 0.872258 0.517539 -0.433554
C27   C     C_2   0.936386 0.132638 0.535645 -0.430826
C28   C     C_2   0.034449 0.938759 0.584449 0.279103
H1    H     H_    0.301559 0.728092 0.128367 0.150924
H2    H     H_    0.540706 0.536910 0.791873 0.149080
H3    H     H_    0.841188 0.076642 0.507486 0.150211
H4    H     H_    0.149118 0.921247 0.470795 0.147535
H5    H     H_    0.578359 0.412887 0.436561 0.167024
H6    H     H_    0.421666 0.586423 0.564098 0.164215
H7    H     H_    0.664864 0.624050 0.590624 0.188250
H8    H     H_    0.335182 0.376067 0.409312 0.168264
H9    H     H_    0.766887 0.486799 0.847622 0.154220
H10   H     H_    0.679106 0.568970 0.230856 0.161234
H11   H     H_    0.335814 0.474585 0.773747 0.181371
H12   H     H_    0.035369 0.428783 0.161384 0.163504
H13   H     H_    0.978470 0.624744 0.831660 0.181357
H14   H     H_    0.094543 0.699301 0.000863 0.153670
H15   H     H_    0.948198 0.441863 0.982963 0.156364
H16   H     H_    0.532916 0.693174 0.183192 0.150343
N1    N     N_2   0.322180 0.446120 0.460900 -0.175413
N2    N     N_2   0.677820 0.553880 0.539100 -0.180972
O1    O     O_R   0.935190 0.693030 0.507870 -0.563150
O2    O     O_R   0.064810 0.306970 0.492130 -0.563730
O3    O     O_R   0.142080 0.658430 0.482770 -0.606843
O4    O     O_R   0.857920 0.341570 0.517230 -0.599977
O5    O     O_R   0.969700 0.527180 0.651960 -0.599669
O6    O     O_R   0.030300 0.472820 0.348040 -0.615398
O7    O     O_R   0.176600 0.492580 0.626860 -0.595926
O8    O     O_R   0.823400 0.507420 0.373140 -0.616302
Zn1   Zn    Zn3+2 0.861850 0.523100 0.516760 0.972781
Zn2   Zn    Zn3+2 0.138150 0.476900 0.483240 0.971445

loop_
_geom_bond_atom_site_label_1
_geom_bond_atom_site_label_2
_ccdc_geom_bond_type
C17   C21   A    
C21   C22   A    
C23   C25   A    
C3    N1    D    
C2    C27   D    
C10   C13   A    
C5    O7    A    
C11   H13   S    
Br2   C28   S    
Br1   C2    S    
C22   H16   S    
C6    O8    A    
C23   H2    S    
C26   C28   D    
C19   C25   A    
C26   H4    S    
N2    Zn1   S    
C18   C24   A    
O3    Zn2   S    
C4    H5    S    
H7    N2    S    
C9    C11   A    
H8    N1    S    
C12   O2    A    
C4    N2    D    
C10   C19   A    
C6    C8    S    
C1    C26   S    
C17   C19   A    
C7    C14   A    
C22   C24   A    
C16   C18   A    
C8    C13   A    
C1    O1    A    
C3    C4    S    
C12   O4    A    
C9    C18   A    
O4    Zn1   S    
C5    O5    A    
C12   C27   S    
O2    Zn2   S    
C3    H6    S    
C27   H3    S    
C9    H14   S    
O1    Zn1   S    
O8    Zn1   S    
C14   C16   A    
O6    Zn2   S    
O7    Zn2   S    
C6    O6    A    
C5    C7    S    
C7    C11   A    
C20   C21   A    
C1    O3    A    
C8    C15   A    
C15   C17   A    
C16   C20   A    
C24   H1    S    
C14   H11   S    
C15   H10   S    
C2    C28   S    
C13   H12   S    
C25   H9    S    
C10   H15   S    
N1    Zn2   S    
C20   C23   A    
O5    Zn1   S    
