data_mof_unit_65067.cif
_audit_creation_date              2012-12-10T18:20:34-0500
_audit_creation_method            fapswitch 2.2
_symmetry_space_group_name_H-M    P1
_symmetry_Int_Tables_number       1
_space_group_crystal_system       triclinic
_cell_length_a                    21.543707
_cell_length_b                    21.545231
_cell_length_c                    21.836189
_cell_angle_alpha                 118.177557
_cell_angle_beta                  118.248013
_cell_angle_gamma                 92.617849
_cell_volume                      7382.41430928

loop_
_atom_site_label
_atom_site_type_symbol
_atom_type_description
_atom_site_fract_x
_atom_site_fract_y
_atom_site_fract_z
_atom_type_partial_charge
Br1   Br    Br    0.858404 0.177005 0.092300 -0.481983
Br2   Br    Br    0.138762 0.821561 0.907594 -0.477157
Br3   Br    Br    0.915472 0.566567 0.680239 -0.443723
Br4   Br    Br    0.084446 0.432812 0.319597 -0.473051
Br5   Br    Br    0.716720 0.421489 0.314640 -0.537533
Br6   Br    Br    0.283302 0.579140 0.685422 -0.537030
C1    C     C_R   0.502454 0.122271 0.502014 0.896070
C2    C     C_3   0.226702 0.792831 0.950928 0.051128
C3    C     C_3   0.722491 0.158114 0.951596 -0.425177
C4    C     C_3   0.275885 0.842030 0.048344 -0.422710
C5    C     C_1   0.838558 0.337529 0.174005 0.048635
C6    C     C_1   0.161274 0.662489 0.826005 0.056284
C7    C     C_1   0.663912 0.162011 0.826089 -0.045395
C8    C     C_1   0.336112 0.838205 0.173927 -0.045001
C9    C     C_1   0.625828 0.124130 0.750995 -0.103272
C10   C     C_1   0.374219 0.876021 0.249018 -0.134000
C11   C     C_3   0.434729 0.171450 0.420541 -0.509931
C12   C     C_R   0.497382 0.877577 0.497688 0.911336
C13   C     C_3   0.565210 0.828521 0.579311 -0.516732
C14   C     C_3   0.436559 0.239591 0.414815 -0.357167
C15   C     C_3   0.563195 0.760581 0.585436 -0.357233
C16   C     C_R   0.581014 0.079689 0.661967 0.952557
C17   C     C_R   0.418998 0.920295 0.338036 0.959092
C18   C     C_3   0.504818 0.252526 0.579748 0.276996
C19   C     C_3   0.494806 0.747257 0.419926 0.273339
C20   C     C_3   0.575989 0.223777 0.509720 -0.296509
C21   C     C_3   0.423983 0.776093 0.490283 -0.296408
C22   C     C_3   0.505859 0.191452 0.504097 0.011078
C23   C     C_3   0.710533 0.208383 0.917572 0.192735
C24   C     C_3   0.493979 0.808430 0.495697 0.021555
C25   C     C_3   0.501458 0.310219 0.500422 0.062351
C26   C     C_3   0.498732 0.689805 0.499627 0.067571
C27   C     C_3   0.493553 0.318571 0.570968 -0.367504
C28   C     C_3   0.507545 0.681922 0.429755 -0.374702
C29   C     C_3   0.576685 0.298368 0.516137 -0.435636
C30   C     C_3   0.423204 0.701244 0.483234 -0.437275
C31   C     C_3   0.686440 0.518352 0.436930 0.250996
C32   C     C_3   0.313672 0.481968 0.563355 0.250318
C33   C     C_3   0.831518 0.562557 0.585402 0.038562
C34   C     C_3   0.289430 0.791793 0.082449 0.183794
C35   C     C_3   0.168521 0.437230 0.414688 0.039386
C36   C     C_3   0.762534 0.558397 0.589916 -0.344882
C37   C     C_3   0.237493 0.441363 0.410155 -0.347792
C38   C     C_3   0.690534 0.500903 0.500528 -0.062941
C39   C     C_3   0.309463 0.499075 0.499479 -0.060913
C40   C     C_3   0.771626 0.421503 0.481266 -0.309377
C41   C     C_3   0.228181 0.578352 0.518331 -0.308689
C42   C     C_3   0.696570 0.421668 0.473227 -0.519607
C43   C     C_3   0.303258 0.578214 0.526412 -0.519760
C44   C     C_R   0.877843 0.497549 0.497758 0.926080
C45   C     C_3   0.719780 0.308669 0.048395 -0.402645
C46   C     C_R   0.122133 0.502431 0.502195 0.927869
C47   C     C_R   0.919045 0.418968 0.338022 0.938013
C48   C     C_R   0.080927 0.581033 0.661981 0.935804
C49   C     C_R   0.377998 0.499408 0.499687 0.958726
C50   C     C_R   0.622000 0.500558 0.500316 0.958939
C51   C     C_R   0.499897 0.378184 0.499941 0.932464
C52   C     C_R   0.500266 0.621827 0.500071 0.933472
C53   C     C_3   0.809883 0.495841 0.497888 -0.042466
C54   C     C_3   0.190091 0.504149 0.502071 -0.040108
C55   C     C_3   0.752605 0.505801 0.428090 -0.047836
C56   C     C_3   0.280860 0.692687 0.951593 -0.407808
C57   C     C_3   0.247484 0.494542 0.572135 -0.049000
C58   C     C_3   0.672210 0.261555 0.951273 -0.367293
C59   C     C_3   0.328562 0.739869 0.048713 -0.353574
C60   C     C_3   0.788149 0.256306 0.949889 -0.403325
C61   C     C_3   0.212530 0.742562 0.050269 -0.416453
C62   C     C_3   0.837833 0.307109 0.047550 0.250951
C63   C     C_3   0.162748 0.691761 0.952603 0.329596
C64   C     C_1   0.875184 0.374565 0.249081 -0.018320
C65   C     C_1   0.124702 0.625439 0.750927 -0.016445
C66   C     C_3   0.793929 0.292176 0.082421 0.100259
C67   C     C_3   0.205921 0.707878 0.917596 0.069429
C68   C     C_3   0.771655 0.207242 0.049008 0.057786
H1    H     H_    0.633074 0.478493 0.374619 0.165628
H2    H     H_    0.259657 0.804925 0.928602 0.162218
H3    H     H_    0.615117 0.228398 0.926401 0.187834
H4    H     H_    0.385187 0.773981 0.073468 0.187920
H5    H     H_    0.686822 0.294425 0.069642 0.188928
H6    H     H_    0.313234 0.707778 0.930237 0.190937
H7    H     H_    0.383135 0.153545 0.416961 0.207520
H8    H     H_    0.616730 0.846000 0.582575 0.208292
H9    H     H_    0.431275 0.123853 0.365672 0.182924
H10   H     H_    0.568927 0.876408 0.634190 0.182299
H11   H     H_    0.444974 0.228625 0.364563 0.196830
H12   H     H_    0.367020 0.521989 0.625621 0.165710
H13   H     H_    0.554104 0.771607 0.635255 0.197156
H14   H     H_    0.761413 0.371637 0.423299 0.215083
H15   H     H_    0.238340 0.628341 0.576175 0.214889
H16   H     H_    0.381475 0.247305 0.396133 0.202423
H17   H     H_    0.618426 0.753056 0.604859 0.202586
H18   H     H_    0.455958 0.228447 0.576947 0.131383
H19   H     H_    0.543102 0.771537 0.422040 0.123835
H20   H     H_    0.436510 0.318247 0.554673 0.237427
H21   H     H_    0.565290 0.684029 0.447641 0.236312
H22   H     H_    0.628948 0.233188 0.564617 0.236348
H23   H     H_    0.888776 0.291511 0.069569 0.138680
H24   H     H_    0.370854 0.766919 0.435767 0.238735
H25   H     H_    0.574009 0.182978 0.452649 0.172704
H26   H     H_    0.426306 0.816718 0.547657 0.171300
H27   H     H_    0.585261 0.296861 0.469089 0.154926
H28   H     H_    0.414009 0.702124 0.529655 0.154080
H29   H     H_    0.624521 0.345956 0.579211 0.224479
H30   H     H_    0.375698 0.653791 0.419805 0.225651
H31   H     H_    0.532940 0.373200 0.631740 0.244572
H32   H     H_    0.469816 0.626779 0.369125 0.244907
H33   H     H_    0.649047 0.379193 0.407036 0.212371
H34   H     H_    0.111232 0.706539 0.930706 0.158776
H35   H     H_    0.350761 0.620862 0.592553 0.212221
H36   H     H_    0.850278 0.616369 0.593396 0.193006
H37   H     H_    0.149897 0.383531 0.406965 0.193944
H38   H     H_    0.808718 0.416051 0.533809 0.228465
H39   H     H_    0.191003 0.583553 0.465606 0.229322
H40   H     H_    0.758931 0.615245 0.618542 0.205060
H41   H     H_    0.241203 0.384549 0.381742 0.204038
H42   H     H_    0.768949 0.540361 0.632050 0.225940
H43   H     H_    0.230975 0.459180 0.367822 0.224454
H44   H     H_    0.693110 0.404959 0.512923 0.184751
H45   H     H_    0.667224 0.122848 0.928670 0.171859
H46   H     H_    0.306622 0.594695 0.486514 0.184550
H47   H     H_    0.780842 0.554063 0.433339 0.226001
H48   H     H_    0.219355 0.446411 0.567153 0.225907
H49   H     H_    0.731126 0.369311 0.073876 0.253318
H50   H     H_    0.270587 0.632153 0.926183 0.257126
H51   H     H_    0.665350 0.299694 0.929431 0.216599
H52   H     H_    0.336601 0.701768 0.070652 0.237456
H53   H     H_    0.816986 0.218887 0.927287 0.170947
H54   H     H_    0.183148 0.779065 0.072994 0.175817
H55   H     H_    0.780075 0.290157 0.922667 0.242396
H56   H     H_    0.330624 0.878262 0.071225 0.173222
H57   H     H_    0.221754 0.708634 0.077487 0.234666
H58   H     H_    0.607954 0.327986 0.804351 0.389068
H59   H     H_    0.324235 0.753507 0.264159 0.385254
H60   H     H_    0.697349 0.691406 0.581225 0.364188
H61   H     H_    0.302819 0.308965 0.419512 0.363646
H62   H     H_    0.971190 0.397656 0.082326 0.366587
H63   H     H_    0.057961 0.532650 0.926496 0.405365
H64   H     H_    0.749180 0.119107 0.926879 0.218597
H65   H     H_    0.248550 0.880110 0.073047 0.219383
H66   H     H_    0.738226 0.196043 0.071292 0.159458
O1    O     O_R   0.447710 0.092600 0.500010 -0.633849
O2    O     O_R   0.447720 0.907400 0.500040 -0.611484
O3    O     O_R   0.509140 0.061430 0.622880 -0.614424
O4    O     O_R   0.490860 0.938570 0.377120 -0.609093
O5    O     O_R   0.613710 0.061430 0.622840 -0.598330
O6    O     O_R   0.386290 0.938570 0.377160 -0.599238
O7    O     O_R   0.907580 0.552300 0.500030 -0.623435
O8    O     O_R   0.092420 0.447700 0.499970 -0.623426
O9    O     O_R   0.907560 0.447760 0.500050 -0.609363
O10   O     O_R   0.092440 0.552240 0.499950 -0.608611
O11   O     O_R   0.938770 0.490850 0.377130 -0.578694
O12   O     O_R   0.552290 0.907400 0.499990 -0.636947
O13   O     O_R   0.061230 0.509150 0.622870 -0.579300
O14   O     O_R   0.938740 0.386300 0.377150 -0.612421
O15   O     O_R   0.061260 0.613700 0.622850 -0.612890
O16   O     O_R   0.372700 0.465280 0.430600 -0.616437
O17   O     O_R   0.627300 0.534720 0.569400 -0.615162
O18   O     O_2   0.616726 0.223312 0.680693 -0.339742
O19   O     O_2   0.648495 0.348873 0.710614 -0.280661
O20   O     O_3   0.562826 0.316044 0.751356 -0.514791
O21   O     O_2   0.433685 0.693689 0.256687 -0.255654
O22   O     O_2   0.354320 0.644701 0.286364 -0.290535
O23   O     O_R   0.441990 0.534630 0.569310 -0.627568
O24   O     O_3   0.371409 0.778945 0.320767 -0.592227
O25   O     O_2   0.760776 0.665361 0.507516 -0.321216
O26   O     O_2   0.631090 0.606746 0.385336 -0.246614
O27   O     O_3   0.655185 0.645362 0.528822 -0.635784
O28   O     O_2   0.369281 0.394055 0.615627 -0.242949
O29   O     O_2   0.239587 0.335076 0.493416 -0.321334
O30   O     O_3   0.345114 0.354873 0.471968 -0.636026
O31   O     O_2   0.808397 0.428834 0.046934 -0.245068
O32   O     O_2   0.916144 0.454888 0.178398 -0.245900
O33   O     O_3   0.929001 0.411943 0.053685 -0.479489
O34   O     O_R   0.558010 0.465370 0.430690 -0.628121
O35   O     O_2   0.085008 0.544470 0.821703 -0.251115
O36   O     O_2   0.194582 0.570421 0.952408 -0.282855
O37   O     O_3   0.074158 0.586377 0.947595 -0.508410
O38   O     O_R   0.465370 0.372730 0.430660 -0.627208
O39   O     O_R   0.534630 0.627270 0.569340 -0.627068
O40   O     O_R   0.534650 0.442080 0.569370 -0.612864
O41   O     O_R   0.465350 0.557920 0.430630 -0.612716
O42   O     O_R   0.552280 0.092600 0.499960 -0.616850
S1    S     S_3+6 0.587202 0.285387 0.682300 0.014955
S2    S     S_3+6 0.411444 0.713433 0.317452 0.014277
S3    S     S_3+6 0.684443 0.611554 0.464457 -0.015367
S4    S     S_3+6 0.315850 0.388906 0.536302 -0.014269
S5    S     S_3+6 0.872300 0.404114 0.084267 0.060806
S6    S     S_3+6 0.129797 0.594595 0.915933 0.045780
Zn1   Zn    Zn3+2 0.430180 0.000000 0.500030 1.025899
Zn2   Zn    Zn3+2 0.569820 0.000000 0.499970 1.028629
Zn3   Zn    Zn3+2 0.000200 0.569810 0.499990 1.075688
Zn4   Zn    Zn3+2 0.999800 0.430190 0.500010 1.074516
Zn5   Zn    Zn3+2 0.453740 0.453690 0.407380 1.027477
Zn6   Zn    Zn3+2 0.546260 0.546310 0.592620 1.030399

loop_
_geom_bond_atom_site_label_1
_geom_bond_atom_site_label_2
_ccdc_geom_bond_type
C44   O7    A    
O8    Zn4   S    
C60   C62   S    
C15   H13   S    
C21   H24   S    
C19   H19   S    
C40   H38   S    
C40   C53   S    
O26   S3    D    
C45   H49   S    
C58   H3    S    
C26   C52   S    
C27   H20   S    
C48   O13   A    
C56   H50   S    
C5    C64   T    
C41   C43   S    
O35   S6    D    
C61   C63   S    
H58   O20   S    
O37   S6    S    
O4    Zn2   S    
C32   H12   S    
C54   C57   S    
Br1   C68   S    
C26   C30   S    
C7    C23   S    
C13   C15   S    
O29   S4    D    
C46   O10   A    
C29   H29   S    
C51   O38   A    
O5    Zn2   S    
C43   H46   S    
Br4   C35   S    
O32   S5    D    
O27   S3    S    
C2    H2    S    
C11   C14   S    
C60   H53   S    
C30   H28   S    
H61   O30   S    
C62   H23   S    
C32   C39   S    
O12   Zn2   S    
C46   C54   S    
C37   H41   S    
C41   C54   S    
C36   H40   S    
C9    C16   S    
C31   S3    S    
C48   C65   S    
C62   S5    S    
O7    Zn3   S    
C34   C61   S    
C16   O3    A    
C25   C27   S    
O6    Zn1   S    
C63   C67   S    
C52   O39   A    
C12   C24   S    
C13   H8    S    
O41   Zn5   S    
O18   S1    D    
O20   S1    S    
C11   H7    S    
C56   C59   S    
C19   S2    S    
C3    C23   S    
C20   H25   S    
C60   H55   S    
O11   Zn3   S    
C31   H1    S    
C23   C58   S    
Br3   C33   S    
C47   O14   A    
C46   O8    A    
C6    C67   S    
C21   C24   S    
C35   C37   S    
C36   C38   S    
C12   O12   A    
C47   C64   S    
C18   H18   S    
C17   O6    A    
C63   H34   S    
O36   S6    D    
C33   C36   S    
C40   H14   S    
C33   H36   S    
C20   H22   S    
C49   O16   A    
C15   C26   S    
C40   C42   S    
C21   H26   S    
C53   C55   S    
O28   S4    D    
O17   Zn6   S    
C28   H32   S    
C12   O2    A    
C27   H31   S    
C28   H21   S    
C35   C54   S    
C66   C68   S    
C48   O15   A    
C5    C66   S    
C42   H44   S    
O23   Zn6   S    
C32   S4    S    
O2    Zn1   S    
C68   H66   S    
O25   S3    D    
C1    C22   S    
C50   O34   A    
C11   H9    S    
C26   C28   S    
Br6   C57   S    
C4    H56   S    
O22   S2    D    
C50   O17   A    
O24   S2    S    
C3    H64   S    
C38   C50   S    
C16   O5    A    
C39   C43   S    
C62   C66   S    
C33   C53   S    
C14   H11   S    
O30   S4    S    
O3    Zn1   S    
Br5   C55   S    
C56   C67   S    
C37   C39   S    
C63   S6    S    
O15   Zn3   S    
C37   H43   S    
C36   H42   S    
C6    C65   T    
C41   H15   S    
C10   C17   S    
C34   C59   S    
C52   O41   A    
C3    H45   S    
C8    C10   T    
C17   O4    A    
C3    C68   S    
C44   C53   S    
C13   H10   S    
H59   O24   S    
C1    O1    A    
C57   H48   S    
O40   Zn6   S    
C43   H35   S    
C32   C57   S    
C15   H17   S    
C56   H6    S    
C19   C24   S    
C41   H39   S    
O14   Zn4   S    
H62   O33   S    
O33   S5    S    
O9    Zn4   S    
C59   H4    S    
C1    O42   A    
C11   C22   S    
C61   H57   S    
C45   C58   S    
C18   C22   S    
C55   H47   S    
C29   H27   S    
C51   O40   A    
C31   C55   S    
C14   C25   S    
C21   C30   S    
C19   C28   S    
C20   C22   S    
C18   C27   S    
C45   C66   S    
O31   S5    D    
C30   H30   S    
C59   H52   S    
C25   C51   S    
O21   S2    D    
C7    C9    T    
O16   Zn5   S    
C49   O23   A    
C61   H54   S    
C44   O9    A    
O10   Zn3   S    
C14   H16   S    
C31   C38   S    
C2    C67   S    
C25   C29   S    
C45   H5    S    
C4    H65   S    
C8    C34   S    
C23   C60   S    
C42   H33   S    
C20   C29   S    
H63   O37   S    
C39   C49   S    
O34   Zn5   S    
C2    C4    S    
C58   H51   S    
C35   H37   S    
Br2   C2    S    
C47   O11   A    
O1    Zn1   S    
H60   O27   S    
C4    C34   S    
O42   Zn2   S    
O19   S1    D    
C13   C24   S    
O39   Zn6   S    
O38   Zn5   S    
C38   C42   S    
C18   S1    S    
O13   Zn4   S    
