data_mof_unit_25946.cif
_audit_creation_date              2012-12-11T17:41:35-0500
_audit_creation_method            fapswitch 2.2
_symmetry_space_group_name_H-M    P1
_symmetry_Int_Tables_number       1
_space_group_crystal_system       triclinic
_cell_length_a                    15.473197
_cell_length_b                    14.851793
_cell_length_c                    15.161515
_cell_angle_alpha                 109.602532
_cell_angle_beta                  121.28054
_cell_angle_gamma                 59.395873
_cell_volume                      2550.91262931

loop_
_atom_site_label
_atom_site_type_symbol
_atom_type_description
_atom_site_fract_x
_atom_site_fract_y
_atom_site_fract_z
_atom_type_partial_charge
C1    C     C_R   0.758562 0.991138 0.790053 -0.121057
C2    C     C_R   0.339317 0.384882 0.106975 -0.071057
C3    C     C_R   0.599108 0.720148 0.856598 -0.215771
C4    C     C_R   0.405065 0.277949 0.093690 -0.236629
C5    C     C_R   0.642507 0.783518 0.944139 -0.078197
C6    C     C_R   0.356976 0.205567 0.046425 -0.087394
C7    C     C_R   0.758281 0.744971 0.005577 0.723008
C8    C     C_R   0.241880 0.241703 0.011683 0.737138
C9    C     C_R   0.828818 0.645063 0.979343 -0.271851
C10   C     C_R   0.176967 0.348529 0.027794 -0.285543
C11   C     C_R   0.784804 0.582922 0.892027 -0.187820
C12   C     C_R   0.199977 0.058694 0.225134 -0.119045
C13   C     C_R   0.225604 0.420090 0.075204 -0.198281
C14   C     C_R   0.572619 0.919826 0.068250 -0.149814
C15   C     C_R   0.417564 0.065572 0.922555 -0.174908
C16   C     C_R   0.201510 0.276237 0.444161 -0.119698
C17   C     C_R   0.775737 0.711828 0.524612 -0.131218
C18   C     C_R   0.502930 0.021083 0.093681 0.018837
C19   C     C_R   0.489294 0.965690 0.897682 0.022063
C20   C     C_R   0.424828 0.094979 0.021039 0.106407
C21   C     C_R   0.567170 0.890849 0.969731 0.082768
C22   C     C_2   0.026266 0.349615 0.468665 -0.206523
C23   C     C_R   0.140018 0.275730 0.485445 0.145551
C24   C     C_2   0.872611 0.604957 0.407068 -0.213110
C25   C     C_2   0.965311 0.417467 0.397340 -0.101935
C26   C     C_2   0.876190 0.514543 0.410831 -0.108960
C27   C     C_2   0.853301 0.114914 0.897112 -0.206175
C28   C     C_2   0.018141 0.044352 0.153523 -0.221606
C29   C     C_R   0.083957 0.729933 0.222514 -0.106922
C30   C     C_R   0.801370 0.115511 0.353834 -0.120799
C31   C     C_R   0.187251 0.662875 0.289566 -0.214669
C32   C     C_R   0.702273 0.202570 0.348832 -0.158857
C33   C     C_R   0.284340 0.635835 0.281376 0.115084
C34   C     C_R   0.808954 0.702719 0.451704 0.147178
C35   C     C_R   0.704191 0.289828 0.423420 0.118961
C36   C     C_R   0.276235 0.678222 0.205862 -0.159314
C37   C     C_R   0.807280 0.288083 0.503036 -0.175098
C38   C     C_R   0.172548 0.745003 0.138670 -0.121658
C39   C     C_R   0.906134 0.200705 0.507821 -0.100441
C40   C     C_R   0.593285 0.217607 0.489453 -0.145786
C41   C     C_R   0.404228 0.769917 0.445545 -0.136282
C42   C     C_R   0.076411 0.770003 0.146371 -0.093182
C43   C     C_R   0.903228 0.114651 0.433147 -0.079972
C44   C     C_R   0.398388 0.462192 0.348100 -0.236109
C45   C     C_R   0.502173 0.299485 0.432022 0.062698
C46   C     C_R   0.593789 0.482518 0.421229 -0.241649
C47   C     C_R   0.501030 0.379236 0.394004 0.061724
C48   C     C_R   0.492443 0.571676 0.400544 0.061143
C49   C     C_R   0.598968 0.384068 0.414600 0.026564
C50   C     C_R   0.392883 0.557619 0.346026 0.018335
C51   C     C_2   0.867183 0.102036 0.987611 -0.117693
C52   C     C_2   0.962261 0.111458 0.081908 -0.095765
C53   C     C_R   0.404250 0.997027 0.716490 -0.149524
C54   C     C_R   0.593474 0.999719 0.279449 -0.153770
C55   C     C_R   0.409261 0.289614 0.412522 -0.116856
C56   C     C_R   0.494478 0.674474 0.451064 0.057473
C57   C     C_R   0.588730 0.692951 0.522326 -0.117349
C58   C     C_R   0.589595 0.923402 0.794098 -0.113936
C59   C     C_R   0.407807 0.070412 0.202798 -0.115474
C60   C     C_R   0.200545 0.185327 0.534996 -0.144721
C61   C     C_R   0.768146 0.802310 0.426906 -0.142165
C62   C     C_R   0.758813 0.084114 0.700109 -0.136099
C63   C     C_R   0.195664 0.970275 0.314904 -0.135497
C64   C     C_R   0.790598 0.067119 0.799560 0.142215
C65   C     C_R   0.134771 0.021603 0.225952 0.147011
C66   C     C_R   0.494588 0.952853 0.803587 0.066868
C67   C     C_R   0.501375 0.039341 0.190597 0.060012
C68   C     C_R   0.670097 0.620448 0.830688 -0.091550
F1    F     F_    0.803040 0.805346 0.088762 -0.762641
F2    F     F_    0.192677 0.173751 0.961565 -0.731781
H1    H     H_    0.773827 0.956038 0.851294 0.094091
H2    H     H_    0.492504 0.252046 0.116502 0.141956
H3    H     H_    0.917815 0.616035 0.026312 0.145059
H4    H     H_    0.088572 0.376194 0.001901 0.147452
H5    H     H_    0.628819 0.862018 0.124294 0.149098
H6    H     H_    0.361140 0.124249 0.867337 0.132705
H7    H     H_    0.827663 0.512809 0.441912 0.125073
H8    H     H_    0.993777 0.412606 0.343164 0.125942
H9    H     H_    0.921757 0.606321 0.376449 0.134485
H10   H     H_    0.997017 0.356092 0.523017 0.131746
H11   H     H_    0.996021 0.820269 0.093245 0.135024
H12   H     H_    0.175370 0.112730 0.174974 0.101125
H13   H     H_    0.979902 0.047312 0.436758 0.099007
H14   H     H_    0.175351 0.329073 0.391939 0.083494
H15   H     H_    0.806325 0.651105 0.570257 0.087888
H16   H     H_    0.009723 0.749996 0.229157 0.176947
H17   H     H_    0.799200 0.048826 0.295983 0.130496
H18   H     H_    0.191470 0.631657 0.347481 0.120308
H19   H     H_    0.624138 0.201960 0.286958 0.118109
H20   H     H_    0.349818 0.657803 0.197707 0.119249
H21   H     H_    0.811225 0.353962 0.561707 0.106536
H22   H     H_    0.166586 0.776672 0.080025 0.126920
H23   H     H_    0.981604 0.997586 0.151999 0.139302
H24   H     H_    0.985071 0.199843 0.569368 0.106384
H25   H     H_    0.321469 0.454260 0.314726 0.131210
H26   H     H_    0.669277 0.489856 0.445269 0.118373
H27   H     H_    0.679754 0.193887 0.511907 0.118096
H28   H     H_    0.317199 0.787293 0.404255 0.122799
H29   H     H_    0.317311 0.023117 0.695816 0.105780
H30   H     H_    0.679379 0.974935 0.297654 0.109215
H31   H     H_    0.323996 0.330826 0.359866 0.085888
H32   H     H_    0.672274 0.634375 0.554500 0.085369
H33   H     H_    0.674759 0.880772 0.846214 0.104240
H34   H     H_    0.898965 0.150274 0.895363 0.151832
H35   H     H_    0.321663 0.106749 0.149428 0.136873
H36   H     H_    0.170877 0.154418 0.563804 0.091112
H37   H     H_    0.782931 0.823537 0.376107 0.105369
H38   H     H_    0.772541 0.137378 0.679855 0.106690
H39   H     H_    0.162944 0.945391 0.345986 0.099907
H40   H     H_    0.997010 0.159532 0.082839 0.135602
H41   H     H_    0.822197 0.066630 0.990263 0.136301
H42   H     H_    0.839645 0.505782 0.871752 0.139747
H43   H     H_    0.174940 0.502911 0.086128 0.159939
H44   H     H_    0.636150 0.572314 0.762913 0.126232
H45   H     H_    0.376551 0.440502 0.141214 0.134768
H46   H     H_    0.510378 0.748108 0.808304 0.145532
N1    N     N_R   0.705410 0.966550 0.689210 -0.047026
N2    N     N_R   0.556610 0.796750 0.548620 -0.038809
N3    N     N_R   0.556610 0.951620 0.703500 -0.043500
N4    N     N_R   0.443390 0.048380 0.296500 -0.044187
N5    N     N_R   0.294590 0.131500 0.522480 -0.041805
N6    N     N_R   0.705410 0.868500 0.477520 -0.042701
N7    N     N_R   0.705410 0.023370 0.632390 -0.044948
N8    N     N_R   0.294590 0.976630 0.367610 -0.044697
N9    N     N_R   0.294590 0.033450 0.310790 -0.046809
N10   N     N_R   0.294590 0.188320 0.465660 -0.045124
N11   N     N_R   0.705410 0.811680 0.534340 -0.043471
N12   N     N_R   0.556610 0.157790 0.497330 -0.040178
N13   N     N_R   0.443390 0.842210 0.502670 -0.042804
N14   N     N_R   0.443390 0.997080 0.657540 -0.039107
N15   N     N_R   0.556610 0.002920 0.342460 -0.036329
N16   N     N_R   0.443390 0.203250 0.451380 -0.040735
Ni1   Ni    Ni4+2 0.629830 0.882720 0.617850 0.218243
Ni2   Ni    Ni4+2 0.370170 0.117280 0.382150 0.208527
Ni3   Ni    Ni4+2 0.629830 0.013030 0.487540 0.218800
Ni4   Ni    Ni4+2 0.370170 0.986970 0.512460 0.208502

loop_
_geom_bond_atom_site_label_1
_geom_bond_atom_site_label_2
_ccdc_geom_bond_type
N9    Ni2   S    
C41   N13   A    
C63   C65   A    
C59   N4    A    
C29   C42   A    
N4    N15   A    
C43   H13   S    
C14   C18   A    
C3    C68   A    
N1    Ni1   S    
C33   C36   A    
C63   N8    A    
C47   C49   A    
C53   H29   S    
C15   C19   A    
C54   N15   A    
C46   C49   A    
N3    Ni1   S    
C17   H15   S    
C14   C21   A    
C35   C37   A    
C24   C26   D    
C38   C42   A    
N15   Ni3   S    
C3    H46   S    
C62   H38   S    
C44   C50   A    
C40   N12   A    
C38   H22   S    
C27   H34   S    
C16   H14   S    
N3    N14   A    
C56   C57   A    
C19   C66   S    
C48   C56   S    
N6    N11   A    
C2    C13   A    
C62   C64   A    
C59   C67   A    
C58   C66   A    
C22   C25   D    
C35   C49   S    
C31   C33   A    
N4    Ni2   S    
C44   C47   A    
C28   C52   D    
C48   C50   A    
C15   H6    S    
C23   C60   A    
C54   H30   S    
C15   C20   A    
C42   H11   S    
C9    H3    S    
N12   N16   A    
C62   N7    A    
C25   C26   S    
C27   C51   D    
C45   C47   S    
C40   C45   A    
C37   C39   A    
C46   C48   A    
N8    N9    A    
C26   H7    S    
C37   H21   S    
C51   C52   S    
C32   C35   A    
C4    C6    A    
N12   Ni3   S    
C40   H27   S    
C5    C7    A    
N8    Ni4   S    
C17   N11   A    
C39   C43   A    
C12   N9    A    
C53   N14   A    
C33   C50   S    
C34   C61   A    
C24   C34   S    
C25   H8    S    
N7    Ni3   S    
C61   N6    A    
C5    C21   S    
C63   H39   S    
C2    C4    A    
C41   C56   A    
C57   H32   S    
N13   Ni4   S    
C2    H45   S    
C24   H9    S    
C32   H19   S    
C52   H40   S    
C12   H12   S    
C59   H35   S    
C53   C66   A    
C9    C11   A    
C45   C55   A    
C29   H16   S    
N2    Ni1   S    
N16   Ni2   S    
C39   H24   S    
C30   C43   A    
C17   C34   A    
C1    C64   A    
C4    H2    S    
C60   H36   S    
C11   C68   A    
C36   H20   S    
C7    C9    A    
C51   H41   S    
C31   H18   S    
C19   C21   A    
C11   H42   S    
C22   C23   S    
N14   Ni4   S    
N11   Ni1   S    
C3    C5    A    
C10   C13   A    
C7    F1    S    
C6    C8    A    
C54   C67   A    
C16   C23   A    
C6    C20   S    
C12   C65   A    
C55   H31   S    
C8    F2    S    
C14   H5    S    
C36   C38   A    
C28   C65   S    
C18   C67   S    
C22   H10   S    
N5    N10   A    
C29   C31   A    
C44   H25   S    
C30   C32   A    
C10   H4    S    
C1    H1    S    
C58   N3    A    
C18   C20   A    
N5    Ni4   S    
N1    N7    A    
C60   N5    A    
C61   H37   S    
N6    Ni3   S    
C27   C64   S    
C46   H26   S    
N10   Ni2   S    
C8    C10   A    
C55   N16   A    
N2    N13   A    
C41   H28   S    
C28   H23   S    
C58   H33   S    
C30   H17   S    
C1    N1    A    
C16   N10   A    
C13   H43   S    
C68   H44   S    
C57   N2    A    
