data_mof_unit_31947.cif
_audit_creation_date              2013-03-05T16:02:03-0500
_audit_creation_method            fapswitch 2.2
_symmetry_space_group_name_H-M    P1
_symmetry_Int_Tables_number       1
_space_group_crystal_system       triclinic
_cell_length_a                    6.932011
_cell_length_b                    17.381267
_cell_length_c                    19.68145
_cell_angle_alpha                 108.427626
_cell_angle_beta                  89.37344
_cell_angle_gamma                 90.567691
_cell_volume                      2249.58034073

loop_
_atom_site_label
_atom_site_type_symbol
_atom_site_description
_atom_site_fract_x
_atom_site_fract_y
_atom_site_fract_z
_atom_type_partial_charge
O1    O     O_R   0.494330 0.415720 0.413720 -0.595453
O2    O     O_R   0.819330 0.430070 0.560210 -0.604954
O3    O     O_R   0.994320 0.584280 0.586280 -0.600948
C1    C     C_R   0.650629 0.417614 0.583885 1.057470
O4    O     O_R   0.823730 0.406300 0.412670 -0.572573
O5    O     O_R   0.998760 0.560340 0.437690 -0.607900
C2    C     C_R   0.654841 0.381493 0.386066 1.020038
O6    O     O_R   0.489890 0.439660 0.562310 -0.573108
O7    O     O_3   0.662340 0.550560 0.508380 -0.286577
V1    V     V_3+5 0.935370 0.490620 0.498450 1.201910
O8    O     O_R   0.328750 0.569930 0.439790 -0.595181
C3    C     C_R   0.160808 0.585446 0.418507 0.938162
O9    O     O_R   0.324340 0.593700 0.587330 -0.602041
C4    C     C_R   0.154950 0.616666 0.614734 0.921756
V2    V     V_3+5 0.435940 0.509380 0.501550 1.198336
O10   O     O_3   0.159100 0.449440 0.491620 -0.249174
H1    H     H_    0.441948 0.864114 0.587122 0.165277
C5    C     C_R   0.969533 0.594176 0.738867 -0.186759
C6    C     C_R   0.880779 0.579701 0.797010 -0.209368
C7    C     C_R   0.888469 0.637847 0.863610 -0.106023
C8    C     C_R   0.983177 0.712025 0.873010 0.324133
C9    C     C_R   0.053431 0.732936 0.812401 -0.046171
C10   C     C_R   0.053936 0.670603 0.744428 0.123532
C11   C     C_R   0.126058 0.812148 0.817478 -0.289720
C12   C     C_R   0.213167 0.825274 0.756000 0.108161
C13   C     C_R   0.221747 0.761330 0.689557 0.112283
C14   C     C_R   0.143238 0.684031 0.683852 -0.276754
C15   C     C_R   0.290767 0.902087 0.758814 -0.075258
C16   C     C_R   0.373657 0.915411 0.698738 -0.071465
C17   C     C_R   0.379560 0.853270 0.633971 -0.090204
C18   C     C_R   0.303576 0.777291 0.628992 -0.158597
H2    H     H_    0.971161 0.543747 0.689916 0.132095
H3    H     H_    0.814599 0.521243 0.791091 0.150919
H4    H     H_    0.832436 0.622542 0.909338 0.195649
H5    H     H_    0.288154 0.953342 0.807025 0.165768
H6    H     H_    0.432019 0.974611 0.702414 0.138235
H7    H     H_    0.307694 0.731873 0.576738 0.130512
C19   C     C_R   0.301914 0.631486 0.319994 -0.140261
C20   C     C_R   0.152974 0.635526 0.369852 -0.174254
C21   C     C_R   0.994899 0.686596 0.372355 -0.182163
C22   C     C_R   0.985349 0.734390 0.326308 0.058777
C23   C     C_R   0.135620 0.728895 0.275660 0.015752
C24   C     C_R   0.293245 0.676996 0.272505 0.154745
C25   C     C_R   0.830301 0.787724 0.329477 0.307437
C26   C     C_R   0.823718 0.832821 0.281806 -0.263107
C27   C     C_R   0.970992 0.827105 0.231082 0.151315
C28   C     C_R   0.128920 0.775436 0.228197 0.015022
C29   C     C_R   0.279546 0.770012 0.177716 0.016000
C30   C     C_R   0.433908 0.716318 0.174302 0.321528
C31   C     C_R   0.440144 0.671055 0.221719 -0.243906
C32   C     C_R   0.962331 0.872309 0.183209 -0.159968
C33   C     C_R   0.112143 0.868453 0.133614 -0.142238
C34   C     C_R   0.270949 0.818008 0.131912 -0.094942
H8    H     H_    0.423410 0.591777 0.317371 0.127078
H9    H     H_    0.881100 0.689252 0.411058 0.180555
H10   H     H_    0.702776 0.872812 0.284652 0.167700
H11   H     H_    0.840183 0.911500 0.185235 0.120915
H12   H     H_    0.386018 0.815666 0.093781 0.201373
H13   H     H_    0.560514 0.630697 0.218595 0.167937
C35   C     C_R   0.476823 0.189101 0.869690 -0.160341
C36   C     C_R   0.625379 0.133927 0.868136 -0.320311
C37   C     C_R   0.780420 0.126007 0.818913 0.335053
C38   C     C_R   0.787851 0.174833 0.773432 -0.020831
C39   C     C_R   0.635232 0.228894 0.775051 0.002638
C40   C     C_R   0.478777 0.235382 0.822868 0.121570
C41   C     C_R   0.942159 0.169495 0.724937 -0.133632
C42   C     C_R   0.946508 0.217362 0.679834 -0.206598
C43   C     C_R   0.795086 0.270415 0.680811 0.123160
C44   C     C_R   0.637701 0.275876 0.728001 0.068517
C45   C     C_R   0.482366 0.327906 0.727848 0.135725
C46   C     C_R   0.327334 0.333461 0.775564 -0.214059
C47   C     C_R   0.326064 0.287957 0.822906 -0.128777
C48   C     C_R   0.798163 0.317542 0.634830 -0.175388
C49   C     C_R   0.643268 0.368756 0.633497 -0.119655
C50   C     C_R   0.485004 0.373328 0.679988 -0.224819
H14   H     H_    0.358564 0.196074 0.907620 0.197680
H15   H     H_    0.061106 0.128556 0.721467 0.177080
H16   H     H_    0.068195 0.212350 0.643656 0.159395
H17   H     H_    0.920490 0.313146 0.599010 0.175150
H18   H     H_    0.365665 0.413093 0.679698 0.131586
H19   H     H_    0.206805 0.372954 0.776235 0.146743
H20   H     H_    0.204363 0.293267 0.859112 0.181537
H21   H     H_    0.307091 0.136605 0.414975 0.172510
C51   C     C_R   0.816742 0.395641 0.255065 -0.250202
C52   C     C_R   0.897117 0.405776 0.193289 -0.224338
C53   C     C_R   0.888464 0.343335 0.127984 0.420484
C54   C     C_R   0.796183 0.270396 0.125566 -0.297324
C55   C     C_R   0.715442 0.258072 0.187823 0.083147
C56   C     C_R   0.727037 0.321750 0.254249 0.136508
C57   C     C_R   0.617784 0.184743 0.183804 -0.247185
C58   C     C_R   0.530297 0.175249 0.246188 0.105407
C59   C     C_R   0.552260 0.236457 0.314271 -0.046803
C60   C     C_R   0.646682 0.311579 0.317872 -0.285938
C61   C     C_R   0.424414 0.103706 0.242025 -0.187343
C62   C     C_R   0.336971 0.092865 0.301880 -0.192173
C63   C     C_R   0.364803 0.149500 0.368334 -0.135143
C64   C     C_R   0.478972 0.218699 0.376093 0.341902
H22   H     H_    0.825273 0.447188 0.303197 0.141445
H23   H     H_    0.965269 0.463204 0.196718 0.175233
H24   H     H_    0.785703 0.223882 0.074115 0.160482
H25   H     H_    0.407068 0.054535 0.192697 0.131825
H26   H     H_    0.254477 0.038176 0.297118 0.147158
O11   O     O_R   0.775200 0.060470 0.937800 -0.554746
O12   O     O_R   0.441110 0.093720 0.087350 -0.605095
O13   O     O_R   0.266330 0.939630 0.062280 -0.610438
C65   C     C_R   0.609438 0.117036 0.114695 0.909328
O14   O     O_R   0.445750 0.069950 0.939820 -0.592587
O15   O     O_R   0.271000 0.915700 0.913700 -0.589172
C66   C     C_R   0.615174 0.084719 0.917826 1.012079
O16   O     O_R   0.770530 0.084400 0.086380 -0.609542
O17   O     O_3   0.602830 0.949510 0.991680 -0.259299
V3    V     V_3+5 0.329710 0.009370 0.001550 1.230421
O18   O     O_R   0.940990 0.906170 0.912570 -0.570956
C67   C     C_R   0.110834 0.882109 0.885496 1.069401
O19   O     O_R   0.936350 0.929940 0.060100 -0.570273
C68   C     C_R   0.103986 0.917258 0.083727 1.027575
V4    V     V_3+5 0.829160 0.990450 0.998310 1.261416
O20   O     O_3   0.105910 0.050480 0.008320 -0.269277
Br1   Br    Br    0.625174 0.803755 0.398984 -0.605184
Br2   Br    Br    0.637708 0.699163 0.104401 -0.464769
N1    N     N_R   0.924175 0.065445 0.812325 0.221999
O21   O     O_R   0.098918 0.086760 0.834081 -0.453169
O22   O     O_R   0.877733 0.988945 0.788044 -0.448921
N2    N     N_R   0.971010 0.354199 0.064071 0.237603
O23   O     O_R   0.055482 0.422165 0.066305 -0.375585
O24   O     O_R   0.963760 0.296123 0.003125 -0.420913
N3    N     N_R   0.539646 0.262320 0.447037 0.204748
O25   O     O_R   0.416443 0.273700 0.499614 -0.427015
O26   O     O_R   0.723094 0.265464 0.461036 -0.443106
N4    N     N_R   0.032734 0.757906 0.944662 0.204126
O27   O     O_R   0.907819 0.763655 0.995788 -0.368260
O28   O     O_R   0.214458 0.769995 0.960739 -0.432771

loop_
_geom_bond_atom_site_label_1
_geom_bond_atom_site_label_2
_geom_bond_distance
_ccdc_geom_bond_type
C54   C55   1.417437 A    
C22   C23   1.416677 A    
C11   C67   1.500732 S    
C48   C49   1.407237 A    
O13   C68   1.296363 A    
N4    O28   1.300993 A    
C62   C63   1.380105 A    
C1    O6    1.300146 A    
C36   C66   1.489638 S    
O12   C65   1.296881 A    
C52   C53   1.397141 A    
C33   C34   1.407664 A    
C12   C15   1.419369 A    
C16   H6    1.083073 S    
C13   C14   1.416124 A    
C16   C17   1.386534 A    
C31   H13   1.084112 S    
N2    O24   1.301967 A    
C15   C16   1.391922 A    
O18   C67   1.303905 A    
C44   C45   1.413645 A    
O5    C3    1.296141 A    
C17   C18   1.391601 A    
C30   Br2   1.919361 S    
O19   C68   1.302651 A    
C5    C6    1.383798 A    
O14   V3    2.000613 S    
O15   C67   1.295166 A    
O8    V2    1.995308 S    
C6    C7    1.380338 A    
C26   H10   1.083999 S    
C43   C44   1.409265 A    
O19   V4    1.995266 S    
C45   C46   1.403173 A    
O1    V2    2.005188 S    
C10   C14   1.419852 A    
C4    C14   1.490163 S    
C50   H18   1.084453 S    
C1    C49   1.483049 S    
C36   C37   1.417178 A    
C62   H26   1.083261 S    
C64   N3    1.427792 S    
C7    H4    1.083198 S    
C55   C56   1.423514 A    
C41   C42   1.395327 A    
C38   C41   1.409766 A    
C13   C18   1.418017 A    
C8    C9    1.431834 A    
C56   C60   1.425565 A    
H1    C17   1.082718 S    
O14   C66   1.298373 A    
O11   V4    1.993611 S    
C42   H16   1.084087 S    
O16   V4    2.011098 S    
C59   C64   1.433404 A    
C33   C68   1.488470 S    
C29   C34   1.410603 A    
C2    C60   1.500152 S    
C49   C50   1.407477 A    
C42   C43   1.400001 A    
C11   C12   1.427069 A    
C61   H25   1.078602 S    
C6    H3    1.083312 S    
C20   C21   1.407684 A    
O12   V3    2.009548 S    
C53   C54   1.401848 A    
C25   Br1   1.922309 S    
C43   C48   1.399390 A    
C26   C27   1.402065 A    
C27   C32   1.406716 A    
C35   H14   1.084151 S    
C32   C33   1.404856 A    
C18   H7    1.080837 S    
C35   C36   1.407630 A    
O2    C1    1.295539 A    
N3    O26   1.301071 A    
C37   C38   1.415108 A    
C52   H23   1.082978 S    
C28   C29   1.416430 A    
C19   H8    1.084616 S    
C34   H12   1.081374 S    
C21   H9    1.081672 S    
C63   C64   1.401421 A    
C48   H17   1.084463 S    
C39   C44   1.414955 A    
C51   C52   1.392249 A    
C57   C65   1.492221 S    
N1    O21   1.300028 A    
O3    C4    1.293159 A    
C32   H11   1.084474 S    
C21   C22   1.412140 A    
O13   V3    1.996235 S    
C55   C57   1.417508 A    
C35   C40   1.401657 A    
O6    V2    1.993327 S    
O9    V2    2.006566 S    
C53   N2    1.441401 S    
C22   C25   1.414275 A    
O18   V4    2.006377 S    
C5    H2    1.078284 S    
C23   C24   1.412133 A    
N3    O25   1.301507 A    
O2    V1    2.000693 S    
C58   C59   1.431969 A    
C25   C26   1.401201 A    
O4    C2    1.300532 A    
C54   H24   1.080362 S    
C65   O16   1.295545 A    
C15   H5    1.076964 S    
C41   H15   1.081915 S    
C27   C28   1.412140 A    
C29   C30   1.413877 A    
O17   V3    2.146612 S    
O1    C2    1.297440 A    
O5    V1    1.996439 S    
O8    C3    1.300692 A    
C24   C31   1.400453 A    
C40   C47   1.405146 A    
O17   V4    1.705448 S    
O11   C66   1.298577 A    
C51   H22   1.080380 S    
C39   C40   1.409850 A    
C3    C20   1.485493 S    
N4    O27   1.300526 A    
C12   C13   1.424648 A    
O4    V1    2.009709 S    
O3    V1    2.007100 S    
V1    O10   1.700670 S    
V4    O20   2.155580 S    
C58   C61   1.417943 A    
V3    O20   1.700698 S    
C57   C58   1.418574 A    
C19   C20   1.403391 A    
C5    C10   1.418802 A    
H21   C63   1.083138 S    
C59   C60   1.436629 A    
O7    V1    2.146620 S    
C9    C11   1.435063 A    
C23   C28   1.417247 A    
O7    V2    1.707322 S    
C61   C62   1.383161 A    
C8    N4    1.427178 S    
N1    O22   1.301219 A    
C38   C39   1.415370 A    
O15   V3    2.007092 S    
C19   C24   1.404454 A    
C46   C47   1.399782 A    
C7    C8    1.400939 A    
C30   C31   1.399088 A    
C51   C56   1.416961 A    
C45   C50   1.407256 A    
C9    C10   1.430804 A    
O9    C4    1.299364 A    
C37   N1    1.431632 S    
C47   H20   1.083886 S    
V2    O10   2.155516 S    
N2    O23   1.301691 A    
C46   H19   1.083902 S    
