data_mof_unit_46761.cif
_audit_creation_date              2012-12-11T17:07:32-0500
_audit_creation_method            fapswitch 2.2
_symmetry_space_group_name_H-M    P1
_symmetry_Int_Tables_number       1
_space_group_crystal_system       triclinic
_cell_length_a                    6.953684
_cell_length_b                    14.490245
_cell_length_c                    16.109273
_cell_angle_alpha                 89.979563
_cell_angle_beta                  89.886761
_cell_angle_gamma                 90.085353
_cell_volume                      1623.17469218

loop_
_atom_site_label
_atom_site_type_symbol
_atom_type_description
_atom_site_fract_x
_atom_site_fract_y
_atom_site_fract_z
_atom_type_partial_charge
O1    O     O_R   0.505720 0.583900 0.413310 -0.537022
O2    O     O_R   0.175940 0.594920 0.586080 -0.546006
O3    O     O_R   0.005640 0.416100 0.586690 -0.534324
C1    C     C_R   0.344597 0.616977 0.614848 0.706018
O4    O     O_R   0.176000 0.594930 0.413930 -0.543663
O5    O     O_R   0.005700 0.416110 0.413310 -0.539228
C2    C     C_R   0.344934 0.616906 0.385123 0.691351
O6    O     O_R   0.505660 0.583890 0.586690 -0.535457
O7    O     O_3   0.339200 0.441330 0.500000 -0.369851
V1    V     V_3+5 0.064350 0.510880 0.500000 1.384367
O8    O     O_R   0.675980 0.405080 0.413920 -0.548273
C3    C     C_R   0.844925 0.382971 0.385160 0.685557
O9    O     O_R   0.675920 0.405070 0.586070 -0.537125
C4    C     C_R   0.844998 0.383243 0.614784 0.701297
V2    V     V_3+5 0.564340 0.489120 0.500000 1.392944
O10   O     O_3   0.839360 0.558670 0.500000 -0.372255
H1    H     H_    0.690924 0.071479 0.514459 0.117033
C5    C     C_R   0.988625 0.434639 0.777408 -0.152218
C6    C     C_R   0.055682 0.462028 0.855020 -0.130066
C7    C     C_R   0.058769 0.399737 0.920537 -0.121071
C8    C     C_R   0.998749 0.308985 0.908460 -0.133742
C9    C     C_R   0.935491 0.278331 0.829643 0.069709
C10   C     C_R   0.926862 0.342903 0.762991 0.072013
C11   C     C_R   0.880524 0.185208 0.816724 -0.186073
C12   C     C_R   0.821102 0.156207 0.736727 0.072830
C13   C     C_R   0.810250 0.220981 0.670264 0.068689
C14   C     C_R   0.857688 0.315029 0.683887 -0.187745
C15   C     C_R   0.778335 0.062308 0.720684 -0.141012
C16   C     C_R   0.729925 0.032761 0.641265 -0.130437
C17   C     C_R   0.722873 0.095575 0.576254 -0.122012
C18   C     C_R   0.760379 0.188789 0.590237 -0.130975
H2    H     H_    0.987851 0.486091 0.728913 0.110116
H3    H     H_    0.104550 0.532158 0.864475 0.121273
H4    H     H_    0.108537 0.421741 0.981023 0.109152
H5    H     H_    0.003256 0.263330 0.961558 0.098642
H6    H     H_    0.786019 0.010205 0.768666 0.098202
H7    H     H_    0.700526 0.960456 0.629898 0.109291
H8    H     H_    0.754842 0.234618 0.537267 0.096981
C19   C     C_R   0.728580 0.182508 0.241060 0.061673
C20   C     C_R   0.880423 0.184349 0.183810 -0.106628
C21   C     C_R   0.028807 0.248679 0.197661 -0.173507
H9    H     H_    0.149479 0.252533 0.155367 0.124374
C22   C     C_R   0.016531 0.312950 0.263061 -0.186582
H10   H     H_    0.128372 0.364526 0.269020 0.122320
C23   C     C_R   0.858051 0.313251 0.317960 -0.138989
C24   C     C_R   0.719437 0.243669 0.307806 0.084152
C25   C     C_3   0.505478 0.251531 0.301276 -0.045337
C26   C     C_3   0.517003 0.187000 0.226194 -0.372300
H11   H     H_    0.462018 0.322897 0.284281 0.107937
H12   H     H_    0.484214 0.222453 0.166694 0.142149
H13   H     H_    0.447029 0.118618 0.232345 0.176042
C27   C     C_R   0.500110 0.679991 0.744003 0.068903
C28   C     C_R   0.351891 0.682759 0.685290 -0.113113
C29   C     C_R   0.203886 0.747564 0.698637 -0.188282
H14   H     H_    0.083885 0.751410 0.656192 0.127527
C30   C     C_R   0.215832 0.812400 0.763783 -0.186569
H15   H     H_    0.104218 0.863980 0.769580 0.127820
C31   C     C_R   0.375424 0.813895 0.817820 -0.148334
C32   C     C_R   0.511242 0.743614 0.808548 0.115354
C33   C     C_3   0.725737 0.747684 0.803467 -0.039241
C34   C     C_3   0.712964 0.677643 0.732810 -0.405379
H16   H     H_    0.777118 0.816318 0.781848 0.102219
H17   H     H_    0.773374 0.608792 0.747245 0.169195
H18   H     H_    0.757448 0.706223 0.671702 0.149347
C35   C     C_R   0.505498 0.681458 0.257449 0.097151
C36   C     C_R   0.352937 0.682349 0.314440 -0.111362
C37   C     C_R   0.202152 0.745017 0.299550 -0.177574
H19   H     H_    0.080521 0.747868 0.341318 0.130594
C38   C     C_R   0.213203 0.809206 0.233984 -0.178723
H20   H     H_    0.099380 0.859399 0.227163 0.125848
C39   C     C_R   0.375529 0.812760 0.181458 -0.111103
C40   C     C_R   0.516714 0.745114 0.192739 0.100574
C41   C     C_3   0.728660 0.755571 0.202396 -0.405390
C42   C     C_3   0.716539 0.685877 0.272750 -0.397467
H21   H     H_    0.768897 0.826003 0.223440 0.166909
H22   H     H_    0.808971 0.729622 0.147437 0.175283
H23   H     H_    0.750332 0.715640 0.334608 0.170509
H24   H     H_    0.789379 0.619520 0.258371 0.166833
O11   O     O_R   0.229140 0.916090 0.913340 -0.540835
O12   O     O_R   0.558860 0.905090 0.086080 -0.539171
O13   O     O_R   0.729100 0.083920 0.086690 -0.536138
C43   C     C_R   0.389662 0.883080 0.114882 0.694085
O14   O     O_R   0.558860 0.905090 0.913930 -0.545601
O15   O     O_R   0.729100 0.083920 0.913310 -0.534423
C44   C     C_R   0.389792 0.883516 0.884848 0.706668
O16   O     O_R   0.229140 0.916080 0.086720 -0.540089
O17   O     O_3   0.395570 0.058660 0.000020 -0.365257
V3    V     V_3+5 0.670450 0.989140 0.000000 1.389252
O18   O     O_R   0.058810 0.094980 0.913910 -0.537629
C45   C     C_R   0.890123 0.117344 0.885849 0.699566
O19   O     O_R   0.058810 0.094980 0.086060 -0.545182
C46   C     C_R   0.889708 0.117765 0.114162 0.689111
V4    V     V_3+5 0.170450 0.010950 0.999970 1.393446
O20   O     O_3   0.895460 0.941370 0.999990 -0.378301
C47   C     C_3   0.399561 0.215812 0.379786 -0.269255
C48   C     C_3   0.404844 0.111326 0.393812 -0.782513
H25   H     H_    0.301772 0.075996 0.351906 0.221324
H26   H     H_    0.551520 0.083621 0.383296 0.223525
H27   H     H_    0.360204 0.095783 0.458549 0.217780
H28   H     H_    0.462167 0.250357 0.435070 0.182513
H29   H     H_    0.246874 0.237200 0.377156 0.187271
C49   C     C_3   0.832232 0.713646 0.881876 -0.305227
C50   C     C_3   0.732703 0.635086 0.929203 -0.757324
H30   H     H_    0.594147 0.659124 0.955865 0.217232
H31   H     H_    0.705863 0.575066 0.888082 0.236114
H32   H     H_    0.826142 0.612299 0.981113 0.207057
H33   H     H_    0.978968 0.691140 0.863786 0.180767
H34   H     H_    0.849338 0.772796 0.925006 0.197490

loop_
_geom_bond_atom_site_label_1
_geom_bond_atom_site_label_2
_ccdc_geom_bond_type
O17   V3    S    
V4    O20   S    
C1    C28   S    
C21   C22   A    
C41   C42   S    
C47   C48   S    
C1    O6    A    
C25   H11   S    
C28   C29   A    
C12   C15   A    
C13   C14   A    
C15   C16   A    
C27   C32   A    
O11   V4    S    
C27   C34   S    
O5    C3    A    
C17   C18   A    
V2    O10   S    
C48   H27   S    
C30   H15   S    
C33   H16   S    
C5    C6    A    
C21   H9    S    
C34   H17   S    
C29   H14   S    
O13   C46   A    
O8    V2    S    
C26   H13   S    
C6    C7    A    
C42   H23   S    
C48   H26   S    
C49   H34   S    
O1    V2    S    
C10   C14   A    
C4    C14   S    
O7    V1    S    
O19   C46   A    
C39   C43   S    
C7    H4    S    
C26   H12   S    
C36   C37   A    
C32   C33   S    
C8    C9    A    
H1    C17   S    
C41   H21   S    
C38   H20   S    
O15   C45   A    
C33   C49   S    
C29   C30   A    
V3    O20   S    
C38   C39   A    
C37   H19   S    
C11   C12   A    
O12   C43   A    
C6    H3    S    
C19   C20   A    
O4    C2    A    
C47   H28   S    
C3    C23   S    
C12   C13   A    
C43   O16   A    
C35   C42   S    
C5    C10   A    
C33   C34   S    
C37   C38   A    
C34   H18   S    
O2    C1    A    
C22   H10   S    
C16   C17   A    
O16   V4    S    
O19   V4    S    
C25   C26   S    
C48   H25   S    
C49   H33   S    
C50   H31   S    
C20   C46   S    
C22   C23   A    
O3    C4    A    
C19   C24   A    
C20   C21   A    
O14   C44   A    
O6    V2    S    
O9    V2    S    
C41   H22   S    
C9    C11   A    
C5    H2    S    
O2    V1    S    
C31   C44   S    
O11   C44   A    
C27   C28   A    
C24   C25   S    
O1    C2    A    
O15   V3    S    
C40   C41   S    
C11   C45   S    
O5    V1    S    
O8    C3    A    
C8    H5    S    
C35   C40   A    
C18   H8    S    
C31   C32   A    
O4    V1    S    
O12   V3    S    
O3    V1    S    
V1    O10   S    
C2    C36   S    
O17   V4    S    
C30   C31   A    
O14   V3    S    
C50   H32   S    
O18   V4    S    
C49   C50   S    
O13   V3    S    
C23   C24   A    
C13   C18   A    
C39   C40   A    
C7    C8    A    
C15   H6    S    
C35   C36   A    
C42   H24   S    
C16   H7    S    
C50   H30   S    
C25   C47   S    
C9    C10   A    
O18   C45   A    
O9    C4    A    
C47   H29   S    
O7    V2    S    
C19   C26   S    
