data_mof_unit_30201.cif
_audit_creation_date              2012-12-11T15:48:45-0500
_audit_creation_method            fapswitch 2.2
_symmetry_space_group_name_H-M    P1
_symmetry_Int_Tables_number       1
_space_group_crystal_system       triclinic
_cell_length_a                    10.922214
_cell_length_b                    11.044793
_cell_length_c                    18.759929
_cell_angle_alpha                 90.347952
_cell_angle_beta                  90.196228
_cell_angle_gamma                 60.230698
_cell_volume                      1964.38645309

loop_
_atom_site_label
_atom_site_type_symbol
_atom_type_description
_atom_site_fract_x
_atom_site_fract_y
_atom_site_fract_z
_atom_type_partial_charge
C1    C     C_R   0.241193 0.644626 0.610419 0.543830
C2    C     C_3   0.686739 0.538573 0.799908 -0.252091
C3    C     C_3   0.694169 0.671922 0.813547 0.061679
C4    C     C_3   0.665190 0.646102 0.677444 0.065307
C5    C     C_3   0.811715 0.629057 0.692115 -0.243916
C6    C     C_3   0.643330 0.538852 0.721705 -0.223949
C7    C     C_R   0.724170 0.065481 0.811281 -0.004326
C8    C     C_R   0.835890 0.055436 0.770094 0.020674
C9    C     C_R   0.818439 0.086794 0.697388 0.020519
C10   C     C_R   0.589120 0.109446 0.701514 -0.176738
C11   C     C_R   0.603559 0.085749 0.773994 -0.160057
C12   C     C_R   0.652289 0.620367 0.601738 0.543238
C13   C     C_3   0.929163 0.117479 0.779186 -0.268853
C14   C     C_3   0.921562 0.137980 0.698671 -0.278635
C15   C     C_R   0.686585 0.132406 0.664276 0.009546
C16   C     C_R   0.172065 0.674161 0.834090 0.027992
C17   C     C_R   0.154399 0.577028 0.794121 0.030403
C18   C     C_R   0.170274 0.569220 0.720771 -0.036362
C19   C     C_R   0.206936 0.766748 0.724670 -0.161829
C20   C     C_R   0.201979 0.767095 0.798472 -0.175242
C21   C     C_3   0.224845 0.421566 0.800734 0.004267
C22   C     C_3   0.246748 0.413348 0.720216 -0.220370
C23   C     C_R   0.631963 0.222110 0.600902 0.535838
C24   C     C_R   0.196700 0.663819 0.684511 0.014441
C25   C     C_R   0.676955 0.682842 0.174868 0.021811
C26   C     C_R   0.797666 0.603578 0.216125 0.054701
C27   C     C_R   0.792667 0.598874 0.289029 0.022678
C28   C     C_R   0.545000 0.768495 0.284746 -0.165344
C29   C     C_R   0.551148 0.773038 0.210156 -0.178635
C30   C     C_3   0.905992 0.452974 0.209789 -0.263160
C31   C     C_3   0.904888 0.448305 0.290231 -0.273267
C32   C     C_R   0.663415 0.671124 0.324127 0.015991
C33   C     C_R   0.635179 0.189833 0.168449 0.019568
C34   C     C_R   0.220345 0.649265 0.402230 0.554278
C35   C     C_R   0.514079 0.214529 0.205844 0.015979
C36   C     C_R   0.511849 0.223116 0.278953 0.034612
C37   C     C_R   0.737661 0.210547 0.278867 -0.156492
C38   C     C_R   0.738011 0.206931 0.204551 -0.159535
C39   C     C_3   0.433395 0.137544 0.206522 -0.270188
C40   C     C_3   0.432973 0.145988 0.287001 -0.276709
C41   C     C_R   0.628657 0.208107 0.316943 0.025253
C42   C     C_R   0.117618 0.691402 0.188646 0.026829
C43   C     C_R   0.071401 0.810599 0.231156 0.048887
C44   C     C_R   0.083250 0.802306 0.303786 0.016523
C45   C     C_R   0.643465 0.624430 0.393238 0.552602
C46   C     C_R   0.171606 0.553950 0.294834 -0.156275
C47   C     C_R   0.159586 0.563435 0.220966 -0.164732
C48   C     C_3   0.110355 0.922206 0.227028 -0.264579
C49   C     C_3   0.118186 0.917653 0.307207 -0.273294
C50   C     C_R   0.146100 0.671717 0.335960 0.019349
C51   C     C_R   0.728744 0.040422 0.888841 0.552006
C52   C     C_R   0.720624 0.686879 0.889274 0.537365
C53   C     C_R   0.116846 0.707292 0.905804 0.534613
C54   C     C_R   0.672505 0.111690 0.102287 0.556812
C55   C     C_R   0.698739 0.692281 0.099171 0.546461
C56   C     C_R   0.613308 0.235714 0.392769 0.548380
C57   C     C_R   0.088932 0.712483 0.113792 0.546447
C58   C     C_3   0.554345 0.797020 0.785451 -0.236667
C59   C     C_3   0.551638 0.793583 0.703371 -0.242747
C60   C     C_3   0.820447 0.662077 0.770629 -0.221146
Cr1   Cr    Cr6+3 0.392960 0.397920 0.502240 1.003917
Cr2   Cr    Cr6+3 0.398340 0.708480 0.501250 0.998123
Cr3   Cr    Cr6+3 0.708670 0.393570 0.496460 1.001863
Cr4   Cr    Cr6+3 0.937650 0.938540 0.007610 1.004229
Cr5   Cr    Cr6+3 0.625330 0.937370 0.994520 0.993428
Cr6   Cr    Cr6+3 0.937940 0.625230 0.001190 0.997405
H1    H     H_    0.700283 0.433132 0.699495 0.129025
H2    H     H_    0.920281 0.576767 0.792151 0.134766
H3    H     H_    0.895595 0.520189 0.680061 0.131837
H4    H     H_    0.490362 0.129383 0.677756 0.134675
H5    H     H_    0.511849 0.097086 0.801415 0.167381
H6    H     H_    0.035949 0.043546 0.798306 0.139897
H7    H     H_    0.876231 0.216144 0.810032 0.127705
H8    H     H_    0.881484 0.245838 0.681167 0.142706
H9    H     H_    0.021109 0.063317 0.671347 0.135120
H10   H     H_    0.227603 0.842664 0.699757 0.127869
H11   H     H_    0.462911 0.790989 0.807142 0.113453
H12   H     H_    0.218570 0.842321 0.827816 0.121926
H13   H     H_    0.150109 0.385910 0.817084 0.116941
H14   H     H_    0.357323 0.369378 0.702556 0.173358
H15   H     H_    0.186340 0.371455 0.691614 0.099327
H16   H     H_    0.445284 0.832684 0.310729 0.125353
H17   H     H_    0.457490 0.842461 0.180277 0.113232
H18   H     H_    0.006740 0.435392 0.187086 0.144632
H19   H     H_    0.863247 0.391189 0.183900 0.131363
H20   H     H_    0.868189 0.378414 0.310277 0.158874
H21   H     H_    0.444257 0.820074 0.685825 0.134695
H22   H     H_    0.004088 0.432278 0.315068 0.130644
H23   H     H_    0.824706 0.209210 0.306521 0.113766
H24   H     H_    0.825973 0.201655 0.175851 0.112899
H25   H     H_    0.496277 0.029617 0.186344 0.174375
H26   H     H_    0.326679 0.199206 0.182594 0.122980
H27   H     H_    0.325871 0.211176 0.309705 0.128802
H28   H     H_    0.497303 0.043218 0.313136 0.144442
H29   H     H_    0.217132 0.451681 0.318414 0.136602
H30   H     H_    0.191673 0.470420 0.189214 0.115529
H31   H     H_    0.024924 0.021350 0.206169 0.142930
H32   H     H_    0.573911 0.873289 0.680870 0.124027
H33   H     H_    0.214435 0.885391 0.201124 0.133103
H34   H     H_    0.225356 0.886596 0.326271 0.161297
H35   H     H_    0.033706 0.012458 0.333531 0.128178
H36   H     H_    0.823129 0.761250 0.775479 0.123548
H37   H     H_    0.830271 0.700312 0.657828 0.117950
H38   H     H_    0.791501 0.445965 0.809972 0.125818
H39   H     H_    0.609476 0.534411 0.836437 0.100220
H40   H     H_    0.529929 0.568823 0.719518 0.118039
O1    O     O_R   0.507380 0.255700 0.581440 -0.535569
O2    O     O_R   0.524480 0.695810 0.424040 -0.508351
O3    O     O_R   0.736390 0.504290 0.414790 -0.524765
O4    O     O_R   0.691300 0.277290 0.422170 -0.510488
O5    O     O_3   0.499990 0.499990 0.499980 -0.248705
O6    O     O_R   0.089400 0.825690 0.930570 -0.532800
O7    O     O_R   0.818460 0.054440 0.929850 -0.499408
O8    O     O_R   0.606060 0.077150 0.915510 -0.531358
O9    O     O_R   0.646550 0.806680 0.917570 -0.525419
O10   O     O_R   0.837170 0.593410 0.915250 -0.529022
O11   O     O_R   0.065200 0.635530 0.931570 -0.506241
O12   O     O_R   0.280320 0.527350 0.578930 -0.505086
O13   O     O_R   0.068260 0.828890 0.091840 -0.521788
O14   O     O_R   0.798870 0.057410 0.079340 -0.502904
O15   O     O_R   0.584930 0.080350 0.076780 -0.524080
O16   O     O_R   0.626960 0.809650 0.067060 -0.506990
O17   O     O_R   0.816040 0.596610 0.076510 -0.518820
O18   O     O_R   0.045610 0.638500 0.081060 -0.506440
O19   O     O_3   0.833640 0.833710 0.001100 -0.265856
O20   O     O_R   0.260510 0.739590 0.584590 -0.532957
O21   O     O_R   0.532300 0.695080 0.573820 -0.512274
O22   O     O_R   0.744840 0.503500 0.576370 -0.531369
O23   O     O_R   0.699120 0.276560 0.571960 -0.504428
O24   O     O_R   0.498940 0.256500 0.419860 -0.520188
O25   O     O_R   0.272500 0.528080 0.429150 -0.510217
O26   O     O_R   0.252060 0.740380 0.423010 -0.525277
H41   H     H_    0.541386 0.896484 0.803644 0.134134
N1    N     N_2   0.353638 0.356771 0.843537 -0.509142
H42   H     H_    0.337225 0.335405 0.894927 0.267114
C61   C     C_3   0.454604 0.405536 0.839736 -0.273962
H43   H     H_    0.557127 0.325483 0.861484 0.165963
H44   H     H_    0.420578 0.499213 0.873668 0.128653
H45   H     H_    0.471145 0.426731 0.784143 0.146050

loop_
_geom_bond_atom_site_label_1
_geom_bond_atom_site_label_2
_ccdc_geom_bond_type
C44   C49   S    
C5    H37   S    
C8    C13   S    
C54   O14   A    
C32   C45   S    
C39   H26   S    
C35   C36   A    
C40   H27   S    
C9    C14   S    
C7    C8    A    
C12   O21   A    
C7    C11   A    
C48   H31   S    
C26   C27   A    
C51   O7    A    
Cr4   O13   S    
Cr6   O10   S    
C18   C24   A    
C14   H8    S    
C28   C29   A    
C29   H17   S    
C10   C15   A    
C49   H35   S    
Cr2   O21   S    
C45   O3    A    
Cr4   O6    S    
Cr2   O2    S    
C30   H18   S    
C23   O23   A    
Cr5   O8    S    
C39   H25   S    
C16   C53   S    
C5    H3    S    
C58   H11   S    
C46   H29   S    
C19   C20   A    
C16   C17   A    
Cr6   O11   S    
C47   H30   S    
C31   H22   S    
Cr5   O15   S    
C4    C12   S    
C43   C48   S    
Cr3   O22   S    
C45   O2    A    
C57   O13   A    
C3    C60   S    
C15   C23   S    
Cr1   O12   S    
C55   O16   A    
C34   O26   A    
C31   H20   S    
C21   C22   S    
Cr3   O5    S    
Cr5   O9    S    
C36   C41   A    
C2    C6    S    
C61   H45   S    
C60   H36   S    
C42   C57   S    
C56   O4    A    
C42   C47   A    
C52   O10   A    
C58   H41   S    
C25   C29   A    
C55   O17   A    
C34   C50   S    
C51   O8    A    
Cr2   O5    S    
C27   C31   S    
C22   H15   S    
Cr2   O26   S    
C28   C32   A    
C1    O20   A    
C61   H44   S    
C39   C40   S    
Cr2   O20   S    
C8    C9    A    
N1    C61   S    
C25   C26   A    
C28   H16   S    
C17   C21   S    
Cr5   O19   S    
Cr3   O3    S    
C35   C39   S    
C43   C44   A    
C41   C56   S    
C37   C38   A    
C36   C40   S    
C16   C20   A    
C23   O1    A    
C21   H13   S    
C17   C18   A    
C6    H40   S    
Cr5   O16   S    
C30   H19   S    
Cr1   O24   S    
C10   H4    S    
C53   O6    A    
C4    C6    S    
C48   C49   S    
C54   O15   A    
C13   H7    S    
C2    H38   S    
C26   C30   S    
Cr6   O18   S    
C42   C43   A    
Cr1   O5    S    
C21   N1    S    
C52   O9    A    
C44   C50   A    
C33   C54   S    
C48   H33   S    
C46   C50   A    
C46   C47   A    
C19   H10   S    
Cr4   O7    S    
C5    C60   S    
C27   C32   A    
C18   C22   S    
C25   C55   S    
C40   H28   S    
C4    C5    S    
C34   O25   A    
C3    C52   S    
N1    H42   S    
C12   O22   A    
C13   H6    S    
C37   H23   S    
C38   H24   S    
C2    H39   S    
C33   C38   A    
Cr4   O14   S    
Cr6   O19   S    
C20   H12   S    
C14   H9    S    
Cr3   O4    S    
C2    C3    S    
C58   C59   S    
C7    C51   S    
C6    H1    S    
C57   O18   A    
C30   C31   S    
C4    C59   S    
C33   C35   A    
C19   C24   A    
C53   O11   A    
C1    O12   A    
Cr3   O23   S    
C37   C41   A    
Cr1   O1    S    
C59   H21   S    
C10   C11   A    
Cr1   O25   S    
C22   H14   S    
C3    C58   S    
C60   H2    S    
C1    C24   S    
Cr4   O19   S    
C59   H32   S    
Cr6   O17   S    
C61   H43   S    
C13   C14   S    
C11   H5    S    
C56   O24   A    
C9    C15   A    
C49   H34   S    
