data_mof_unit_12246.cif
_audit_creation_date              2012-12-11T16:35:21-0500
_audit_creation_method            fapswitch 2.2
_symmetry_space_group_name_H-M    P1
_symmetry_Int_Tables_number       1
_space_group_crystal_system       triclinic
_cell_length_a                    6.933906
_cell_length_b                    17.812236
_cell_length_c                    19.350883
_cell_angle_alpha                 109.0168
_cell_angle_beta                  90.474167
_cell_angle_gamma                 90.594328
_cell_volume                      2259.26408804

loop_
_atom_site_label
_atom_site_type_symbol
_atom_type_description
_atom_site_fract_x
_atom_site_fract_y
_atom_site_fract_z
_atom_type_partial_charge
O1    O     O_R   0.505700 0.440210 0.561730 -0.545217
O2    O     O_R   0.169350 0.406300 0.412660 -0.535511
O3    O     O_R   0.005650 0.559790 0.438270 -0.540336
C1    C     C_R   0.337860 0.383620 0.384423 0.698571
O4    O     O_R   0.175560 0.430650 0.559600 -0.545694
O5    O     O_R   0.011900 0.584320 0.586250 -0.536878
C2    C     C_R   0.344588 0.414894 0.580571 0.679650
O6    O     O_R   0.499450 0.415680 0.413750 -0.533017
O7    O     O_3   0.341370 0.550390 0.508570 -0.367063
V1    V     V_3+5 0.063940 0.490650 0.498410 1.408852
O8    O     O_R   0.682570 0.593700 0.587340 -0.537929
C3    C     C_R   0.852918 0.614631 0.616476 0.717177
O9    O     O_R   0.676370 0.569350 0.440400 -0.543082
C4    C     C_R   0.845156 0.585636 0.419737 0.694271
V2    V     V_3+5 0.564750 0.509350 0.501590 1.414264
O10   O     O_3   0.837190 0.449610 0.491430 -0.366979
C5    C     C_R   0.034615 0.727109 0.324113 -0.203571
H1    H     H_    0.167811 0.758366 0.322219 0.129062
C6    C     C_R   0.026617 0.677752 0.367511 -0.176617
H2    H     H_    0.155136 0.671384 0.397201 0.132933
C7    C     C_R   0.854446 0.638144 0.373399 -0.086918
C8    C     C_R   0.690173 0.649581 0.334983 -0.167417
H3    H     H_    0.556228 0.619453 0.338983 0.122284
C9    C     C_R   0.697881 0.697552 0.289595 0.198244
C10   C     C_R   0.872913 0.736914 0.283823 0.077288
C11   C     C_R   0.772336 0.850353 0.240710 -0.130198
H4    H     H_    0.670852 0.869370 0.285019 0.106968
C12   C     C_R   0.781905 0.891720 0.190425 -0.155068
H5    H     H_    0.685252 0.940744 0.196420 0.110881
C13   C     C_R   0.917953 0.871453 0.134125 -0.049112
C14   C     C_R   0.045842 0.809365 0.129686 -0.167658
H6    H     H_    0.153328 0.792977 0.087263 0.121835
C15   C     C_R   0.032054 0.766273 0.178696 -0.153389
H7    H     H_    0.128185 0.717081 0.172736 0.123617
C16   C     C_R   0.892723 0.785399 0.233990 0.093732
H8    H     H_    0.714020 0.653513 0.947348 0.125266
C17   C     C_R   0.011751 0.897187 0.743954 -0.150977
C18   C     C_R   0.048425 0.906731 0.676650 -0.119165
C19   C     C_R   0.022313 0.843205 0.612573 -0.119494
C20   C     C_R   0.961868 0.769458 0.615452 -0.126530
C21   C     C_R   0.926205 0.757477 0.683220 0.064903
C22   C     C_R   0.948531 0.823136 0.748534 0.064778
C23   C     C_R   0.871288 0.681497 0.686348 -0.175642
C24   C     C_R   0.841916 0.670658 0.755939 0.048683
C25   C     C_R   0.846324 0.739277 0.820286 0.042754
C26   C     C_R   0.904411 0.814415 0.816680 -0.172234
C27   C     C_R   0.812542 0.594449 0.765525 0.156174
C28   C     C_R   0.761529 0.590332 0.834291 -0.094545
C29   C     C_R   0.751358 0.658097 0.894627 -0.173838
C30   C     C_R   0.797978 0.731320 0.888449 -0.139138
H9    H     H_    0.033140 0.948588 0.792218 0.110118
H10   H     H_    0.096286 0.963866 0.674236 0.117449
H11   H     H_    0.049680 0.850958 0.560293 0.115421
H12   H     H_    0.944337 0.722142 0.563848 0.096451
H13   H     H_    0.733823 0.533627 0.842025 0.118179
H14   H     H_    0.796390 0.781606 0.938255 0.112020
C31   C     C_R   0.325905 0.220462 0.383918 -0.134477
C32   C     C_R   0.329137 0.143126 0.386344 -0.117364
C33   C     C_R   0.361463 0.079675 0.323098 -0.118833
C34   C     C_R   0.391204 0.093027 0.256901 -0.143715
C35   C     C_R   0.389203 0.170792 0.252648 0.065515
C36   C     C_R   0.355003 0.235940 0.317541 0.072199
C37   C     C_R   0.420985 0.184083 0.185184 -0.171219
C38   C     C_R   0.415500 0.262537 0.182644 0.071624
C39   C     C_R   0.382176 0.327795 0.247447 0.028726
C40   C     C_R   0.351621 0.314723 0.315230 -0.172980
C41   C     C_R   0.440633 0.277234 0.115784 -0.185692
C42   C     C_R   0.434197 0.353907 0.112435 -0.115860
C43   C     C_R   0.403908 0.418158 0.175575 0.220775
C44   C     C_R   0.378674 0.405277 0.242592 -0.151643
H15   H     H_    0.299732 0.267808 0.434523 0.096154
H16   H     H_    0.306327 0.132394 0.437628 0.115961
H17   H     H_    0.363861 0.019735 0.325320 0.111876
H18   H     H_    0.416553 0.041834 0.209238 0.091956
H19   H     H_    0.465697 0.229672 0.065221 0.107707
H20   H     H_    0.454372 0.363038 0.060275 0.117874
H21   H     H_    0.354467 0.456425 0.290521 0.103100
C45   C     C_R   0.543943 0.297990 0.697389 -0.147623
H22   H     H_    0.685026 0.285010 0.714615 0.097544
C46   C     C_R   0.533516 0.343035 0.650382 -0.165708
H23   H     H_    0.666650 0.361089 0.631273 0.123336
C47   C     C_R   0.354347 0.364416 0.628452 -0.047293
C48   C     C_R   0.185352 0.337435 0.653200 -0.168476
H24   H     H_    0.044679 0.351771 0.636712 0.123131
C49   C     C_R   0.195666 0.291184 0.699404 -0.142446
H25   H     H_    0.062644 0.270352 0.716248 0.097993
C50   C     C_R   0.375290 0.271084 0.722460 0.103163
C51   C     C_R   0.251712 0.228966 0.826895 -0.146619
H26   H     H_    0.135236 0.270845 0.835025 0.116278
C52   C     C_R   0.266204 0.183419 0.873455 -0.213631
H27   H     H_    0.159202 0.190834 0.915568 0.132372
C53   C     C_R   0.418622 0.130233 0.867121 -0.063005
C54   C     C_R   0.555878 0.121850 0.811124 0.159009
C55   C     C_R   0.537854 0.167261 0.764104 -0.141077
H28   H     H_    0.640604 0.159119 0.720510 0.107218
C56   C     C_R   0.387851 0.221795 0.771777 0.044606
O11   O     O_R   0.273230 0.084330 0.086440 -0.533778
O12   O     O_R   0.596660 0.069390 0.940470 -0.538689
O13   O     O_R   0.760270 0.915710 0.913690 -0.536457
C57   C     C_R   0.427942 0.083008 0.917831 0.693972
O14   O     O_R   0.603330 0.093680 0.087390 -0.537296
O15   O     O_R   0.766990 0.940160 0.061660 -0.540995
C58   C     C_R   0.434983 0.115527 0.116085 0.699005
O16   O     O_R   0.266510 0.059870 0.938470 -0.543233
O17   O     O_3   0.431050 0.949630 0.991510 -0.367187
V3    V     V_3+5 0.708490 0.009340 0.001580 1.413315
O18   O     O_R   0.096270 0.930570 0.059390 -0.540782
C59   C     C_R   0.927858 0.916636 0.081887 0.682610
O19   O     O_R   0.089600 0.906290 0.912460 -0.538002
C60   C     C_R   0.919368 0.884003 0.884535 0.697615
V4    V     V_3+5 0.207670 0.990600 0.998190 1.419707
O20   O     O_3   0.935250 0.050360 0.008480 -0.367837
C61   C     C_3   0.851426 0.516002 0.707714 -0.793026
H29   H     H_    0.997810 0.516858 0.685399 0.213864
H30   H     H_    0.848539 0.465893 0.730028 0.188736
H31   H     H_    0.739654 0.502750 0.664413 0.218667
C62   C     C_3   0.401248 0.500845 0.172177 -0.829470
H32   H     H_    0.411132 0.501541 0.115121 0.211108
H33   H     H_    0.265510 0.530279 0.196037 0.214348
H34   H     H_    0.527005 0.534142 0.203554 0.225082
C63   C     C_3   0.718151 0.063365 0.798567 -0.772715
H35   H     H_    0.659840 0.003349 0.793027 0.204746
H36   H     H_    0.797977 0.058843 0.747872 0.196288
H37   H     H_    0.823247 0.082573 0.844754 0.216130
C64   C     C_3   0.521360 0.702889 0.245534 -0.847525
H38   H     H_    0.467312 0.764363 0.262744 0.206127
H39   H     H_    0.556042 0.683529 0.186461 0.225358
H40   H     H_    0.401808 0.664845 0.253373 0.211245

loop_
_geom_bond_atom_site_label_1
_geom_bond_atom_site_label_2
_ccdc_geom_bond_type
C45   C50   A    
C28   H13   S    
C51   C56   A    
C54   C55   A    
C21   C22   A    
V4    O20   S    
C1    O6    A    
C31   C32   A    
C31   C36   A    
V3    O20   S    
C49   H25   S    
C19   H11   S    
C11   H4    S    
C48   H24   S    
C4    C7    S    
C12   H5    S    
C6    C7    A    
C54   C63   S    
C3    C23   S    
C62   H33   S    
O5    C3    A    
C13   C14   A    
C17   H9    S    
C45   C46   A    
C18   H10   S    
V2    O10   S    
C57   O16   A    
C22   C26   A    
C43   C62   S    
C17   C22   A    
C35   C37   A    
C63   H37   S    
C5    C6    A    
O8    V2    S    
C14   H6    S    
C42   C43   A    
C64   H40   S    
O18   C59   A    
C14   C15   A    
O15   C59   A    
O1    V2    S    
O9    C4    A    
O7    V1    S    
C33   H17   S    
C35   C36   A    
C24   C27   A    
C61   H31   S    
O17   V4    S    
C33   C34   A    
O14   C58   A    
C7    C8    A    
C44   H21   S    
C21   C23   A    
C55   H28   S    
C11   C12   A    
C5    H1    S    
C49   C50   A    
C36   C40   A    
C41   C42   A    
C38   C41   A    
C9    C10   A    
C37   C58   S    
C62   H34   S    
C19   C20   A    
O4    C2    A    
C45   H22   S    
C32   C33   A    
C25   C26   A    
O13   C60   A    
C47   C48   A    
C30   H14   S    
C34   C35   A    
O2    C1    A    
C23   C24   A    
C17   C18   A    
C52   C53   A    
C27   C28   A    
C50   C56   S    
C15   H7    S    
C31   H15   S    
C55   C56   A    
C63   H35   S    
O11   C58   A    
O3    C4    A    
C10   C16   S    
C46   C47   A    
C28   C29   A    
C48   C49   A    
C51   C52   A    
C29   C30   A    
O6    V2    S    
C20   H12   S    
O9    V2    S    
C64   H38   S    
C8    C9    A    
C41   H19   S    
O2    V1    S    
C24   C25   A    
C53   C57   S    
C64   H39   S    
C61   H29   S    
O14   V3    S    
C27   C61   S    
O13   V3    S    
C20   C21   A    
C13   C59   S    
O1    C2    A    
O18   V4    S    
C46   H23   S    
O5    V1    S    
O16   V4    S    
O8    C3    A    
C42   H20   S    
O17   V3    S    
O12   C57   A    
O12   V3    S    
C5    C10   A    
C38   C39   A    
C6    H2    S    
O19   V4    S    
O7    V2    S    
C12   C13   A    
C26   C60   S    
V1    O10   S    
C62   H32   S    
C1    C40   S    
C32   H16   S    
C52   H27   S    
C18   C19   A    
C25   C30   A    
O11   V4    S    
C34   H18   S    
C53   C54   A    
C15   C16   A    
O15   V3    S    
C43   C44   A    
C63   H36   S    
C37   C38   A    
C11   C16   A    
O4    V1    S    
C2    C47   S    
C51   H26   S    
C39   C40   A    
O3    V1    S    
C8    H3    S    
C9    C64   S    
O19   C60   A    
H8    C29   S    
C39   C44   A    
C61   H30   S    
