data_mof_unit_13616.cif
_audit_creation_date              2012-12-10T17:32:16-0500
_audit_creation_method            fapswitch 2.2
_symmetry_space_group_name_H-M    P1
_symmetry_Int_Tables_number       1
_space_group_crystal_system       triclinic
_cell_length_a                    12.35493
_cell_length_b                    13.241347
_cell_length_c                    15.006664
_cell_angle_alpha                 76.854711
_cell_angle_beta                  102.065731
_cell_angle_gamma                 117.414013
_cell_volume                      2106.71816504

loop_
_atom_site_label
_atom_site_type_symbol
_atom_type_description
_atom_site_fract_x
_atom_site_fract_y
_atom_site_fract_z
_atom_type_partial_charge
C1    C     C_R   0.854048 0.285904 0.508416 0.836260
C2    C     C_R   0.046719 0.604861 0.079806 0.011696
C3    C     C_R   0.913760 0.289711 0.070849 -0.122515
C4    C     C_R   0.914209 0.290799 0.978050 -0.186413
C5    C     C_R   0.958649 0.395033 0.918753 0.118252
C6    C     C_R   0.003339 0.499926 0.952764 0.099348
C7    C     C_R   0.049294 0.605462 0.892834 0.109855
C8    C     C_R   0.096615 0.709339 0.927014 -0.220137
C9    C     C_R   0.096619 0.709147 0.019805 -0.151799
C10   C     C_R   0.959200 0.396191 0.825770 -0.187247
C11   C     C_R   0.002383 0.500749 0.766853 -0.044048
C12   C     C_R   0.000975 0.500730 0.670641 0.822769
C13   C     C_R   0.047822 0.605112 0.799705 -0.275737
C14   C     C_R   0.268986 0.038309 0.432178 0.213671
C15   C     C_R   0.228143 0.836018 0.461596 -0.119735
C16   C     C_R   0.805542 0.075911 0.561257 0.186738
C17   C     C_R   0.720751 0.960801 0.570172 -0.161511
C18   C     C_R   0.599505 0.928891 0.532409 -0.173994
C19   C     C_R   0.560374 0.011234 0.479729 0.117056
C20   C     C_R   0.646244 0.127546 0.464546 0.032641
C21   C     C_R   0.434740 0.981997 0.449850 -0.011486
C22   C     C_R   0.393247 0.069084 0.423864 0.020768
C23   C     C_R   0.145402 0.713575 0.482536 0.844972
C24   C     C_R   0.479071 0.179774 0.389676 0.171186
C25   C     C_R   0.603904 0.205259 0.405662 -0.170691
C26   C     C_R   0.348705 0.868185 0.447895 0.102191
C27   C     C_R   0.189389 0.921906 0.455712 -0.256246
C28   C     C_R   0.769494 0.161953 0.509021 -0.113931
C29   C     C_R   0.386498 0.408700 0.680288 0.138932
C30   C     C_R   0.744168 0.620072 0.361757 0.091072
C31   C     C_R   0.636494 0.630927 0.324357 -0.215558
C32   C     C_R   0.537982 0.583471 0.375619 -0.080910
C33   C     C_R   0.548377 0.529931 0.467357 -0.015658
C34   C     C_R   0.999666 0.499911 0.329010 0.913979
C35   C     C_R   0.659345 0.517326 0.502277 0.158525
C36   C     C_R   0.453012 0.487759 0.525977 -0.123199
C37   C     C_R   0.481009 0.457199 0.622316 -0.036983
C38   C     C_R   0.602147 0.473618 0.656220 0.398006
C39   C     C_R   0.671252 0.468798 0.596196 0.103011
C40   C     C_R   0.332655 0.478806 0.493990 0.121672
C41   C     C_R   0.269964 0.398844 0.642957 0.059302
C42   C     C_R   0.040845 0.603901 0.172474 0.409114
C43   C     C_R   0.998700 0.498644 0.232183 -0.200079
C44   C     C_R   0.958066 0.393354 0.200300 0.032001
C45   C     C_R   0.957399 0.393180 0.106484 0.072351
C46   C     C_R   0.002206 0.499287 0.046502 -0.040113
Cu1   Cu    Cu3+1 0.098270 0.475420 0.521130 1.006693
Cu2   Cu    Cu3+1 0.901730 0.524580 0.478870 0.964854
H1    H     H_    0.535567 0.839743 0.549112 0.165818
H2    H     H_    0.747321 0.895406 0.611347 0.157133
H3    H     H_    0.666306 0.286224 0.371165 0.194671
H4    H     H_    0.198939 0.364799 0.687590 0.166471
H5    H     H_    0.307088 0.506435 0.423030 0.151618
H6    H     H_    0.819078 0.656229 0.320954 0.120849
H7    H     H_    0.456162 0.592571 0.342591 0.164896
H8    H     H_    0.628836 0.675107 0.254827 0.157373
H9    H     H_    0.878313 0.206654 0.113499 0.183314
H10   H     H_    0.879727 0.209782 0.952638 0.158104
H11   H     H_    0.925043 0.316132 0.798781 0.150919
H12   H     H_    0.082027 0.685483 0.752729 0.140376
H13   H     H_    0.134019 0.790864 0.881999 0.166173
H14   H     H_    0.136366 0.791244 0.044128 0.192790
H15   H     H_    0.096822 0.898590 0.467881 0.188623
N1    N     N_R   0.246280 0.438190 0.553160 -0.196955
N2    N     N_R   0.754320 0.561190 0.447410 -0.194122
O1    O     O_R   0.972510 0.318130 0.526570 -0.531580
O2    O     O_R   0.806530 0.359650 0.490890 -0.574508
O3    O     O_R   0.082980 0.479210 0.647590 -0.593839
O4    O     O_R   0.917000 0.520730 0.611900 -0.574465
O5    O     O_R   0.193470 0.640350 0.509110 -0.565255
O6    O     O_R   0.027490 0.681870 0.473430 -0.594242
O7    O     O_R   0.083000 0.479270 0.388100 -0.559130
O8    O     O_R   0.917020 0.520790 0.352410 -0.602256
O9    O     O_3   0.083366 0.705730 0.207328 -0.569177
C47   C     C_3   0.990164 0.744027 0.187517 -0.287071
H16   H     H_    0.004597 0.797345 0.240101 0.195499
H17   H     H_    0.895663 0.672532 0.188939 0.141397
H18   H     H_    0.996192 0.799298 0.119275 0.168033
I1    I     I_    0.433480 0.302779 0.292434 -0.304116
I2    I     I_    0.199517 0.156106 0.439067 -0.252137
I3    I     I_    0.387811 0.769148 0.376045 -0.364646
I4    I     I_    0.979709 0.105399 0.639784 -0.336002
O10   O     O_3   0.640571 0.462101 0.749686 -0.522554
C48   C     C_3   0.733662 0.569435 0.770429 -0.240018
H19   H     H_    0.813355 0.599741 0.731714 0.157798
H20   H     H_    0.767307 0.559892 0.845004 0.201602
H21   H     H_    0.697242 0.635087 0.756188 0.147302
I5    I     I_    0.400418 0.339575 0.822975 -0.239700
I6    I     I_    0.897758 0.235720 0.295124 -0.334526
I7    I     I_    0.662278 0.300584 0.640006 -0.283382

loop_
_geom_bond_atom_site_label_1
_geom_bond_atom_site_label_2
_ccdc_geom_bond_type
C16   C28   A    
C12   O4    A    
C38   O10   S    
C19   C20   A    
C48   H21   S    
Cu2   O4    S    
C21   C26   A    
C7    C8    A    
C13   H12   S    
C45   C46   A    
C2    C46   A    
C12   O3    A    
C36   C37   A    
C19   C21   A    
C48   H20   S    
C5    C6    A    
C20   C25   A    
C35   N2    A    
C33   C36   A    
C18   C19   A    
C29   I5    S    
C1    O2    A    
Cu1   Cu2   S    
C8    C9    A    
C1    C28   S    
C14   I2    S    
C14   C27   A    
C6    C46   A    
Cu1   O1    S    
C8    H13   S    
C15   C23   S    
C21   C22   A    
C23   O5    A    
C17   C18   A    
C38   C39   A    
C42   O9    S    
O9    C47   S    
C9    H14   S    
C23   O6    A    
C36   C40   A    
C24   C25   A    
Cu1   N1    S    
C16   C17   A    
C15   C26   A    
C20   C28   A    
C3    C45   A    
C35   C39   A    
C47   H16   S    
C25   H3    S    
Cu1   O5    S    
C37   C38   A    
C30   H6    S    
C24   I1    S    
C15   C27   A    
O10   C48   S    
C39   I7    S    
C16   I4    S    
C1    O1    A    
C48   H19   S    
C47   H17   S    
C27   H15   S    
C32   H7    S    
C3    H9    S    
C26   I3    S    
C43   C44   A    
Cu2   N2    S    
C22   C24   A    
C42   C43   A    
Cu2   O6    S    
C29   C37   A    
C3    C4    A    
C34   O7    A    
Cu1   O3    S    
C44   C45   A    
C41   H4    S    
C29   C41   A    
Cu2   O8    S    
C31   C32   A    
C34   C43   S    
C4    C5    A    
C17   H2    S    
C11   C12   S    
C6    C7    A    
C40   N1    A    
C32   C33   A    
C14   C22   A    
C10   H11   S    
C5    C10   A    
C11   C13   A    
C30   C31   A    
C2    C42   A    
C33   C35   A    
C31   H8    S    
Cu2   O2    S    
C47   H18   S    
Cu1   O7    S    
C30   N2    A    
C10   C11   A    
C34   O8    A    
C7    C13   A    
C40   H5    S    
C4    H10   S    
C41   N1    A    
C2    C9    A    
C44   I6    S    
C18   H1    S    
