data_mof_unit_17628.cif
_audit_creation_date              2012-12-11T16:58:15-0500
_audit_creation_method            fapswitch 2.2
_symmetry_space_group_name_H-M    P1
_symmetry_Int_Tables_number       1
_space_group_crystal_system       triclinic
_cell_length_a                    16.952187
_cell_length_b                    7.248966
_cell_length_c                    16.770509
_cell_angle_alpha                 89.999976
_cell_angle_beta                  100.312094
_cell_angle_gamma                 90.000032
_cell_volume                      2027.5693992

loop_
_atom_site_label
_atom_site_type_symbol
_atom_type_description
_atom_site_fract_x
_atom_site_fract_y
_atom_site_fract_z
_atom_type_partial_charge
O1    O     O_R   0.413450 0.494370 0.415710 -0.534589
O2    O     O_R   0.586550 0.994370 0.584290 -0.534590
O3    O     O_R   0.578420 0.819350 0.429360 -0.541392
O4    O     O_R   0.421580 0.319350 0.570640 -0.541392
C1    C     C_R   0.604992 0.656931 0.413964 0.699654
C2    C     C_R   0.395008 0.156931 0.586036 0.699654
O5    O     O_R   0.413570 0.823780 0.406240 -0.541247
O6    O     O_R   0.586430 0.323780 0.593760 -0.541248
O7    O     O_R   0.420530 0.998740 0.561000 -0.535605
O8    O     O_R   0.579470 0.498740 0.439000 -0.535605
C3    C     C_R   0.386409 0.655178 0.383254 0.686029
C4    C     C_R   0.613591 0.155178 0.616745 0.686030
O9    O     O_3   0.502480 0.662320 0.550800 -0.377004
O10   O     O_3   0.497520 0.162320 0.449200 -0.377004
V1    V     V_3+5 0.499540 0.935370 0.490580 1.388962
V2    V     V_3+5 0.500460 0.435370 0.509420 1.388963
C5    C     C_R   0.717732 0.975481 0.711597 0.119583
C6    C     C_R   0.282268 0.475481 0.288403 0.119583
C7    C     C_R   0.679374 0.143568 0.688315 -0.107689
C8    C     C_R   0.320626 0.643568 0.311685 -0.107690
C9    C     C_R   0.703836 0.298154 0.737790 -0.190999
C10   C     C_R   0.296163 0.798154 0.262209 -0.190999
H1    H     H_    0.673705 0.429449 0.725492 0.135721
H2    H     H_    0.326295 0.929449 0.274508 0.135720
C11   C     C_R   0.769689 0.286682 0.802359 -0.188879
C12   C     C_R   0.230311 0.786682 0.197641 -0.188879
H3    H     H_    0.787625 0.409823 0.837466 0.133706
H4    H     H_    0.212375 0.909823 0.162534 0.133706
C13   C     C_R   0.813197 0.120385 0.819325 -0.106527
C14   C     C_R   0.186803 0.620385 0.180675 -0.106527
C15   C     C_R   0.782593 0.964064 0.775255 0.107940
C16   C     C_R   0.217407 0.464064 0.224745 0.107940
C17   C     C_3   0.824113 0.824712 0.731873 -0.412825
C18   C     C_3   0.175887 0.324712 0.268127 -0.412825
C19   C     C_3   0.753193 0.837131 0.662285 -0.412090
C20   C     C_3   0.246808 0.337130 0.337714 -0.412091
H5    H     H_    0.829008 0.688525 0.762749 0.174459
H6    H     H_    0.170992 0.188525 0.237251 0.174459
H7    H     H_    0.880942 0.877867 0.716163 0.170977
H8    H     H_    0.119058 0.377867 0.283837 0.170977
H9    H     H_    0.717279 0.708163 0.653135 0.173060
H10   H     H_    0.282721 0.208163 0.346865 0.173060
H11   H     H_    0.768837 0.897479 0.606158 0.164856
H12   H     H_    0.231163 0.397479 0.393842 0.164856
C21   C     C_R   0.332286 0.160906 0.637722 -0.056118
C22   C     C_R   0.667713 0.660907 0.362278 -0.056118
C23   C     C_R   0.168848 0.106806 0.864321 -0.093625
C24   C     C_R   0.831152 0.606805 0.135679 -0.093624
C25   C     C_R   0.275261 0.923008 0.818820 0.069307
C26   C     C_R   0.724740 0.423006 0.181181 0.069304
C27   C     C_R   0.221250 0.954415 0.872475 -0.165839
C28   C     C_R   0.778751 0.454413 0.127527 -0.165840
C29   C     C_R   0.172357 0.234734 0.802767 -0.244997
C30   C     C_R   0.827643 0.734735 0.197233 -0.244998
C31   C     C_R   0.225478 0.207765 0.748122 0.143016
C32   C     C_R   0.774521 0.707766 0.251877 0.143018
C33   C     C_R   0.277161 0.051496 0.755182 0.103943
C34   C     C_R   0.722839 0.551495 0.244819 0.103943
C35   C     C_R   0.329908 0.029687 0.698716 -0.251181
C36   C     C_R   0.670093 0.529686 0.301285 -0.251181
C37   C     C_R   0.279767 0.312528 0.631642 -0.167648
C38   C     C_R   0.720232 0.812531 0.368357 -0.167649
C39   C     C_R   0.226998 0.335325 0.685778 -0.185060
C40   C     C_R   0.773000 0.835329 0.314220 -0.185061
H13   H     H_    0.371684 0.915848 0.703248 0.119621
H14   H     H_    0.628317 0.415845 0.296753 0.119621
H15   H     H_    0.280388 0.416260 0.585238 0.121523
H16   H     H_    0.719610 0.916264 0.414760 0.121523
H17   H     H_    0.188004 0.454925 0.679506 0.118968
H18   H     H_    0.811994 0.954930 0.320491 0.118968
H19   H     H_    0.218026 0.858145 0.920934 0.119758
H20   H     H_    0.781975 0.358142 0.079067 0.119758
H21   H     H_    0.131681 0.351423 0.795488 0.124692
H22   H     H_    0.868317 0.851426 0.204511 0.124691
O11   O     O_R   0.920630 0.775410 0.061150 -0.533760
O12   O     O_R   0.079370 0.275410 0.938850 -0.533760
O13   O     O_R   0.086500 0.441450 0.093690 -0.536116
O14   O     O_R   0.913500 0.941450 0.906310 -0.536116
C41   C     C_R   0.114610 0.610077 0.115673 0.685206
C42   C     C_R   0.885390 0.110077 0.884327 0.685206
O15   O     O_R   0.921670 0.445960 0.070740 -0.541236
O16   O     O_R   0.078330 0.945960 0.929260 -0.541236
O17   O     O_R   0.913380 0.271130 0.915780 -0.539301
O18   O     O_R   0.086620 0.771130 0.084220 -0.539301
C43   C     C_R   0.895278 0.612630 0.085506 0.696662
C44   C     C_R   0.104722 0.112630 0.914494 0.696661
O19   O     O_3   0.997500 0.603030 0.949220 -0.376141
O20   O     O_3   0.002500 0.103030 0.050780 -0.376140
V3    V     V_3+5 0.000470 0.329940 0.009420 1.387572
V4    V     V_3+5 0.999530 0.829940 0.990580 1.387572
C45   C     C_3   0.329887 0.753614 0.827356 -0.373470
C46   C     C_3   0.320759 0.617290 0.895409 -0.313324
C47   C     C_3   0.378328 0.454705 0.897083 -0.745916
H23   H     H_    0.368535 0.383152 0.837607 0.239152
H24   H     H_    0.441409 0.503394 0.911423 0.221896
H25   H     H_    0.368038 0.354704 0.944331 0.216549
H26   H     H_    0.334163 0.687958 0.955136 0.190249
H27   H     H_    0.258441 0.563013 0.885661 0.201296
H28   H     H_    0.317850 0.676243 0.769176 0.183162
H29   H     H_    0.393139 0.802062 0.837656 0.175059
C48   C     C_3   0.670114 0.253611 0.172646 -0.373457
C49   C     C_3   0.679243 0.117284 0.104593 -0.313310
C50   C     C_3   0.621674 0.954699 0.102918 -0.745922
H30   H     H_    0.631464 0.883148 0.162393 0.239154
H31   H     H_    0.558593 0.003387 0.088575 0.221896
H32   H     H_    0.631964 0.854698 0.055672 0.216549
H33   H     H_    0.665840 0.187952 0.044865 0.190245
H34   H     H_    0.741561 0.063006 0.114343 0.201293
H35   H     H_    0.682151 0.176242 0.230827 0.183157
H36   H     H_    0.606862 0.302061 0.162345 0.175055

loop_
_geom_bond_atom_site_label_1
_geom_bond_atom_site_label_2
_ccdc_geom_bond_type
C48   C49   S    
C2    C21   S    
C29   C31   A    
C20   H10   S    
O1    C3    A    
O2    C4    A    
C2    O7    A    
C46   H27   S    
O14   V4    S    
C24   C30   A    
O13   V3    S    
C47   H23   S    
C27   H19   S    
C22   C38   A    
C18   H8    S    
C7    C9    A    
C41   O18   A    
O14   C42   A    
C33   C35   A    
C34   C36   A    
C25   C33   A    
C37   C39   A    
C38   C40   A    
O11   V4    S    
C17   C19   S    
C30   H22   S    
O11   C43   A    
C39   H17   S    
C25   C27   A    
C31   C39   A    
C26   C28   A    
C32   C40   A    
C49   H34   S    
C40   H18   S    
C45   H29   S    
C19   H11   S    
C18   C20   S    
O19   V4    S    
O12   V3    S    
C23   C29   A    
O15   V3    S    
O5    V1    S    
C36   H14   S    
C47   H24   S    
O18   V4    S    
C25   C45   S    
C42   O17   A    
C46   H26   S    
O13   C41   A    
C11   C13   A    
O17   V3    S    
C30   C32   A    
C3    C8    S    
C26   C34   A    
C23   C44   S    
O4    C2    A    
C45   C46   S    
C23   C27   A    
C48   H36   S    
O16   C44   A    
C17   H5    S    
C16   C18   S    
O4    V2    S    
O5    C3    A    
C28   H20   S    
C37   H15   S    
O6    C4    A    
C15   C17   S    
C49   H33   S    
C50   H31   S    
O1    V2    S    
C17   H7    S    
O2    V1    S    
C14   C41   S    
C8    C10   A    
C12   C14   A    
C47   H25   S    
C31   C33   A    
C5    C15   A    
C10   H2    S    
C20   H12   S    
C6    C16   A    
O12   C44   A    
O3    V1    S    
C9    C11   A    
C21   C35   A    
C22   C36   A    
C18   H6    S    
C24   C43   S    
C29   H21   S    
O3    C1    A    
C11   H3    S    
C1    C22   S    
C12   H4    S    
O16   V4    S    
C38   H16   S    
C9    H1    S    
O7    V1    S    
C1    O8    A    
C13   C15   A    
O8    V2    S    
C35   H13   S    
C14   C16   A    
C13   C42   S    
C6    C20   S    
C4    C7    S    
C21   C37   A    
C46   C47   S    
C5    C7    A    
C32   C34   A    
C50   H32   S    
C6    C8    A    
C49   C50   S    
C19   H9    S    
C24   C28   A    
O20   V3    S    
C26   C48   S    
O6    V2    S    
C10   C12   A    
O9    V2    S    
C50   H30   S    
O10   V1    S    
C5    C19   S    
C45   H28   S    
C48   H35   S    
O15   C43   A    
