data_mof_unit_17454.cif
_audit_creation_date              2012-12-11T14:19:34-0500
_audit_creation_method            fapswitch 2.2
_symmetry_space_group_name_H-M    P1
_symmetry_Int_Tables_number       1
_space_group_crystal_system       triclinic
_cell_length_a                    19.414478
_cell_length_b                    7.244491
_cell_length_c                    17.709284
_cell_angle_alpha                 90.00006
_cell_angle_beta                  107.707411
_cell_angle_gamma                 90.000022
_cell_volume                      2372.76797614

loop_
_atom_site_label
_atom_site_type_symbol
_atom_type_description
_atom_site_fract_x
_atom_site_fract_y
_atom_site_fract_z
_atom_type_partial_charge
O1    O     O_R   0.414820 0.494320 0.416790 -0.540695
O2    O     O_R   0.585180 0.994320 0.583210 -0.540695
O3    O     O_R   0.560270 0.819500 0.430140 -0.543901
O4    O     O_R   0.439730 0.319500 0.569860 -0.543901
C1    C     C_R   0.581379 0.655555 0.414967 0.707371
C2    C     C_R   0.418621 0.155555 0.585033 0.707372
O5    O     O_R   0.413840 0.823740 0.407440 -0.538167
O6    O     O_R   0.586160 0.323740 0.592560 -0.538167
O7    O     O_R   0.437710 0.998590 0.560350 -0.537376
O8    O     O_R   0.562290 0.498590 0.439650 -0.537376
C3    C     C_R   0.387576 0.654931 0.385268 0.735256
C4    C     C_R   0.612424 0.154931 0.614732 0.735256
O9    O     O_3   0.508000 0.662290 0.550200 -0.380182
O10   O     O_3   0.492000 0.162290 0.449800 -0.380182
V1    V     V_3+5 0.498520 0.935380 0.490690 1.399696
V2    V     V_3+5 0.501480 0.435380 0.509310 1.399697
C5    C     C_2   0.785140 0.271753 0.788718 -0.133685
C6    C     C_2   0.214860 0.771753 0.211282 -0.133685
C7    C     C_2   0.820358 0.113470 0.817146 -0.306733
C8    C     C_2   0.179642 0.613470 0.182854 -0.306733
H1    H     H_    0.806996 0.401932 0.816083 0.140439
H2    H     H_    0.193004 0.901932 0.183917 0.140439
H3    H     H_    0.800218 0.981867 0.790539 0.128932
H4    H     H_    0.199782 0.481867 0.209461 0.128932
C9    C     C_2   0.717285 0.284583 0.720624 -0.138619
C10   C     C_2   0.282715 0.784583 0.279376 -0.138619
C11   C     C_2   0.679348 0.138469 0.682548 -0.305037
C12   C     C_2   0.320652 0.638468 0.317452 -0.305037
H5    H     H_    0.697916 0.422844 0.701828 0.138178
H6    H     H_    0.302084 0.922844 0.298172 0.138179
H7    H     H_    0.697258 0.999359 0.700728 0.131095
H8    H     H_    0.302742 0.499359 0.299272 0.131095
C13   C     C_R   0.321900 0.297153 0.632976 -0.205020
C14   C     C_R   0.678100 0.797153 0.367024 -0.205020
C15   C     C_R   0.368719 0.148437 0.633890 -0.103419
C16   C     C_R   0.631281 0.648437 0.366110 -0.103419
C17   C     C_R   0.367387 0.993878 0.681238 -0.171967
C18   C     C_R   0.632613 0.493877 0.318762 -0.171967
C19   C     C_R   0.321014 0.988646 0.728491 0.074046
C20   C     C_R   0.678987 0.488646 0.271509 0.074046
C21   C     C_R   0.273356 0.137109 0.726515 -0.014813
C22   C     C_R   0.726644 0.637109 0.273484 -0.014812
C23   C     C_R   0.272772 0.291659 0.677373 0.070234
C24   C     C_R   0.727228 0.791660 0.322626 0.070234
C25   C     C_R   0.322079 0.837296 0.778089 -0.255280
C26   C     C_R   0.677922 0.337296 0.221911 -0.255279
C27   C     C_R   0.276274 0.830474 0.825986 0.273228
C28   C     C_R   0.723726 0.330474 0.174015 0.273228
C29   C     C_R   0.226887 0.976216 0.822844 0.069271
C30   C     C_R   0.773113 0.476216 0.177156 0.069270
C31   C     C_R   0.226255 0.130672 0.773643 -0.014875
C32   C     C_R   0.773745 0.630673 0.226356 -0.014875
C33   C     C_R   0.178551 0.279050 0.771609 0.072915
C34   C     C_R   0.821448 0.779051 0.228391 0.072914
C35   C     C_R   0.177504 0.430435 0.722033 -0.255198
C36   C     C_R   0.822495 0.930436 0.277966 -0.255198
C37   C     C_R   0.223379 0.437386 0.674221 0.273402
C38   C     C_R   0.776620 0.937387 0.325778 0.273402
C39   C     C_R   0.177815 0.970811 0.867315 -0.203976
C40   C     C_R   0.822185 0.470811 0.132685 -0.203976
C41   C     C_R   0.130864 0.119353 0.866281 -0.101194
C42   C     C_R   0.869136 0.619353 0.133719 -0.101194
C43   C     C_R   0.132114 0.273736 0.818785 -0.170665
C44   C     C_R   0.867885 0.773736 0.181215 -0.170666
H9    H     H_    0.323337 0.416263 0.596534 0.165415
H10   H     H_    0.676662 0.916263 0.403466 0.165415
H11   H     H_    0.176526 0.851838 0.903878 0.166881
H12   H     H_    0.823474 0.351837 0.096122 0.166882
H13   H     H_    0.095806 0.388373 0.817263 0.129207
H14   H     H_    0.904194 0.888374 0.182736 0.129207
H15   H     H_    0.140410 0.543640 0.719853 0.134453
H16   H     H_    0.859589 0.043642 0.280147 0.134453
O11   O     O_R   0.937810 0.773680 0.060480 -0.535208
O12   O     O_R   0.062190 0.273680 0.939520 -0.535208
O13   O     O_R   0.086190 0.439740 0.092580 -0.541963
O14   O     O_R   0.913810 0.939740 0.907420 -0.541963
C45   C     C_R   0.112499 0.608305 0.114732 0.734623
C46   C     C_R   0.887501 0.108305 0.885268 0.734623
O15   O     O_R   0.939760 0.444210 0.069890 -0.543305
O16   O     O_R   0.060240 0.944210 0.930110 -0.543304
O17   O     O_R   0.914790 0.269640 0.916760 -0.536752
O18   O     O_R   0.085210 0.769640 0.083240 -0.536752
C47   C     C_R   0.919046 0.612364 0.084809 0.694984
C48   C     C_R   0.080954 0.112364 0.915191 0.694984
O19   O     O_3   0.992050 0.601530 0.949880 -0.379201
O20   O     O_3   0.007950 0.101530 0.050120 -0.379201
V3    V     V_3+5 0.001480 0.328340 0.009300 1.400550
V4    V     V_3+5 0.998520 0.828340 0.990700 1.400550
N1    N     N_2   0.219282 0.591595 0.623141 -0.522255
H17   H     H_    0.205226 0.713125 0.645031 0.266143
C49   C     C_3   0.175522 0.559895 0.542092 -0.566266
H18   H     H_    0.118137 0.537929 0.539330 0.195331
H19   H     H_    0.195161 0.437631 0.516842 0.202402
H20   H     H_    0.178736 0.682079 0.505454 0.201994
N2    N     N_2   0.780717 0.091597 0.376858 -0.522256
H21   H     H_    0.794773 0.213126 0.354968 0.266144
C50   C     C_3   0.824477 0.059898 0.457907 -0.566268
H22   H     H_    0.881863 0.037936 0.460670 0.195331
H23   H     H_    0.804840 0.937632 0.483157 0.202403
H24   H     H_    0.821261 0.182082 0.494545 0.201995
H25   H     H_    0.403618 0.879146 0.682605 0.127459
H26   H     H_    0.596382 0.379145 0.317396 0.127459
H27   H     H_    0.359146 0.724047 0.780237 0.134359
H28   H     H_    0.640855 0.224045 0.219764 0.134360
N3    N     N_2   0.280406 0.676327 0.877106 -0.522397
H29   H     H_    0.294411 0.554743 0.855210 0.266057
C51   C     C_3   0.324239 0.708083 0.958124 -0.565248
H30   H     H_    0.381609 0.729990 0.960812 0.195054
H31   H     H_    0.321051 0.585951 0.994801 0.201443
H32   H     H_    0.304646 0.830399 0.983389 0.202982
N4    N     N_2   0.719594 0.176326 0.122894 -0.522398
H33   H     H_    0.705590 0.054742 0.144790 0.266057
C52   C     C_3   0.675761 0.208081 0.041876 -0.565246
H34   H     H_    0.618390 0.229979 0.039188 0.195052
H35   H     H_    0.678952 0.085951 0.005199 0.201444
H36   H     H_    0.695351 0.330402 0.016612 0.202982

loop_
_geom_bond_atom_site_label_1
_geom_bond_atom_site_label_2
_ccdc_geom_bond_type
O15   C47   A    
C42   C47   S    
C51   H31   S    
C7    H3    S    
N2    H21   S    
O1    C3    A    
O16   C48   A    
O2    C4    A    
C14   H10   S    
C2    O7    A    
O15   V3    S    
C50   H22   S    
C13   H9    S    
C27   C29   A    
C20   C26   A    
N3    C51   S    
C37   N1    S    
C8    C45   S    
C45   O18   A    
C15   C17   A    
O14   C46   A    
C1    C16   S    
C2    C15   S    
C40   C42   A    
C25   C27   A    
C41   C43   A    
C42   C44   A    
C25   H27   S    
C39   H11   S    
C43   H13   S    
C24   C38   A    
C27   N3    S    
C6    C10   S    
C30   C32   A    
C51   H30   S    
C44   H14   S    
O12   V3    S    
N1    C49   S    
O14   V4    S    
C14   C16   A    
C19   C25   A    
C52   H36   S    
C28   C30   A    
O6    V2    S    
C21   C23   A    
C22   C24   A    
C50   H23   S    
C32   C34   A    
C26   C28   A    
C33   C35   A    
C9    H5    S    
C17   C19   A    
C34   C36   A    
C39   C41   A    
C4    C11   S    
C11   H7    S    
C13   C23   A    
C8    H4    S    
C12   H8    S    
C14   C24   A    
C19   C21   A    
C49   H18   S    
O20   V3    S    
C5    C7    D    
C29   C31   A    
C26   H28   S    
C5    H1    S    
C31   C33   A    
O4    V2    S    
C7    C46   S    
O5    C3    A    
C38   N2    S    
O11   V4    S    
C49   H19   S    
O6    C4    A    
N4    C52   S    
O1    V2    S    
O2    V1    S    
O13   C45   A    
O17   V3    S    
O13   V3    S    
C10   H6    S    
C35   C37   A    
C51   H32   S    
O4    C2    A    
C50   H24   S    
O3    V1    S    
C52   H34   S    
O19   V4    S    
N4    H33   S    
C36   H16   S    
C6    H2    S    
O12   C48   A    
C20   C22   A    
O3    C1    A    
C41   C48   S    
N2    C50   S    
C21   C31   A    
C9    C11   D    
C17   H25   S    
N3    H29   S    
C10   C12   D    
C29   C39   A    
C30   C40   A    
C16   C18   A    
O7    V1    S    
C5    C9    S    
C1    O8    A    
O16   V4    S    
O8    V2    S    
C49   H20   S    
C18   C20   A    
C33   C43   A    
C46   O17   A    
C34   C44   A    
C3    C12   S    
O18   V4    S    
O5    V1    S    
C13   C15   A    
C36   C38   A    
C6    C8    D    
C23   C37   A    
C28   N4    S    
C40   H12   S    
C18   H26   S    
O9    V2    S    
O10   V1    S    
N1    H17   S    
O11   C47   A    
C35   H15   S    
C22   C32   A    
C52   H35   S    
