data_mof_unit_25807.cif
_audit_creation_date              2012-12-10T18:09:00-0500
_audit_creation_method            fapswitch 2.2
_symmetry_space_group_name_H-M    P1
_symmetry_Int_Tables_number       1
_space_group_crystal_system       triclinic
_cell_length_a                    12.683474
_cell_length_b                    13.04859
_cell_length_c                    13.648383
_cell_angle_alpha                 90.140925
_cell_angle_beta                  96.400734
_cell_angle_gamma                 98.089025
_cell_volume                      2222.03493522

loop_
_atom_site_label
_atom_site_type_symbol
_atom_type_description
_atom_site_fract_x
_atom_site_fract_y
_atom_site_fract_z
_atom_type_partial_charge
C1    C     C_R   0.560348 0.691421 0.507176 0.844692
C2    C     C_R   0.474397 0.036684 0.459379 0.045079
C3    C     C_R   0.391385 0.001320 0.382941 0.071733
C4    C     C_R   0.516757 0.497127 0.318474 0.863762
C5    C     C_R   0.388172 0.902880 0.341143 -0.193255
C6    C     C_R   0.459735 0.838096 0.379469 -0.204642
C7    C     C_R   0.474348 0.132380 0.504027 -0.241565
C8    C     C_R   0.324772 0.166465 0.389355 -0.200826
C9    C     C_R   0.599605 0.801953 0.509625 -0.160923
C10   C     C_R   0.899551 0.406632 0.679865 0.315873
C11   C     C_R   0.210608 0.614112 0.371228 0.003338
C12   C     C_1   0.527797 0.496418 0.217454 -0.159013
C13   C     C_R   0.109282 0.640905 0.342322 0.120174
C14   C     C_R   0.025163 0.604457 0.396686 -0.197554
C15   C     C_R   0.041913 0.541544 0.479337 -0.033069
C16   C     C_R   0.440356 0.308665 0.487404 0.935245
C17   C     C_R   0.146662 0.517260 0.506945 0.129578
C18   C     C_R   0.957474 0.498519 0.533645 -0.043826
C19   C     C_R   0.981796 0.453369 0.626598 0.008007
C20   C     C_R   0.087267 0.446619 0.660224 -0.226441
C21   C     C_R   0.163261 0.459078 0.594683 0.368322
C22   C     C_R   0.849198 0.494458 0.497759 -0.038620
C23   C     C_R   0.315055 0.066403 0.349693 0.379642
C24   C     C_R   0.794950 0.402377 0.638172 -0.045913
C25   C     C_R   0.483385 0.503289 0.681544 0.925487
C26   C     C_1   0.472208 0.504121 0.782538 -0.137473
C27   C     C_2   0.455833 0.505093 0.970350 -0.147308
C28   C     C_2   0.543790 0.495638 0.029570 -0.152174
C29   C     C_1   0.537625 0.495801 0.132022 0.023465
C30   C     C_1   0.462120 0.504841 0.867915 0.035003
C31   C     C_3   0.091605 0.709378 0.254857 -0.407705
C32   C     C_3   0.104182 0.654648 0.158742 -0.806432
C33   C     C_3   0.820990 0.993270 0.655384 -0.382808
C34   C     C_R   0.406765 0.199765 0.464486 -0.101419
C35   C     C_3   0.897125 0.917249 0.692802 -0.823558
C36   C     C_R   0.692040 0.839710 0.572760 -0.184578
C37   C     C_R   0.720066 0.946265 0.591370 0.203270
C38   C     C_R   0.649125 0.012666 0.552491 -0.251514
C39   C     C_R   0.554002 0.974693 0.490916 0.094339
C40   C     C_R   0.537913 0.870832 0.459342 0.098086
Cl1   Cl    Cl    0.922470 0.350379 0.796421 -0.624067
Cl2   Cl    Cl    0.237108 0.355874 0.610873 -0.592576
Cl3   Cl    Cl    0.210025 0.028442 0.255299 -0.629937
H1    H     H_    0.619361 0.487844 0.001664 0.172778
H2    H     H_    0.329589 0.874344 0.280055 0.188132
H3    H     H_    0.530002 0.158708 0.567762 0.162263
H4    H     H_    0.739668 0.785331 0.609000 0.173470
H5    H     H_    0.671961 0.094340 0.568762 0.143356
H6    H     H_    0.187104 0.636326 0.158934 0.247393
H7    H     H_    0.046688 0.581895 0.148488 0.272681
H8    H     H_    0.087567 0.705881 0.095735 0.265948
H9    H     H_    0.010040 0.732402 0.249027 0.225121
H10   H     H_    0.149873 0.781502 0.264694 0.236671
H11   H     H_    0.858136 0.860484 0.742807 0.254565
H12   H     H_    0.454388 0.762497 0.344992 0.152904
H13   H     H_    0.922515 0.876179 0.629967 0.259291
H14   H     H_    0.969758 0.960480 0.735054 0.274494
H15   H     H_    0.866074 0.053065 0.612128 0.228537
H16   H     H_    0.797582 0.032897 0.720124 0.228698
H17   H     H_    0.729758 0.369268 0.678198 0.171149
H18   H     H_    0.106397 0.409196 0.729451 0.241422
H19   H     H_    0.822631 0.528997 0.429444 0.138924
H20   H     H_    0.277048 0.642017 0.330595 0.134357
H21   H     H_    0.948114 0.628458 0.374797 0.135795
H22   H     H_    0.380245 0.512887 0.998226 0.168725
H23   H     H_    0.272017 0.219457 0.358298 0.200072
N1    N     N_R   0.773270 0.445590 0.549770 -0.133908
N2    N     N_R   0.227520 0.553880 0.450750 -0.132204
O1    O     O_R   0.631100 0.627590 0.523760 -0.614072
O2    O     O_R   0.455900 0.662370 0.491970 -0.612615
O3    O     O_R   0.600200 0.480080 0.377830 -0.606647
O4    O     O_R   0.425000 0.514870 0.346040 -0.627900
O5    O     O_R   0.544100 0.337630 0.508030 -0.621517
O6    O     O_R   0.368900 0.372410 0.476240 -0.548814
O7    O     O_R   0.575000 0.485130 0.653960 -0.622608
O8    O     O_R   0.399800 0.519920 0.622170 -0.569200
Zn1   Zn    Zn3+2 0.616980 0.476780 0.521230 0.949295
Zn2   Zn    Zn3+2 0.383020 0.523220 0.478770 0.985547

loop_
_geom_bond_atom_site_label_1
_geom_bond_atom_site_label_2
_ccdc_geom_bond_type
C15   C18   A    
C8    H23   S    
C33   H15   S    
C12   C29   T    
O2    Zn2   S    
O1    Zn1   S    
C19   C20   A    
N1    Zn1   S    
C4    O4    A    
C31   H9    S    
C16   O6    A    
C36   C37   A    
O8    Zn2   S    
C11   H20   S    
C5    C6    A    
C8    C23   A    
C23   Cl3   S    
C36   H4    S    
C18   C19   A    
C20   H18   S    
O4    Zn2   S    
C24   N1    A    
C16   C34   S    
C3    C23   A    
C2    C39   A    
C2    C7    A    
C9    C36   A    
C4    C12   S    
C6    H12   S    
C38   H5    S    
C33   H16   S    
C13   C14   A    
C35   H11   S    
N2    Zn2   S    
C32   H6    S    
C16   O5    A    
C7    H3    S    
C1    C9    S    
C39   C40   A    
C10   C24   A    
C25   C26   S    
C5    H2    S    
C28   H1    S    
C9    C40   A    
C33   C37   S    
C25   O7    A    
C32   H8    S    
C37   C38   A    
C27   H22   S    
C22   H19   S    
C31   C32   S    
C10   C19   A    
C24   H17   S    
C14   H21   S    
C8    C34   A    
C31   H10   S    
O7    Zn1   S    
C32   H7    S    
C26   C30   T    
C7    C34   A    
C6    C40   A    
O3    Zn1   S    
C11   N2    A    
C15   C17   A    
C28   C29   S    
C17   N2    A    
C35   H13   S    
C18   C22   A    
C13   C31   S    
C3    C5    A    
C1    O2    A    
C35   H14   S    
C25   O8    A    
C2    C3    A    
C11   C13   A    
C38   C39   A    
C10   Cl1   S    
C33   C35   S    
C1    O1    A    
C22   N1    A    
C21   Cl2   S    
C20   C21   A    
O6    Zn2   S    
C27   C28   D    
O5    Zn1   S    
C14   C15   A    
C4    O3    A    
C27   C30   S    
C17   C21   A    
