data_mof_unit_20137.cif
_audit_creation_date              2012-12-10T18:47:45-0500
_audit_creation_method            fapswitch 2.2
_symmetry_space_group_name_H-M    P1
_symmetry_Int_Tables_number       1
_space_group_crystal_system       triclinic
_cell_length_a                    9.854625
_cell_length_b                    10.708515
_cell_length_c                    15.295051
_cell_angle_alpha                 89.190602
_cell_angle_beta                  69.080325
_cell_angle_gamma                 90.671282
_cell_volume                      1507.27320579

loop_
_atom_site_label
_atom_site_type_symbol
_atom_type_description
_atom_site_fract_x
_atom_site_fract_y
_atom_site_fract_z
_atom_type_partial_charge
C1    C     C_R   0.503476 0.739725 0.495382 0.955763
C2    C     C_R   0.377649 0.928609 0.548457 -0.296780
C3    C     C_R   0.495455 0.127087 0.501499 -0.222277
C4    C     C_R   0.505306 0.872060 0.493031 -0.216286
C5    C     C_R   0.956207 0.417011 0.447436 -0.025129
C6    C     C_R   0.043907 0.583185 0.552404 -0.036113
C7    C     C_R   0.099951 0.417108 0.447466 0.023528
C8    C     C_R   0.900172 0.583218 0.552322 0.026491
C9    C     C_R   0.410151 0.498813 0.676632 0.883605
C10   C     C_R   0.589933 0.498462 0.323753 0.911271
C11   C     C_R   0.358806 0.471691 0.777560 -0.075584
C12   C     C_R   0.497331 0.259854 0.502675 0.951052
C13   C     C_R   0.645153 0.482094 0.222653 -0.062736
C14   C     C_R   0.186426 0.367890 0.914766 -0.199931
C15   C     C_R   0.842080 0.483253 0.073136 -0.191587
C16   C     C_R   0.219050 0.423416 0.826191 -0.129981
C17   C     C_R   0.792580 0.500772 0.169273 -0.123880
C18   C     C_R   0.461989 0.470507 0.820475 -0.208292
C19   C     C_R   0.549121 0.441672 0.179913 -0.208680
C20   C     C_R   0.435793 0.405774 0.904786 0.106023
C21   C     C_R   0.598771 0.413108 0.085064 0.110857
C22   C     C_R   0.293382 0.361163 0.955329 0.121774
C23   C     C_R   0.363285 0.316108 0.088921 0.136981
C24   C     C_R   0.745847 0.441439 0.030446 0.128670
C25   C     C_R   0.545362 0.393956 0.943376 -0.015160
C26   C     C_R   0.501983 0.373048 0.041003 -0.008611
C27   C     C_R   0.696041 0.404376 0.889513 0.140960
C28   C     C_R   0.261033 0.309877 0.045027 -0.228059
C29   C     C_R   0.794114 0.429205 0.933772 -0.233853
C30   C     C_R   0.628783 0.942214 0.438311 0.397639
C31   C     C_R   0.370248 0.056292 0.553255 0.399987
C32   C     C_R   0.622722 0.070435 0.444594 -0.293179
H1    H     H_    0.155346 0.267036 0.081797 0.183881
H2    H     H_    0.284099 0.872108 0.589778 0.204000
H3    H     H_    0.924357 0.350559 0.405385 0.137855
H4    H     H_    0.075765 0.649539 0.594508 0.133576
H5    H     H_    0.176725 0.350626 0.405707 0.159263
H6    H     H_    0.823310 0.649569 0.594399 0.133205
H7    H     H_    0.902435 0.880456 0.455273 0.352056
H8    H     H_    0.307134 0.183232 0.725968 0.344327
H9    H     H_    0.907560 0.442246 0.892126 0.153524
H10   H     H_    0.434274 0.437955 0.220370 0.179036
H11   H     H_    0.564373 0.519452 0.786661 0.172007
H12   H     H_    0.868449 0.532282 0.201313 0.188741
H13   H     H_    0.138527 0.422350 0.793282 0.202828
H14   H     H_    0.079142 0.327768 0.950615 0.158779
H15   H     H_    0.954499 0.505397 0.032138 0.151173
H16   H     H_    0.716416 0.126964 0.403526 0.202988
I1    I     I_    0.310796 0.205659 0.214240 -0.332082
I2    I     I_    0.791261 0.349693 0.747167 -0.272755
N1    N     N_R   0.142780 0.500030 0.500020 -0.085029
N2    N     N_R   0.857220 0.499970 0.499980 -0.077538
O1    O     O_R   0.385370 0.683250 0.500010 -0.631536
O2    O     O_2   0.879878 0.972488 0.290495 -0.271129
O3    O     O_3   0.885870 0.811736 0.417365 -0.521295
O4    O     O_2   0.127620 0.181986 0.573486 -0.240365
O5    O     O_2   0.109512 0.022135 0.692879 -0.290568
O6    O     O_3   0.247892 0.227957 0.695519 -0.550640
O7    O     O_R   0.614630 0.316750 0.499990 -0.629460
O8    O     O_R   0.614700 0.683220 0.500000 -0.568335
O9    O     O_R   0.385300 0.316780 0.500000 -0.549944
O10   O     O_R   0.319830 0.500020 0.632250 -0.587711
O11   O     O_R   0.680170 0.499980 0.367750 -0.596884
O12   O     O_R   0.549160 0.499990 0.632240 -0.618885
O13   O     O_R   0.450840 0.500010 0.367760 -0.628004
O14   O     O_2   0.746547 0.774867 0.304387 -0.283322
S1    S     S_3+6 0.787974 0.875134 0.358376 0.057948
S2    S     S_3+6 0.207049 0.120949 0.629720 0.052801
Zn1   Zn    Zn3+2 0.346870 0.500020 0.500000 1.027301
Zn2   Zn    Zn3+2 0.653130 0.499980 0.500000 1.021711

loop_
_geom_bond_atom_site_label_1
_geom_bond_atom_site_label_2
_ccdc_geom_bond_type
C16   H13   S    
O3    S1    S    
C21   C26   A    
C19   H10   S    
C11   C18   A    
O2    S1    D    
O12   Zn2   S    
C6    N1    A    
C27   C29   A    
C9    O12   A    
C9    C11   S    
C11   C16   A    
C8    N2    A    
C2    C4    A    
C10   O11   A    
C27   I2    S    
C13   C17   A    
C1    C4    S    
O1    Zn1   S    
C14   C22   A    
C6    C8    A    
O14   S1    D    
C7    H5    S    
C17   H12   S    
C7    N1    A    
C5    N2    A    
C22   C28   A    
C23   C28   A    
C3    C31   A    
C12   O9    A    
C32   H16   S    
C2    H2    S    
O8    Zn2   S    
C31   S2    S    
C8    H6    S    
O13   Zn1   S    
C5    H3    S    
O6    S2    S    
C15   C24   A    
C19   C21   A    
C6    H4    S    
C28   H1    S    
C18   C20   A    
C20   C22   A    
C3    C32   A    
C1    O8    A    
C14   C16   A    
C23   I1    S    
C4    C30   A    
N2    Zn2   S    
C20   C25   A    
C21   C24   A    
O7    Zn2   S    
C9    O10   A    
C30   C32   A    
C18   H11   S    
C24   C29   A    
H8    O6    S    
C14   H14   S    
C23   C26   A    
O9    Zn1   S    
C15   C17   A    
C13   C19   A    
C5    C7    A    
C2    C31   A    
C15   H15   S    
C1    O1    A    
C3    C12   S    
O5    S2    D    
N1    Zn1   S    
C29   H9    S    
C25   C26   A    
O4    S2    D    
C12   O7    A    
C10   C13   S    
H7    O3    S    
C30   S1    S    
O10   Zn1   S    
C10   O13   A    
O11   Zn2   S    
C25   C27   A    
