data_mof_unit_6778.cif
_audit_creation_date              2012-12-11T15:08:35-0500
_audit_creation_method            fapswitch 2.2
_symmetry_space_group_name_H-M    P1
_symmetry_Int_Tables_number       1
_space_group_crystal_system       triclinic
_cell_length_a                    26.837599
_cell_length_b                    7.083579
_cell_length_c                    12.144763
_cell_angle_alpha                 90.000268
_cell_angle_beta                  104.403446
_cell_angle_gamma                 90.000738
_cell_volume                      2236.22579369

loop_
_atom_site_label
_atom_site_type_symbol
_atom_type_description
_atom_site_fract_x
_atom_site_fract_y
_atom_site_fract_z
_atom_type_partial_charge
O1    O     O_R   0.437360 0.505910 0.042120 -0.528917
O2    O     O_R   0.562640 0.005910 0.957880 -0.528917
O3    O     O_R   0.542480 0.176660 0.157100 -0.535385
O4    O     O_R   0.457520 0.676660 0.842900 -0.535389
C1    C     C_R   0.555798 0.344986 0.198768 0.716499
C2    C     C_R   0.444202 0.844984 0.801233 0.716511
O5    O     O_R   0.436520 0.176250 0.054800 -0.543153
O6    O     O_R   0.563480 0.676250 0.945200 -0.543155
O7    O     O_R   0.455920 0.005040 0.854840 -0.545750
O8    O     O_R   0.544080 0.505040 0.145160 -0.545749
C3    C     C_R   0.417123 0.343605 0.061267 0.689668
C4    C     C_R   0.582877 0.843607 0.938732 0.689671
O9    O     O_3   0.506490 0.338900 0.934520 -0.376679
O10   O     O_3   0.493510 0.838900 0.065480 -0.376675
V1    V     V_3+5 0.498800 0.064400 0.012150 1.470581
V2    V     V_3+5 0.501200 0.564400 0.987850 1.470571
C5    C     C_R   0.679786 0.757683 0.769105 -0.169503
C6    C     C_R   0.320212 0.257633 0.230880 -0.169513
H1    H     H_    0.597723 0.739508 0.737130 0.113094
H2    H     H_    0.402274 0.239469 0.262858 0.113114
H3    H     H_    0.772787 0.717814 0.734928 0.138512
H4    H     H_    0.227211 0.217756 0.265054 0.138511
H5    H     H_    0.679752 0.704493 0.685357 0.127736
H6    H     H_    0.320244 0.204425 0.314623 0.127725
C7    C     C_R   0.631798 0.844053 0.905596 -0.050466
C8    C     C_R   0.368201 0.344044 0.094400 -0.050476
C9    C     C_R   0.869218 0.917917 0.203603 -0.217924
C10   C     C_R   0.130782 0.417935 0.796395 -0.217925
C11   C     C_R   0.825017 0.982894 0.229855 -0.176889
C12   C     C_R   0.174983 0.482910 0.770144 -0.176879
C13   C     C_R   0.778713 0.995136 0.146237 0.432322
C14   C     C_R   0.221288 0.495145 0.853764 0.432318
C15   C     C_R   0.774003 0.903783 0.039160 -0.026680
C16   C     C_R   0.225997 0.403781 0.960836 -0.026682
C17   C     C_R   0.820534 0.849996 0.010429 0.035880
C18   C     C_R   0.179465 0.349989 0.989565 0.035886
C19   C     C_R   0.725997 0.867005 0.958760 0.107190
C20   C     C_R   0.274002 0.366993 0.041234 0.107191
C21   C     C_R   0.726135 0.800054 0.848333 0.138182
C22   C     C_R   0.273863 0.300019 0.151656 0.138192
C23   C     C_R   0.772489 0.767389 0.819200 -0.196237
C24   C     C_R   0.227509 0.267346 0.180786 -0.196241
C25   C     C_R   0.818948 0.788400 0.899448 -0.174588
C26   C     C_R   0.181050 0.288374 0.100540 -0.174586
C27   C     C_R   0.677989 0.878376 0.986875 -0.087679
C28   C     C_R   0.322011 0.378375 0.013122 -0.087675
C29   C     C_R   0.633054 0.778950 0.797898 -0.181526
C30   C     C_R   0.366945 0.278917 0.202092 -0.181511
C31   C     C_R   0.868133 0.865826 0.092580 -0.059681
C32   C     C_R   0.131866 0.365832 0.907415 -0.059687
H7    H     H_    0.675795 0.901413 0.073128 0.166213
H8    H     H_    0.324206 0.401426 0.926871 0.166219
H9    H     H_    0.905495 0.928406 0.267184 0.116593
H10   H     H_    0.094505 0.428431 0.732815 0.116595
H11   H     H_    0.828701 0.045583 0.312764 0.132302
H12   H     H_    0.171301 0.545604 0.687237 0.132302
H13   H     H_    0.853707 0.753138 0.873995 0.128001
H14   H     H_    0.146291 0.253108 0.125991 0.128006
C33   C     C_R   0.093972 0.878138 0.309658 -0.053522
C34   C     C_R   0.906026 0.378127 0.690345 -0.053513
C35   C     C_R   0.411234 0.851602 0.684405 -0.084515
C36   C     C_R   0.588765 0.351619 0.315595 -0.084492
C37   C     C_R   0.118931 0.088174 0.471429 -0.151262
C38   C     C_R   0.881074 0.588129 0.528558 -0.151258
C39   C     C_R   0.080908 0.997311 0.390248 -0.159929
C40   C     C_R   0.919094 0.497271 0.609746 -0.159934
C41   C     C_R   0.145891 0.830780 0.320905 -0.217050
C42   C     C_R   0.854105 0.330794 0.679103 -0.217047
C43   C     C_R   0.185487 0.917707 0.405865 0.061989
C44   C     C_R   0.814512 0.417718 0.594136 0.061990
C45   C     C_R   0.170818 0.056627 0.475954 0.113628
C46   C     C_R   0.829186 0.556607 0.524036 0.113623
C47   C     C_R   0.239145 0.877734 0.422136 0.048859
C48   C     C_R   0.760852 0.377770 0.577869 0.048855
C49   C     C_R   0.275828 0.969902 0.511569 0.057101
C50   C     C_R   0.724173 0.469924 0.488426 0.057107
C51   C     C_R   0.259844 0.134044 0.557851 -0.208465
C52   C     C_R   0.740162 0.634042 0.442130 -0.208449
C53   C     C_R   0.208041 0.171087 0.545061 -0.169087
C54   C     C_R   0.791967 0.671065 0.454919 -0.169075
C55   C     C_R   0.257673 0.753114 0.351650 -0.180003
C56   C     C_R   0.742319 0.253191 0.648369 -0.180004
C57   C     C_R   0.309849 0.715318 0.371281 -0.173512
C58   C     C_R   0.690141 0.215426 0.628743 -0.173511
C59   C     C_R   0.345055 0.780095 0.469965 0.083308
C60   C     C_R   0.654938 0.280187 0.530051 0.083298
C61   C     C_R   0.327570 0.900413 0.546991 0.053021
C62   C     C_R   0.672429 0.400453 0.453010 0.053019
C63   C     C_R   0.397001 0.720386 0.494862 0.171375
C64   C     C_R   0.602988 0.220518 0.505164 0.171353
C65   C     C_R   0.429131 0.757202 0.601447 -0.210361
C66   C     C_R   0.570863 0.257278 0.398566 -0.210370
C67   C     C_R   0.361219 0.931412 0.658437 0.102118
C68   C     C_R   0.638782 0.431422 0.341558 0.102115
H15   H     H_    0.197068 0.290455 0.589073 0.140838
H16   H     H_    0.802944 0.790412 0.410898 0.140835
H17   H     H_    0.468073 0.701957 0.622895 0.120079
H18   H     H_    0.531919 0.202052 0.377124 0.120068
H19   H     H_    0.321754 0.624785 0.311022 0.160109
H20   H     H_    0.678231 0.124926 0.689012 0.160115
H21   H     H_    0.107708 0.191272 0.526723 0.115969
H22   H     H_    0.892300 0.691204 0.473255 0.115971
H23   H     H_    0.041133 0.036921 0.382017 0.107808
H24   H     H_    0.958871 0.536863 0.617975 0.107802
H25   H     H_    0.154305 0.739186 0.256954 0.112982
H26   H     H_    0.845688 0.239223 0.743060 0.112979
H27   H     H_    0.287226 0.233421 0.606336 0.169674
H28   H     H_    0.712784 0.733418 0.393635 0.169677
H29   H     H_    0.232958 0.686575 0.278339 0.138038
H30   H     H_    0.767031 0.186667 0.721689 0.138045
O11   O     O_R   0.955980 0.206520 0.854760 -0.540812
O12   O     O_R   0.044020 0.706520 0.145240 -0.540810
O13   O     O_R   0.063490 0.536770 0.945200 -0.538793
O14   O     O_R   0.936510 0.036770 0.054800 -0.538793
C69   C     C_R   0.082850 0.368623 0.939438 0.691125
C70   C     C_R   0.917149 0.868621 0.060559 0.691124
O15   O     O_R   0.957530 0.536190 0.842880 -0.542910
O16   O     O_R   0.042470 0.036190 0.157120 -0.542911
O17   O     O_R   0.937350 0.707210 0.042130 -0.539933
O18   O     O_R   0.062650 0.207210 0.957870 -0.539932
C71   C     C_R   0.942614 0.369196 0.802758 0.691664
C72   C     C_R   0.057385 0.869198 0.197244 0.691664
O19   O     O_3   0.993540 0.373870 0.065440 -0.374465
O20   O     O_3   0.006460 0.873870 0.934560 -0.374464
V3    V     V_3+5 0.001200 0.648440 0.987860 1.435963
V4    V     V_3+5 0.998800 0.148440 0.012140 1.435960
C73   C     C_3   0.344137 0.024305 0.756073 -0.608168
H31   H     H_    0.357506 0.173115 0.765788 0.170174
H32   H     H_    0.302516 0.017816 0.747066 0.266594
H33   H     H_    0.359630 0.949810 0.837681 0.236665
C74   C     C_3   0.655866 0.524284 0.243916 -0.608161
H34   H     H_    0.642500 0.673096 0.234192 0.170171
H35   H     H_    0.697487 0.517784 0.252923 0.266611
H36   H     H_    0.640370 0.449776 0.162312 0.236662
C75   C     C_3   0.418355 0.604798 0.412970 -0.807858
H37   H     H_    0.460615 0.584291 0.443109 0.206984
H38   H     H_    0.400130 0.463654 0.404788 0.209991
H39   H     H_    0.410758 0.675807 0.328902 0.218620
C76   C     C_3   0.581623 0.105056 0.587089 -0.807839
H40   H     H_    0.539360 0.084609 0.556960 0.206981
H41   H     H_    0.599831 0.963886 0.595310 0.209994
H42   H     H_    0.589230 0.176136 0.671137 0.218624
S1    S     S_3+6 0.738027 0.179695 0.168681 -0.073948
O21   O     O_2   0.705641 0.255604 0.058384 -0.335650
O22   O     O_2   0.703952 0.110412 0.241517 -0.388492
O23   O     O_3   0.775486 0.355900 0.236448 -0.506089
H43   H     H_    0.781324 0.326731 0.318382 0.338377
S2    S     S_3+6 0.261976 0.679707 0.831326 -0.073938
O24   O     O_2   0.294363 0.755606 0.941625 -0.335642
O25   O     O_2   0.296050 0.610430 0.758486 -0.388490
O26   O     O_3   0.224519 0.855919 0.763567 -0.506085
H44   H     H_    0.218682 0.826760 0.681631 0.338376

loop_
_geom_bond_atom_site_label_1
_geom_bond_atom_site_label_2
_ccdc_geom_bond_type
S1    O23   S    
C12   C14   A    
C37   C39   A    
C63   C75   S    
C9    C11   A    
C23   C25   A    
O1    C3    A    
S2    O26   S    
C37   H21   S    
C74   H36   S    
O2    C4    A    
C2    O7    A    
C45   C53   A    
C64   C76   S    
C75   H39   S    
C66   H18   S    
C75   H37   S    
C21   C23   A    
O5    C3    A    
C5    H5    S    
C48   C50   A    
C6    H6    S    
C17   C31   A    
C56   H30   S    
C2    C35   S    
C58   C60   A    
C5    C21   A    
O14   V4    S    
C76   H42   S    
H1    C29   S    
O19   V3    S    
O11   C71   A    
C27   H7    S    
S1    O21   D    
C28   H8    S    
C52   H28   S    
C32   C69   S    
O16   C72   A    
C43   C45   A    
O15   C71   A    
C6    C22   A    
C33   C41   A    
C10   C32   A    
C26   H14   S    
C36   C66   A    
C44   C48   A    
O26   H44   S    
C13   C15   A    
C43   C47   A    
C63   C65   A    
C17   C25   A    
C7    C29   A    
C16   C18   A    
C8    C30   A    
C33   C72   S    
C59   C61   A    
C34   C40   A    
O6    V2    S    
C57   H19   S    
C47   C49   A    
C24   C26   A    
C42   H26   S    
C47   C55   A    
C55   C57   A    
C51   C53   A    
C62   C68   A    
C9    C31   A    
C50   C52   A    
C58   H20   S    
C40   H24   S    
C51   H27   S    
S2    O24   D    
O4    C2    A    
C60   C64   A    
C59   C63   A    
C41   H25   S    
O19   V4    S    
O5    V1    S    
C11   H11   S    
C3    C8    S    
O3    C1    A    
C12   H12   S    
C15   C19   A    
C46   C54   A    
C41   C43   A    
C38   C40   A    
C53   H15   S    
O4    V2    S    
C38   H22   S    
C73   H32   S    
O12   C72   A    
C25   H13   S    
C64   C66   A    
O6    C4    A    
O11   V4    S    
C52   C54   A    
O1    V2    S    
C65   H17   S    
O2    V1    S    
C49   C51   A    
O12   V3    S    
H2    C30   S    
O18   V4    S    
H3    C23   S    
O17   V3    S    
C49   C61   A    
C57   C59   A    
C37   C45   A    
C56   C58   A    
C36   C68   A    
C75   H38   S    
C18   C26   A    
C54   H16   S    
C39   H23   S    
C19   C27   A    
C74   H34   S    
C7    C27   A    
C18   C32   A    
O20   V4    S    
O23   H43   S    
C48   C56   A    
S1    O22   D    
C50   C62   A    
C10   H10   S    
C16   C20   A    
C67   C73   S    
C5    C29   A    
S2    O25   D    
C74   H35   S    
C6    C30   A    
O14   C70   A    
C76   H40   S    
C9    H9    S    
C14   S2    S    
C55   H29   S    
C68   C74   S    
C70   O17   A    
C4    C7    S    
C10   C12   A    
O7    V1    S    
C73   H33   S    
C1    O8    A    
C11   C13   A    
O8    V2    S    
C33   C39   A    
C20   C22   A    
C76   H41   S    
H4    C24   S    
C61   C67   A    
C22   C24   A    
C15   C17   A    
C1    C36   S    
C60   C62   A    
C38   C46   A    
C13   S1    S    
C34   C71   S    
C20   C28   A    
C8    C28   A    
C35   C65   A    
C31   C70   S    
O13   V3    S    
C34   C42   A    
C19   C21   A    
C69   O18   A    
O9    V2    S    
C42   C44   A    
O10   V1    S    
O3    V1    S    
C44   C46   A    
O16   V4    S    
C35   C67   A    
O15   V3    S    
C73   H31   S    
C14   C16   A    
O20   V3    S    
O13   C69   A    
