data_mof_unit_28232.cif
_audit_creation_date              2012-12-10T17:48:55-0500
_audit_creation_method            fapswitch 2.2
_symmetry_space_group_name_H-M    P1
_symmetry_Int_Tables_number       1
_space_group_crystal_system       triclinic
_cell_length_a                    10.704925
_cell_length_b                    14.710731
_cell_length_c                    14.858069
_cell_angle_alpha                 64.643567
_cell_angle_beta                  104.634011
_cell_angle_gamma                 101.886766
_cell_volume                      2032.96743424

loop_
_atom_site_label
_atom_site_type_symbol
_atom_type_description
_atom_site_fract_x
_atom_site_fract_y
_atom_site_fract_z
_atom_type_partial_charge
C1    C     C_R   0.479202 0.119715 0.312474 0.801768
C2    C     C_R   0.512668 0.359065 0.079110 0.090580
C3    C     C_R   0.480534 0.319753 0.003125 0.161383
C4    C     C_R   0.260482 0.999526 0.501207 0.874660
C5    C     C_R   0.547170 0.464842 0.052318 0.068825
C6    C     C_R   0.532223 0.531302 0.948219 0.065109
C7    C     C_R   0.502297 0.489057 0.874625 -0.229929
C8    C     C_R   0.478818 0.385120 0.902058 -0.233201
C9    C     C_R   0.598609 0.506035 0.126185 -0.236745
C10   C     C_R   0.623199 0.609793 0.099313 -0.241379
C11   C     C_R   0.597206 0.676182 0.998101 0.166059
C12   C     C_3   0.877685 0.996682 0.502985 0.050985
C13   C     C_R   0.550483 0.637725 0.921539 0.087168
C14   C     C_R   0.618311 0.780971 0.972507 -0.207469
C15   C     C_R   0.593176 0.848414 0.871481 -0.186355
C16   C     C_R   0.522998 0.880169 0.687558 0.823201
C17   C     C_R   0.520727 0.707242 0.820896 -0.272744
C18   C     C_R   0.709647 0.269952 0.683181 -0.327973
C19   C     C_R   0.676620 0.193812 0.646070 0.045421
C20   C     C_R   0.530148 0.294955 0.504881 0.282926
C21   C     C_R   0.579916 0.380860 0.531013 -0.016365
C22   C     C_R   0.657598 0.362440 0.627641 0.130537
C23   C     C_3   0.961778 0.997033 0.604843 -0.482548
C24   C     C_R   0.542948 0.480938 0.470802 0.081201
C25   C     C_R   0.547273 0.548944 0.517161 0.063908
C26   C     C_R   0.616858 0.524026 0.617441 -0.240406
C27   C     C_R   0.677216 0.434890 0.669287 -0.190299
C28   C     C_R   0.739780 0.998304 0.501555 0.797177
C29   C     C_R   0.508125 0.517061 0.364839 -0.219215
C30   C     C_R   0.442562 0.602150 0.309583 -0.207397
C31   C     C_R   0.423254 0.660298 0.357326 0.163752
C32   C     C_R   0.483173 0.639246 0.459872 -0.022987
C33   C     C_R   0.351907 0.743357 0.301398 -0.317944
C34   C     C_3   0.922831 0.091623 0.413519 -0.426460
C35   C     C_R   0.347660 0.809788 0.344353 0.073589
C36   C     C_R   0.478461 0.711599 0.498092 0.005616
C37   C     C_3   0.040035 0.901838 0.490270 -0.348335
C38   C     C_3   0.897188 0.900674 0.491739 -0.393937
C39   C     C_3   0.108276 0.000750 0.603552 0.323916
C40   C     C_3   0.067271 0.092618 0.412056 0.280696
C41   C     C_3   0.122222 0.998010 0.502519 -0.012004
C42   C     C_3   0.399987 0.297259 0.431934 -0.365094
C43   C     C_3   0.289983 0.312241 0.471483 -0.871254
C44   C     C_3   0.121023 0.840627 0.747315 -0.295237
C45   C     C_R   0.475474 0.187229 0.205248 -0.050900
C46   C     C_3   0.100640 0.191659 0.247059 -0.335356
C47   C     C_R   0.544410 0.811675 0.795165 -0.045415
C48   C     C_R   0.449668 0.215232 0.029088 -0.203585
C49   C     C_R   0.448197 0.149208 0.129727 -0.190416
C50   C     C_R   0.504995 0.291443 0.179189 -0.270948
Cu1   Cu    Cu3+1 0.465900 0.918260 0.475680 0.938700
Cu2   Cu    Cu3+1 0.534100 0.081740 0.524320 0.931051
H1    H     H_    0.078622 0.831696 0.550301 0.171754
H2    H     H_    0.425430 0.068718 0.148268 0.152448
H3    H     H_    0.518629 0.318639 0.238078 0.144682
H4    H     H_    0.046167 0.900578 0.417122 0.215058
H5    H     H_    0.500009 0.534120 0.795016 0.139214
H6    H     H_    0.625603 0.459620 0.205541 0.137691
H7    H     H_    0.655090 0.810719 0.030686 0.135154
H8    H     H_    0.733824 0.420076 0.744790 0.143891
H9    H     H_    0.532026 0.705903 0.571771 0.116869
H10   H     H_    0.300111 0.877603 0.298743 0.131097
H11   H     H_    0.409145 0.623669 0.228724 0.147842
H12   H     H_    0.910725 0.161624 0.420403 0.139133
H13   H     H_    0.774293 0.255995 0.755688 0.143448
H14   H     H_    0.718825 0.123229 0.688987 0.131443
H15   H     H_    0.836496 0.897503 0.420004 0.195162
H16   H     H_    0.629543 0.573511 0.656348 0.127002
H17   H     H_    0.534146 0.480692 0.323855 0.131114
H18   H     H_    0.304757 0.759416 0.223327 0.137370
H19   H     H_    0.866126 0.831283 0.555370 0.163401
H20   H     H_    0.924587 0.931794 0.668296 0.161437
H21   H     H_    0.123107 0.160515 0.423831 0.067680
H22   H     H_    0.860535 0.092612 0.340745 0.195047
H23   H     H_    0.152218 0.077272 0.600358 0.095605
H24   H     H_    0.274002 0.246555 0.542776 0.249667
H25   H     H_    0.310981 0.381998 0.486318 0.265510
H26   H     H_    0.199212 0.319663 0.413957 0.227774
H27   H     H_    0.401936 0.352966 0.354080 0.160472
H28   H     H_    0.370177 0.228981 0.418048 0.250763
H29   H     H_    0.046272 0.806943 0.700327 0.148947
H30   H     H_    0.077729 0.850239 0.802757 0.166774
H31   H     H_    0.193434 0.785702 0.791351 0.184990
H32   H     H_    0.024206 0.238349 0.236344 0.162832
H33   H     H_    0.097279 0.188566 0.173188 0.196070
H34   H     H_    0.948755 0.065294 0.614552 0.156638
H35   H     H_    0.198535 0.227812 0.269227 0.153175
H36   H     H_    0.456736 0.355888 0.843380 0.151617
H37   H     H_    0.476639 0.681748 0.760973 0.151105
H38   H     H_    0.612275 0.928989 0.853187 0.152893
H39   H     H_    0.661957 0.638199 0.158383 0.148467
H40   H     H_    0.426520 0.184609 0.971456 0.136895
N1    N     N_R   0.585360 0.204570 0.560800 -0.193044
N2    N     N_R   0.414550 0.795430 0.439160 -0.181019
O1    O     O_R   0.455060 0.022100 0.338110 -0.585254
O2    O     O_3   0.079186 0.091982 0.319182 -0.570961
O3    O     O_R   0.512640 0.160150 0.379180 -0.612167
O4    O     O_R   0.288900 0.930980 0.479450 -0.576825
O5    O     O_R   0.346480 0.069030 0.520520 -0.604380
O6    O     O_R   0.487360 0.839850 0.620820 -0.599910
O7    O     O_R   0.544940 0.977900 0.661890 -0.581879
O8    O     O_R   0.653520 0.930970 0.479480 -0.588071
O9    O     O_R   0.711100 0.069020 0.520550 -0.590146
O10   O     O_3   0.186557 0.933524 0.690391 -0.570807

loop_
_geom_bond_atom_site_label_1
_geom_bond_atom_site_label_2
_ccdc_geom_bond_type
C20   N1    A    
Cu2   O9    S    
C42   H28   S    
C4    O4    A    
C3    C48   A    
C15   C47   A    
C44   H31   S    
C44   O10   S    
C39   O10   S    
C39   C41   S    
Cu1   O8    S    
C14   H7    S    
C12   C23   S    
C26   C27   A    
C37   C38   S    
C12   C28   S    
C34   C40   S    
C32   C36   A    
C18   C19   A    
C44   H30   S    
C27   H8    S    
C30   C31   A    
C11   C14   A    
C4    C41   S    
C49   H2    S    
Cu2   O3    S    
Cu1   O6    S    
C40   H21   S    
C19   H14   S    
C9    H6    S    
C24   C29   A    
C2    C50   A    
C37   H4    S    
C23   H34   S    
C31   C33   A    
C39   H23   S    
C9    C10   A    
C19   N1    A    
C46   H33   S    
C37   H1    S    
Cu1   O4    S    
C42   H27   S    
C30   H11   S    
C37   C41   S    
C40   O2    S    
C16   C47   S    
C29   H17   S    
Cu2   O7    S    
Cu1   Cu2   S    
C7    C8    A    
C17   H37   S    
C24   C25   A    
C44   H29   S    
C1    O3    A    
C16   O6    A    
C25   C26   A    
C43   H26   S    
C5    C9    A    
C29   C30   A    
C28   O8    A    
C31   C32   A    
C45   C49   A    
C1    O1    A    
C34   H12   S    
Cu2   N1    S    
C38   H15   S    
C33   H18   S    
C34   H22   S    
C46   H32   S    
C48   C49   A    
C10   H39   S    
C3    C8    A    
C22   C27   A    
C21   C24   A    
C2    C5    A    
C42   C43   S    
C12   C34   S    
C36   H9    S    
C46   H35   S    
C35   N2    A    
C43   H24   S    
C38   H19   S    
C40   C41   S    
C18   C22   A    
C23   H20   S    
C17   C47   A    
C20   C42   S    
C6    C7    A    
C43   H25   S    
Cu2   O5    S    
C50   H3    S    
C13   C17   A    
C26   H16   S    
C2    C3    A    
C15   H38   S    
C11   C13   A    
C28   O9    A    
C1    C45   S    
C5    C6    A    
C45   C50   A    
C25   C32   A    
C23   C39   S    
C33   C35   A    
C35   H10   S    
C12   C38   S    
C10   C11   A    
Cu1   N2    S    
C36   N2    A    
C16   O7    A    
C46   O2    S    
C20   C21   A    
C48   H40   S    
C4    O5    A    
C14   C15   A    
C8    H36   S    
C21   C22   A    
C18   H13   S    
C7    H5    S    
Cu1   O1    S    
C6    C13   A    
