data_mof_unit_57784.cif
_audit_creation_date              2012-12-10T17:50:10-0500
_audit_creation_method            fapswitch 2.2
_symmetry_space_group_name_H-M    P1
_symmetry_Int_Tables_number       1
_space_group_crystal_system       triclinic
_cell_length_a                    10.629741
_cell_length_b                    14.736564
_cell_length_c                    14.825045
_cell_angle_alpha                 64.930992
_cell_angle_beta                  104.147573
_cell_angle_gamma                 103.472361
_cell_volume                      2017.45568726

loop_
_atom_site_label
_atom_site_type_symbol
_atom_type_description
_atom_site_fract_x
_atom_site_fract_y
_atom_site_fract_z
_atom_type_partial_charge
C1    C     C_R   0.478396 0.119530 0.312550 0.803629
C2    C     C_R   0.521736 0.880467 0.687449 0.803579
C3    C     C_R   0.508025 0.289977 0.178571 -0.204653
C4    C     C_R   0.493180 0.709967 0.821458 -0.204354
C5    C     C_R   0.481959 0.359901 0.078573 0.097268
C6    C     C_R   0.521154 0.639903 0.921161 0.097636
C7    C     C_R   0.412478 0.321440 0.004379 0.157158
C8    C     C_R   0.591517 0.678312 0.995210 0.157142
C9    C     C_R   0.519653 0.466512 0.050845 0.072388
C10   C     C_R   0.484194 0.533251 0.948756 0.072497
C11   C     C_R   0.414313 0.491013 0.877601 -0.173224
C12   C     C_R   0.590641 0.508684 0.121805 -0.173108
C13   C     C_R   0.380721 0.387374 0.904962 -0.207400
C14   C     C_R   0.624431 0.612315 0.094427 -0.207008
C15   C     C_R   0.743783 0.299033 0.644565 -0.269799
C16   C     C_R   0.256322 0.700789 0.355585 -0.269744
C17   C     C_R   0.701696 0.213347 0.621934 0.106860
C18   C     C_R   0.298189 0.786456 0.378262 0.106738
C19   C     C_R   0.508889 0.279587 0.519326 0.055713
C20   C     C_R   0.491419 0.720627 0.480453 0.055636
C21   C     C_R   0.552016 0.373299 0.531245 -0.010871
C22   C     C_R   0.448532 0.626897 0.468570 -0.011041
C23   C     C_R   0.259489 0.998902 0.501111 0.823218
C24   C     C_R   0.740511 0.001092 0.498898 0.823270
C25   C     C_R   0.668265 0.378222 0.600906 0.108854
C26   C     C_R   0.332171 0.621811 0.399037 0.109037
C27   C     C_R   0.481543 0.459010 0.482395 0.000402
C28   C     C_R   0.519270 0.541313 0.517323 0.000194
C29   C     C_R   0.625078 0.533045 0.599944 0.122665
C30   C     C_R   0.375937 0.467340 0.399670 0.122674
C31   C     C_R   0.703306 0.457658 0.633379 -0.168646
C32   C     C_R   0.297414 0.542496 0.366393 -0.168803
C33   C     C_3   0.009472 0.911193 0.499833 0.233505
C34   C     C_3   0.990525 0.088793 0.500188 0.233317
C35   C     C_3   0.926061 0.989466 0.416299 -0.218975
C36   C     C_3   0.073937 0.010520 0.583721 -0.219022
C37   C     C_3   0.877667 0.002557 0.498737 -0.060775
C38   C     C_3   0.122332 0.997429 0.501282 -0.060869
C39   C     C_3   0.959023 0.924017 0.582226 -0.215714
C40   C     C_3   0.040974 0.075970 0.417794 -0.215931
C41   C     C_R   0.462353 0.186643 0.205366 -0.049483
C42   C     C_R   0.538741 0.813319 0.794605 -0.049389
C43   C     C_R   0.372958 0.216971 0.030628 -0.187597
C44   C     C_R   0.630758 0.782804 0.968996 -0.187460
C45   C     C_R   0.396984 0.149914 0.130747 -0.192789
C46   C     C_R   0.605414 0.849958 0.869039 -0.192852
Cu1   Cu    Cu3+1 0.465750 0.918270 0.475680 0.964703
Cu2   Cu    Cu3+1 0.534250 0.081730 0.524320 0.964676
H1    H     H_    0.863305 0.980941 0.347705 0.160907
H2    H     H_    0.136692 0.019045 0.652316 0.160902
H3    H     H_    0.588266 0.737775 0.517490 0.171343
H4    H     H_    0.412116 0.262684 0.481987 0.171014
H5    H     H_    0.239093 0.846922 0.345647 0.139511
H6    H     H_    0.760568 0.152734 0.654686 0.139368
H7    H     H_    0.834015 0.302765 0.697025 0.148480
H8    H     H_    0.166017 0.696920 0.303233 0.148406
H9    H     H_    0.922803 0.861686 0.649490 0.174748
H10   H     H_    0.077192 0.138302 0.350529 0.174432
H11   H     H_    0.327456 0.358672 0.847761 0.152556
H12   H     H_    0.678627 0.640968 0.151465 0.152462
H13   H     H_    0.438534 0.686489 0.761889 0.168508
H14   H     H_    0.560877 0.313625 0.238415 0.169492
H15   H     H_    0.640710 0.929959 0.849743 0.154621
H16   H     H_    0.361651 0.069922 0.149995 0.154807
H17   H     H_    0.320379 0.187391 0.973977 0.137527
H18   H     H_    0.684162 0.812331 0.025514 0.137496
H19   H     H_    0.383254 0.535317 0.799250 0.163515
H20   H     H_    0.622997 0.464297 0.199901 0.162856
H21   H     H_    0.786703 0.455831 0.693033 0.174639
H22   H     H_    0.214095 0.544305 0.306688 0.174469
N1    N     N_R   0.585750 0.204560 0.560800 -0.190856
N2    N     N_R   0.414250 0.795440 0.439200 -0.190917
O1    O     O_R   0.454850 0.022100 0.338110 -0.597115
O2    O     O_R   0.545150 0.977900 0.661890 -0.597191
O3    O     O_R   0.512700 0.160150 0.379180 -0.565357
O4    O     O_R   0.487300 0.839850 0.620820 -0.565188
O5    O     O_R   0.287930 0.931000 0.479440 -0.573361
O6    O     O_R   0.712070 0.069000 0.520560 -0.573323
O7    O     O_R   0.345780 0.069050 0.520520 -0.583737
O8    O     O_R   0.654220 0.930950 0.479480 -0.583824
I1    I     I_    0.663755 0.606756 0.703068 -0.435248
I2    I     I_    0.338655 0.394384 0.296039 -0.434915
I3    I     I_    0.013787 0.765555 0.502973 -0.386914
I4    I     I_    0.986170 0.234420 0.497061 -0.387364

loop_
_geom_bond_atom_site_label_1
_geom_bond_atom_site_label_2
_ccdc_geom_bond_type
C25   C31   A    
C38   C40   S    
C26   C32   A    
C34   C37   S    
C19   N1    A    
C2    O4    A    
C5    C9    A    
C12   H20   S    
C33   C39   S    
C34   C40   S    
Cu2   O7    S    
C28   C29   A    
C35   C37   S    
Cu1   O4    S    
C20   H3    S    
C15   C25   A    
C39   H9    S    
C42   C46   A    
Cu2   O6    S    
C18   H5    S    
C44   H18   S    
C19   H4    S    
C24   O8    A    
C44   C46   A    
C35   H1    S    
C7    C43   A    
C9    C10   A    
C2    O2    A    
C21   C27   A    
C22   C28   A    
C27   C30   A    
C18   N2    A    
Cu2   O3    S    
C34   I4    S    
Cu1   O8    S    
C11   H19   S    
C16   C26   A    
C37   C39   S    
C40   H10   S    
C1    O3    A    
Cu2   O2    S    
Cu1   O1    S    
C4    C6    A    
C5    C7    A    
C6    C8    A    
C4    H13   S    
C15   H7    S    
C30   I2    S    
C16   H8    S    
C29   I1    S    
C33   I3    S    
Cu1   Cu2   S    
C31   H21   S    
C43   H17   S    
C24   C37   S    
C23   O5    A    
C43   C45   A    
C24   O6    A    
C12   C14   A    
C17   N1    A    
Cu1   O5    S    
Cu2   N1    S    
C36   H2    S    
C3    H14   S    
C1    C41   S    
C15   C17   A    
C21   C25   A    
C3    C41   A    
C8    C14   A    
C19   C21   A    
C36   C39   S    
C8    C44   A    
C20   C22   A    
C3    C5    A    
C6    C10   A    
C32   H22   S    
C13   H11   S    
C23   C38   S    
C14   H12   S    
C45   H16   S    
C33   C38   S    
C46   H15   S    
C1    O1    A    
C36   C38   S    
C35   C40   S    
C29   C31   A    
C30   C32   A    
C11   C13   A    
C4    C42   A    
C2    C42   S    
C33   C35   S    
C34   C36   S    
C9    C12   A    
Cu1   N2    S    
C10   C11   A    
C7    C13   A    
C16   C18   A    
C22   C26   A    
C27   C28   A    
C41   C45   A    
C20   N2    A    
C23   O7    A    
C17   H6    S    
