data_mof_unit_36573.cif
_audit_creation_date              2012-12-11T14:24:42-0500
_audit_creation_method            fapswitch 2.2
_symmetry_space_group_name_H-M    P1
_symmetry_Int_Tables_number       1
_space_group_crystal_system       triclinic
_cell_length_a                    19.064873
_cell_length_b                    11.208983
_cell_length_c                    18.774334
_cell_angle_alpha                 89.19192
_cell_angle_beta                  90.970765
_cell_angle_gamma                 89.726631
_cell_volume                      4011.00940109

loop_
_atom_site_label
_atom_site_type_symbol
_atom_type_description
_atom_site_fract_x
_atom_site_fract_y
_atom_site_fract_z
_atom_type_partial_charge
C1    C     C_R   0.728706 0.371683 0.144359 0.523051
C2    C     C_R   0.270957 0.372107 0.855054 0.522642
C3    C     C_R   0.229125 0.872585 0.144683 0.527450
C4    C     C_R   0.771322 0.870714 0.855737 0.522902
C5    C     C_3   0.455028 0.087807 0.033457 -0.119700
C6    C     C_3   0.508340 0.049936 0.976975 -0.102160
C7    C     C_3   0.953566 0.589964 0.033880 -0.122400
C8    C     C_3   0.006300 0.549697 0.977467 -0.099709
C9    C     C_R   0.757773 0.895301 0.931685 -0.013196
C10   C     C_R   0.243497 0.899065 0.069109 -0.003446
C11   C     C_R   0.256334 0.399214 0.930155 -0.011599
C12   C     C_R   0.742446 0.397064 0.068571 -0.009402
C13   C     C_R   0.700960 0.845791 0.970393 -0.018596
C14   C     C_R   0.298560 0.843391 0.030748 -0.015271
C15   C     C_R   0.196563 0.355782 0.965924 -0.021810
C16   C     C_R   0.797834 0.342586 0.030328 -0.018087
C17   C     C_R   0.705472 0.841105 0.046169 0.016865
C18   C     C_R   0.293237 0.838391 0.955173 0.017985
C19   C     C_R   0.196637 0.350596 0.041983 0.028115
C20   C     C_R   0.792956 0.338049 0.954742 0.018842
C21   C     C_R   0.812935 0.954771 0.042842 -0.172346
C22   C     C_R   0.188994 0.963013 0.958106 -0.171320
C23   C     C_R   0.310554 0.449549 0.043104 -0.173464
C24   C     C_R   0.687971 0.460680 0.957522 -0.175780
C25   C     C_R   0.813983 0.945370 0.970053 -0.163234
C26   C     C_R   0.188702 0.955361 0.030794 -0.156780
C27   C     C_R   0.312895 0.443236 0.970339 -0.161366
C28   C     C_R   0.687221 0.451903 0.030232 -0.153366
C29   C     C_R   0.640290 0.799859 0.936932 -0.116575
C30   C     C_R   0.358410 0.792161 0.064470 -0.107825
C31   C     C_R   0.137108 0.315303 0.927810 -0.112771
C32   C     C_R   0.857142 0.290678 0.064314 -0.107871
C33   C     C_R   0.087032 0.246575 0.961014 -0.186637
C34   C     C_R   0.903614 0.221587 0.026461 -0.186610
C35   C     C_R   0.590831 0.737467 0.976185 -0.200116
C36   C     C_R   0.405825 0.725055 0.026071 -0.188371
C37   C     C_R   0.601113 0.717856 0.048914 -0.092658
C38   C     C_R   0.395064 0.707201 0.953646 -0.096375
C39   C     C_R   0.091625 0.226118 0.033644 -0.107565
C40   C     C_R   0.894354 0.206023 0.953720 -0.097925
C41   C     C_R   0.659305 0.764930 0.084207 0.318103
C42   C     C_R   0.338041 0.759686 0.917779 0.312205
C43   C     C_R   0.143206 0.280948 0.075390 0.300024
C44   C     C_R   0.838170 0.259992 0.917365 0.311571
C45   C     C_R   0.533376 0.155862 0.144198 0.536445
C46   C     C_R   0.465786 0.154239 0.856244 0.533990
C47   C     C_R   0.033287 0.655886 0.144269 0.534723
C48   C     C_R   0.965501 0.654232 0.856400 0.533861
C49   C     C_R   0.756236 0.911912 0.081076 -0.006791
C50   C     C_R   0.243675 0.912981 0.919866 -0.011305
C51   C     C_R   0.251448 0.412065 0.079790 0.000283
C52   C     C_R   0.743299 0.412226 0.919452 -0.010614
C53   C     C_R   0.494078 0.173433 0.575354 0.046782
C54   C     C_R   0.508745 0.146749 0.427926 -0.006211
C55   C     C_R   0.993684 0.672335 0.575185 0.046169
C56   C     C_R   0.008737 0.645912 0.427842 -0.005662
C57   C     C_R   0.540540 0.087469 0.550168 0.032089
C58   C     C_R   0.537647 0.060019 0.477124 0.053699
C59   C     C_R   0.040218 0.586209 0.550086 0.033292
C60   C     C_R   0.037878 0.559210 0.476955 0.054064
C61   C     C_R   0.461319 0.229672 0.453165 -0.167740
C62   C     C_R   0.453215 0.241989 0.526493 -0.101179
C63   C     C_R   0.960376 0.727247 0.452956 -0.167135
C64   C     C_R   0.952226 0.739619 0.526263 -0.101577
C65   C     C_R   0.577887 0.012188 0.598285 -0.105402
C66   C     C_R   0.553909 0.940655 0.458876 -0.055918
C67   C     C_R   0.077541 0.510858 0.598218 -0.105779
C68   C     C_R   0.055349 0.440393 0.458380 -0.063501
C69   C     C_R   0.092331 0.394722 0.579132 -0.153814
C70   C     C_R   0.078071 0.358238 0.510000 -0.152743
C71   C     C_R   0.591600 0.895541 0.579592 -0.154301
C72   C     C_R   0.576081 0.858500 0.510815 -0.146635
C73   C     C_R   0.760365 0.902186 0.567652 -0.042156
C74   C     C_R   0.243240 0.909862 0.427921 -0.031833
C75   C     C_R   0.259012 0.404516 0.568751 -0.041025
C76   C     C_R   0.742842 0.410062 0.427957 -0.035851
C77   C     C_R   0.802843 0.987617 0.534273 0.013307
C78   C     C_R   0.185862 0.929998 0.472520 0.026520
C79   C     C_R   0.299654 0.493543 0.536331 0.011794
C80   C     C_R   0.685231 0.431303 0.472257 0.021958
C81   C     C_R   0.818268 0.971415 0.462674 -0.006583
C82   C     C_R   0.194118 0.004169 0.530157 0.021060
C83   C     C_R   0.315633 0.479936 0.464747 -0.005150
C84   C     C_R   0.693660 0.504576 0.530304 0.016959
C85   C     C_R   0.729034 0.819963 0.451638 0.243256
C86   C     C_R   0.320356 0.990862 0.516570 0.227795
C87   C     C_R   0.231659 0.320827 0.452246 0.244074
C88   C     C_R   0.820069 0.489152 0.517072 0.226306
C89   C     C_R   0.742744 0.968394 0.149828 0.549648
C90   C     C_R   0.257297 0.967943 0.850319 0.569083
C91   C     C_R   0.242009 0.467546 0.149742 0.552165
C92   C     C_R   0.757221 0.467833 0.850208 0.569599
C93   C     C_R   0.729645 0.813583 0.525528 -0.116437
C94   C     C_R   0.310002 0.945334 0.448408 -0.148293
C95   C     C_R   0.231213 0.313798 0.526025 -0.117752
C96   C     C_R   0.809752 0.443868 0.448910 -0.150765
C97   C     C_R   0.838463 0.076728 0.572050 -0.067797
C98   C     C_R   0.119026 0.884216 0.458260 -0.063200
C99   C     C_R   0.334793 0.581583 0.575456 -0.066790
C100  C     C_R   0.618076 0.387074 0.457468 -0.062197
C101  C     C_R   0.900003 0.122177 0.545590 -0.144021
C102  C     C_R   0.060273 0.937915 0.485796 -0.113444
C103  C     C_R   0.397517 0.625353 0.550829 -0.142899
C104  C     C_R   0.559393 0.442082 0.484372 -0.111299
C105  C     C_R   0.919243 0.100883 0.476010 -0.141934
C106  C     C_R   0.067496 0.019961 0.538568 -0.140419
C107  C     C_R   0.417079 0.607194 0.480959 -0.147420
C108  C     C_R   0.566841 0.522832 0.537794 -0.140399
C109  C     C_R   0.879786 0.023462 0.435126 -0.079956
C110  C     C_R   0.132742 0.056880 0.558621 -0.069777
C111  C     C_R   0.377378 0.532902 0.438380 -0.079066
C112  C     C_R   0.632242 0.557192 0.559026 -0.069146
C113  C     C_R   0.768593 0.909521 0.420182 -0.011125
C114  C     C_R   0.262635 0.013355 0.559842 0.000300
C115  C     C_R   0.268029 0.414773 0.421775 -0.006502
C116  C     C_R   0.762316 0.512932 0.560024 0.000649
C117  C     C_R   0.728717 0.373497 0.355960 0.520447
C118  C     C_R   0.270479 0.376335 0.644092 0.518491
C119  C     C_R   0.228696 0.873136 0.356044 0.521891
C120  C     C_R   0.770905 0.875520 0.643562 0.519256
C121  C     C_R   0.533530 0.153802 0.353737 0.511185
C122  C     C_R   0.466735 0.159006 0.647230 0.550939
C123  C     C_R   0.033529 0.653684 0.353703 0.510848
C124  C     C_R   0.966736 0.658836 0.647233 0.549789
C125  C     C_R   0.745449 0.967665 0.353945 0.541382
C126  C     C_R   0.271694 0.028048 0.636963 0.580495
C127  C     C_R   0.245247 0.468847 0.354443 0.542221
C128  C     C_R   0.771615 0.527953 0.636989 0.582275
C129  C     C_3   0.544328 0.235849 0.966677 -0.134939
C130  C     C_3   0.491057 0.273962 0.023720 -0.118545
C131  C     C_3   0.044801 0.734043 0.966713 -0.134958
C132  C     C_3   0.992070 0.774576 0.023679 -0.117603
C133  C     C_3   0.565576 0.126009 0.013117 -0.106981
C134  C     C_3   0.433759 0.197529 0.987178 -0.116593
C135  C     C_3   0.064593 0.623738 0.013361 -0.103699
C136  C     C_3   0.933728 0.700099 0.987321 -0.119041
C137  C     C_3   0.511694 0.163877 0.068964 0.055524
C138  C     C_3   0.487568 0.159611 0.931479 0.048476
C139  C     C_3   0.011293 0.664025 0.069158 0.055005
C140  C     C_3   0.987009 0.659763 0.931710 0.047709
Cr1   Cr    Cr6+3 0.772820 0.169820 0.252640 0.997819
Cr2   Cr    Cr6+3 0.227180 0.169820 0.747360 0.979429
Cr3   Cr    Cr6+3 0.272820 0.669820 0.252640 1.001386
Cr4   Cr    Cr6+3 0.727180 0.669820 0.747360 0.978739
Cr5   Cr    Cr6+3 0.615040 0.323610 0.249150 1.008958
Cr6   Cr    Cr6+3 0.384960 0.323610 0.750850 1.013305
Cr7   Cr    Cr6+3 0.115040 0.823610 0.249150 0.983365
Cr8   Cr    Cr6+3 0.884960 0.823610 0.750850 1.012677
Cr9   Cr    Cr6+3 0.616720 0.011130 0.250660 1.058652
Cr10  Cr    Cr6+3 0.383280 0.011130 0.749340 1.046264
Cr11  Cr    Cr6+3 0.116720 0.511130 0.250660 1.065475
Cr12  Cr    Cr6+3 0.883280 0.511130 0.749340 1.046489
H1    H     H_    0.620253 0.096333 0.025115 0.121841
H2    H     H_    0.378839 0.224499 0.974761 0.127650
H3    H     H_    0.118892 0.592200 0.025385 0.122614
H4    H     H_    0.879131 0.728694 0.974849 0.126897
H5    H     H_    0.432245 0.287260 0.416335 0.097551
H6    H     H_    0.413600 0.303188 0.545022 0.144766
H7    H     H_    0.930998 0.784171 0.416061 0.097989
H8    H     H_    0.912291 0.800153 0.544781 0.144255
H9    H     H_    0.586705 0.037052 0.653261 0.113407
H10   H     H_    0.541186 0.902520 0.408047 0.166953
H11   H     H_    0.085956 0.535283 0.653323 0.113037
H12   H     H_    0.043495 0.402241 0.407379 0.165392
H13   H     H_    0.111031 0.331557 0.619068 0.125303
H14   H     H_    0.085102 0.266044 0.495807 0.153356
H15   H     H_    0.609961 0.832345 0.619694 0.123882
H16   H     H_    0.581389 0.765752 0.497309 0.156613
H17   H     H_    0.823095 0.103345 0.624778 0.137788
H18   H     H_    0.113251 0.809990 0.424166 0.159147
H19   H     H_    0.318992 0.605954 0.628463 0.137222
H20   H     H_    0.612064 0.312830 0.423548 0.160910
H21   H     H_    0.704548 0.740999 0.550451 0.129935
H22   H     H_    0.354052 0.932942 0.413470 0.126608
H23   H     H_    0.209073 0.237686 0.550343 0.130098
H24   H     H_    0.853889 0.430745 0.414180 0.128299
H25   H     H_    0.934505 0.169864 0.580988 0.074139
H26   H     H_    0.009440 0.921472 0.464467 0.128475
H27   H     H_    0.432109 0.670598 0.587447 0.076642
H28   H     H_    0.508471 0.426877 0.462536 0.125929
H29   H     H_    0.966268 0.140474 0.454718 0.110042
H30   H     H_    0.023498 0.054295 0.565835 0.117867
H31   H     H_    0.464527 0.646677 0.460611 0.107837
H32   H     H_    0.522868 0.558464 0.564624 0.115846
H33   H     H_    0.898610 0.002198 0.382680 0.128747
H34   H     H_    0.132139 0.127856 0.596686 0.129315
H35   H     H_    0.397232 0.512806 0.386189 0.132167
H36   H     H_    0.631440 0.626958 0.597860 0.130071
H37   H     H_    0.580778 0.294608 0.937297 0.112357
H38   H     H_    0.483324 0.365488 0.044132 0.106128
H39   H     H_    0.082142 0.791272 0.937388 0.112078
H40   H     H_    0.985529 0.866504 0.043894 0.104623
H41   H     H_    0.418069 0.028779 0.062071 0.118230
H42   H     H_    0.515515 0.958304 0.956730 0.140568
H43   H     H_    0.915841 0.532467 0.062590 0.114446
H44   H     H_    0.011675 0.457766 0.957336 0.144332
H45   H     H_    0.855976 0.000102 0.068999 0.147405
H46   H     H_    0.147169 0.013871 0.932152 0.153056
H47   H     H_    0.354883 0.489460 0.070465 0.147169
H48   H     H_    0.645980 0.510923 0.931429 0.152055
H49   H     H_    0.628978 0.813904 0.880944 0.148954
H50   H     H_    0.370994 0.805962 0.119964 0.148612
H51   H     H_    0.128364 0.335488 0.871982 0.145077
H52   H     H_    0.869689 0.303664 0.119855 0.151019
H53   H     H_    0.860864 0.975533 0.944086 0.157457
H54   H     H_    0.143609 0.992761 0.056545 0.136059
H55   H     H_    0.361264 0.470376 0.945821 0.156259
H56   H     H_    0.641842 0.487866 0.056254 0.157752
H57   H     H_    0.044692 0.208815 0.929981 0.114554
H58   H     H_    0.944400 0.174213 0.055058 0.105450
H59   H     H_    0.545714 0.700249 0.949335 0.110877
H60   H     H_    0.449791 0.683124 0.053354 0.107366
H61   H     H_    0.054237 0.168597 0.058621 0.094731
H62   H     H_    0.929287 0.147394 0.925709 0.113399
H63   H     H_    0.565232 0.661824 0.078001 0.114547
H64   H     H_    0.430198 0.649469 0.925214 0.114789
O1    O     O_R   0.788190 0.043000 0.172520 -0.539829
O2    O     O_R   0.211810 0.043000 0.827480 -0.531732
O3    O     O_R   0.288190 0.543000 0.172520 -0.537984
O4    O     O_R   0.711810 0.543000 0.827480 -0.533020
O5    O     O_R   0.556550 0.253260 0.323480 -0.519100
O6    O     O_R   0.443450 0.253260 0.676520 -0.513593
O7    O     O_R   0.056550 0.753260 0.323480 -0.519422
O8    O     O_R   0.943450 0.753260 0.676520 -0.513597
O9    O     O_R   0.545830 0.051610 0.330160 -0.534267
O10   O     O_R   0.454170 0.051610 0.669840 -0.511117
O11   O     O_R   0.045830 0.551610 0.330160 -0.535047
O12   O     O_R   0.954170 0.551610 0.669840 -0.510583
O13   O     O_R   0.681920 0.959720 0.327070 -0.465168
O14   O     O_R   0.318080 0.959720 0.672930 -0.482233
O15   O     O_R   0.181920 0.459720 0.327070 -0.470112
O16   O     O_R   0.818080 0.459720 0.672930 -0.480118
O17   O     O_3   0.668190 0.168190 0.250820 -0.263885
O18   O     O_3   0.331810 0.168190 0.749180 -0.280996
O19   O     O_3   0.168190 0.668190 0.250820 -0.262126
O20   O     O_3   0.831810 0.668190 0.749180 -0.281510
O21   O     O_R   0.766240 0.292300 0.176860 -0.514300
O22   O     O_R   0.233760 0.292300 0.823140 -0.510302
O23   O     O_R   0.266240 0.792300 0.176860 -0.507510
O24   O     O_R   0.733760 0.792300 0.823140 -0.511301
O25   O     O_R   0.670310 0.409160 0.168720 -0.518179
O26   O     O_R   0.329690 0.409160 0.831280 -0.517198
O27   O     O_R   0.170310 0.909160 0.168720 -0.555852
O28   O     O_R   0.829690 0.909160 0.831280 -0.517750
O29   O     O_R   0.556160 0.251900 0.173380 -0.505522
O30   O     O_R   0.443840 0.251900 0.826620 -0.504826
O31   O     O_R   0.056160 0.751900 0.173380 -0.508564
O32   O     O_R   0.943840 0.751900 0.826620 -0.504584
O33   O     O_R   0.545410 0.050140 0.168240 -0.513799
O34   O     O_R   0.454590 0.050140 0.831760 -0.525202
O35   O     O_R   0.045410 0.550140 0.168240 -0.499227
O36   O     O_R   0.954590 0.550140 0.831760 -0.526260
O37   O     O_R   0.681530 0.958350 0.176970 -0.455115
O38   O     O_R   0.318470 0.958350 0.823030 -0.446190
O39   O     O_R   0.181530 0.458350 0.176970 -0.433467
O40   O     O_R   0.818470 0.458350 0.823030 -0.445940
O41   O     O_R   0.788610 0.044480 0.334450 -0.540789
O42   O     O_R   0.211390 0.044480 0.665550 -0.552141
O43   O     O_R   0.288610 0.544480 0.334450 -0.543436
O44   O     O_R   0.711390 0.544480 0.665550 -0.552945
O45   O     O_R   0.766630 0.293670 0.326970 -0.498113
O46   O     O_R   0.233370 0.293670 0.673030 -0.544748
O47   O     O_R   0.266630 0.793670 0.326970 -0.498570
O48   O     O_R   0.733370 0.793670 0.673030 -0.543242
O49   O     O_R   0.670730 0.410640 0.330640 -0.539393
O50   O     O_R   0.329270 0.410640 0.669360 -0.519976
O51   O     O_R   0.170730 0.910640 0.330640 -0.537858
O52   O     O_R   0.829270 0.910640 0.669360 -0.520997
O53   O     O_3   0.684736 0.745900 0.413336 -0.573845
C141  C     C_3   0.721340 0.690281 0.358093 -0.100846
H65   H     H_    0.770314 0.646288 0.377995 0.098620
H66   H     H_    0.733677 0.752668 0.313997 0.124410
H67   H     H_    0.686489 0.622880 0.334449 0.186450
O54   O     O_3   0.386987 0.002878 0.543504 -0.562634
C142  C     C_3   0.411919 0.887284 0.557552 -0.077733
H68   H     H_    0.372354 0.834006 0.586705 0.137289
H69   H     H_    0.457775 0.888369 0.593381 0.170262
H70   H     H_    0.427785 0.845207 0.507205 0.111899
O55   O     O_3   0.195905 0.236820 0.412361 -0.569152
C143  C     C_3   0.240467 0.190291 0.359997 -0.116551
H71   H     H_    0.293150 0.165347 0.382151 0.105444
H72   H     H_    0.245911 0.252177 0.313956 0.116371
H73   H     H_    0.216091 0.109962 0.338290 0.162964
O56   O     O_3   0.886682 0.500998 0.544156 -0.561245
C144  C     C_3   0.912015 0.385442 0.557584 -0.075842
H74   H     H_    0.928418 0.344544 0.507012 0.112795
H75   H     H_    0.872546 0.330827 0.586170 0.134415
H76   H     H_    0.957759 0.386685 0.593654 0.170071
O57   O     O_3   0.670278 0.731009 0.154996 -0.556470
C145  C     C_3   0.736731 0.675589 0.164710 -0.118539
H77   H     H_    0.756572 0.631701 0.116097 0.103723
H78   H     H_    0.732649 0.606221 0.206990 0.143998
H79   H     H_    0.775998 0.740761 0.183927 0.098967
O58   O     O_3   0.327738 0.730450 0.846711 -0.555203
C146  C     C_3   0.261046 0.678233 0.835662 -0.103022
H80   H     H_    0.240241 0.631992 0.883700 0.097659
H81   H     H_    0.265287 0.611739 0.792792 0.155108
H82   H     H_    0.222489 0.746036 0.816357 0.113345
O59   O     O_3   0.137201 0.271966 0.148420 -0.555952
C147  C     C_3   0.153205 0.156624 0.172604 -0.107220
H83   H     H_    0.204357 0.125627 0.151720 0.118111
H84   H     H_    0.109027 0.096168 0.159860 0.137074
H85   H     H_    0.157897 0.157998 0.231322 0.142977
O60   O     O_3   0.828366 0.231300 0.846163 -0.555684
C148  C     C_3   0.762175 0.177485 0.834822 -0.102095
H86   H     H_    0.742163 0.128959 0.882430 0.099032
H87   H     H_    0.766887 0.112552 0.791152 0.157211
H88   H     H_    0.722816 0.244744 0.816574 0.112754

loop_
_geom_bond_atom_site_label_1
_geom_bond_atom_site_label_2
_ccdc_geom_bond_type
C99   C103  A    
Cr6   O18   S    
C133  C137  S    
C55   C59   A    
C145  H79   S    
Cr11  O11   S    
C73   C93   A    
C136  C140  S    
C47   O31   A    
C75   C95   A    
C135  C139  S    
C84   C112  A    
Cr10  O10   S    
C128  O44   A    
C79   C99   A    
O56   C144  S    
C5    C6    S    
Cr10  O38   S    
C123  O11   A    
C100  C104  A    
C121  O9    A    
O54   C142  S    
Cr2   O42   S    
C95   H23   S    
C46   O34   A    
C131  C140  S    
C11   C15   A    
C50   C90   S    
C66   C72   A    
C12   C16   A    
C87   C115  A    
C108  C112  A    
C59   C60   A    
C128  O16   A    
C8    C135  S    
C26   H54   S    
C68   H12   S    
C30   H50   S    
C49   C89   S    
C126  O42   A    
C56   C123  S    
Cr3   O23   S    
Cr12  O40   S    
C48   C140  S    
C109  H33   S    
C98   C102  A    
C123  O7    A    
C32   C34   A    
C48   O36   A    
C78   C82   A    
C11   C27   A    
C16   C20   A    
C36   H60   S    
C129  C133  S    
C28   H56   S    
C141  H66   S    
C6    H42   S    
C147  H83   S    
C35   C37   A    
Cr1   O45   S    
C21   H45   S    
C5    C137  S    
Cr12  O20   S    
C54   C61   A    
Cr5   O29   S    
C29   C35   A    
Cr10  O14   S    
C30   C36   A    
C8    C140  S    
C97   H17   S    
C48   O32   A    
C76   C96   A    
C91   O39   A    
C93   H21   S    
C69   C70   A    
Cr5   O5    S    
C24   H48   S    
Cr1   O17   S    
C122  O6    A    
C107  H31   S    
C73   C77   A    
C103  C107  A    
C67   C69   A    
C75   C79   A    
C130  H38   S    
C88   C116  A    
C100  H20   S    
C63   H7    S    
C21   C49   A    
C7    C8    S    
C146  H81   S    
C132  C139  S    
Cr4   O4    S    
C125  O13   A    
C53   C122  S    
C18   C42   A    
C114  C126  S    
Cr9   O37   S    
Cr4   O24   S    
Cr2   O2    S    
C9    C13   A    
C34   H58   S    
C45   O33   A    
C85   C93   A    
Cr11  O15   S    
C42   O58   S    
C148  H87   S    
C129  H37   S    
C77   C97   A    
C132  H40   S    
C47   O35   A    
C147  H85   S    
Cr1   O1    S    
C90   O38   A    
C84   C116  A    
C71   H15   S    
C72   H16   S    
C1    C12   S    
C2    C11   S    
C88   O56   S    
C127  O15   A    
C20   C44   A    
Cr10  O34   S    
C39   H61   S    
C83   C115  A    
C142  H70   S    
Cr3   O43   S    
C143  H71   S    
C46   O30   A    
C10   C14   A    
C17   C49   A    
C144  H75   S    
C1    O21   A    
Cr9   O17   S    
C132  C136  S    
Cr11  O19   S    
Cr6   O26   S    
O57   C145  S    
C2    O26   A    
C54   C121  S    
C74   C78   A    
C102  H26   S    
C127  O43   A    
C47   C139  S    
Cr12  O36   S    
C145  H78   S    
C129  C130  S    
C105  C109  A    
C110  H34   S    
C40   H62   S    
C107  C111  A    
C24   C28   A    
C15   C31   A    
C16   C32   A    
C13   C17   A    
Cr9   O13   S    
C85   C113  A    
C7    C136  S    
C57   C58   A    
C37   C41   A    
C61   C62   A    
C69   H13   S    
C90   O2    A    
Cr3   O3    S    
C63   C64   A    
C98   H18   S    
C67   H11   S    
C40   C44   A    
Cr8   O28   S    
Cr1   O41   S    
Cr5   O49   S    
C105  H29   S    
C4    C9    S    
C4    O28   A    
C117  O49   A    
Cr12  O16   S    
C24   C52   A    
C88   C96   A    
C120  O52   A    
Cr5   O17   S    
C74   C94   A    
C142  H68   S    
C143  H73   S    
C80   C84   A    
C9    C25   A    
C130  C134  S    
C15   C19   A    
C12   C28   A    
C13   C29   A    
C6    C133  S    
C106  C110  A    
O58   C146  S    
Cr6   O6    S    
C122  O10   A    
C66   H10   S    
C145  H77   S    
C85   O53   S    
C21   C25   A    
C51   C91   S    
C147  H84   S    
O55   C143  S    
C62   H6    S    
C22   C50   A    
C117  O45   A    
C73   C120  S    
O53   C141  S    
C141  H67   S    
C75   C118  S    
C25   H53   S    
C19   C43   A    
Cr9   O33   S    
C29   H49   S    
Cr4   O20   S    
C76   C80   A    
C45   O29   A    
C146  H80   S    
C53   C57   A    
Cr11  O35   S    
C56   C60   A    
C32   H52   S    
O59   C147  S    
C112  H36   S    
C144  H74   S    
C61   H5    S    
C77   C81   A    
C64   H8    S    
C4    O24   A    
C87   O55   S    
C92   O40   A    
C81   C109  A    
C41   O57   S    
C83   C111  A    
C52   C92   S    
Cr3   O47   S    
C7    H43   S    
C131  C132  S    
Cr4   O48   S    
C86   O54   S    
C104  C108  A    
Cr7   O7    S    
C18   C50   A    
C5    H41   S    
Cr2   O22   S    
C55   C124  S    
C96   H24   S    
C126  O14   A    
C22   H46   S    
C57   C65   A    
Cr6   O30   S    
C111  H35   S    
C76   C117  S    
Cr8   O52   S    
C36   C38   A    
Cr10  O18   S    
C79   C83   A    
C65   H9    S    
C134  H2    S    
C8    H44   S    
C103  H27   S    
C101  H25   S    
C44   O60   S    
C71   C72   A    
C99   H19   S    
C60   C68   A    
C148  H86   S    
C22   C26   A    
C81   C113  A    
C121  O5    A    
C141  H65   S    
Cr2   O46   S    
C130  C137  S    
C37   H63   S    
C3    O23   A    
Cr7   O19   S    
C125  O41   A    
Cr9   O9    S    
C14   C18   A    
C135  H3    S    
C74   C119  S    
C33   C39   A    
C133  H1    S    
C82   C110  A    
C142  H69   S    
C143  H72   S    
C38   C42   A    
C144  H76   S    
C131  C135  S    
C70   H14   S    
C136  H4    S    
C113  C125  S    
C23   H47   S    
Cr8   O32   S    
C115  C127  S    
C92   O4    A    
Cr3   O19   S    
Cr6   O50   S    
C35   H59   S    
C106  H30   S    
C86   C94   A    
C118  O50   A    
C33   H57   S    
C58   C66   A    
C119  O47   A    
C129  C138  S    
C120  O48   A    
C78   C98   A    
C31   C33   A    
C23   C27   A    
C31   H51   S    
C46   C138  S    
C59   C67   A    
C10   C26   A    
Cr7   O31   S    
Cr12  O12   S    
C80   C100  A    
C14   C30   A    
C108  H32   S    
C124  O12   A    
C146  H82   S    
C101  C105  A    
C5    C134  S    
C124  O8    A    
C82   C114  A    
Cr7   O51   S    
C2    O22   A    
C39   C43   A    
C65   C71   A    
C87   C95   A    
Cr8   O20   S    
C6    C138  S    
C53   C62   A    
C23   C51   A    
C118  O46   A    
C148  H88   S    
C119  O51   A    
C55   C64   A    
C45   C137  S    
C56   C63   A    
Cr5   O25   S    
C3    O27   A    
C1    O25   A    
C94   H22   S    
O60   C148  S    
Cr7   O27   S    
Cr11  O39   S    
C54   C58   A    
C43   O59   S    
Cr1   O21   S    
C38   H64   S    
C134  C138  S    
C131  H39   S    
C86   C114  A    
Cr8   O8    S    
C20   C52   A    
C3    C10   S    
C7    C139  S    
C104  H28   S    
C102  C106  A    
C27   H55   S    
C91   O3    A    
Cr4   O44   S    
C17   C41   A    
C89   O1    A    
C19   C51   A    
Cr2   O18   S    
C68   C70   A    
C116  C128  S    
C34   C40   A    
C89   O37   A    
C97   C101  A    
