data_mof_unit_58749.cif
_audit_creation_date              2012-12-10T17:32:58-0500
_audit_creation_method            fapswitch 2.2
_symmetry_space_group_name_H-M    P1
_symmetry_Int_Tables_number       1
_space_group_crystal_system       triclinic
_cell_length_a                    12.453041
_cell_length_b                    13.241003
_cell_length_c                    14.283293
_cell_angle_alpha                 94.579053
_cell_angle_beta                  108.151595
_cell_angle_gamma                 117.46602
_cell_volume                      1914.67217054

loop_
_atom_site_label
_atom_site_type_symbol
_atom_type_description
_atom_site_fract_x
_atom_site_fract_y
_atom_site_fract_z
_atom_type_partial_charge
C1    C     C_R   0.650704 0.714399 0.509243 0.888305
C2    C     C_R   0.830290 0.474992 0.916129 0.072510
C3    C     C_R   0.781070 0.491162 0.989984 0.106012
C4    C     C_R   0.933699 0.449731 0.942105 0.070124
C5    C     C_R   0.998813 0.456668 0.045497 0.047814
C6    C     C_R   0.945022 0.468776 0.116534 -0.260804
C7    C     C_R   0.837421 0.484621 0.089525 -0.030175
C8    C     C_R   0.972861 0.415889 0.867875 -0.212738
C9    C     C_R   0.079615 0.399288 0.895598 -0.229782
C10   C     C_R   0.152940 0.418281 0.998060 0.169135
C11   C     C_R   0.114361 0.448771 0.074121 0.098027
C12   C     C_R   0.615163 0.512590 0.686232 0.822050
C13   C     C_R   0.265033 0.407593 0.025461 -0.200877
C14   C     C_R   0.340624 0.428480 0.127986 -0.183542
C15   C     C_R   0.195493 0.474516 0.176771 -0.253216
C16   C     C_R   0.122098 0.962415 0.352491 -0.154870
C17   C     C_R   0.248573 0.159885 0.463901 -0.043651
C18   C     C_R   0.746636 0.923938 0.590714 -0.189045
C19   C     C_R   0.846547 0.040807 0.618725 -0.134251
C20   C     C_R   0.943163 0.073894 0.579395 -0.156424
C21   C     C_R   0.937805 0.990810 0.506132 0.015478
C22   C     C_R   0.825748 0.874871 0.467646 0.031137
C23   C     C_R   0.345518 0.284792 0.485264 0.778915
C24   C     C_R   0.038885 0.019502 0.468867 0.066961
C25   C     C_R   0.022549 0.935425 0.389479 0.106156
C26   C     C_R   0.904409 0.827925 0.343757 -0.317355
C27   C     C_R   0.803339 0.798945 0.378835 0.402545
C28   C     C_R   0.155621 0.130003 0.507315 -0.217491
C29   C     C_R   0.234348 0.074653 0.388994 -0.190873
C30   C     C_R   0.737859 0.839440 0.518293 -0.079717
C31   C     C_R   0.270500 0.722389 0.627119 -0.098705
C32   C     C_R   0.650702 0.330146 0.371724 0.112079
C33   C     C_R   0.725678 0.290285 0.345433 -0.231513
C34   C     C_R   0.380195 0.481225 0.312902 0.828556
C35   C     C_R   0.862576 0.356397 0.391872 -0.178543
C36   C     C_R   0.928154 0.464987 0.465736 -0.000715
C37   C     C_R   0.847920 0.504060 0.492025 0.247448
C38   C     C_R   0.070723 0.535155 0.515064 -0.046896
C39   C     C_R   0.131734 0.651064 0.576932 0.094777
C40   C     C_R   0.054100 0.692479 0.593271 -0.285381
C41   C     C_R   0.920251 0.617765 0.566246 -0.047722
C42   C     C_R   0.156985 0.496333 0.505858 0.007402
C43   C     C_R   0.347262 0.676518 0.617500 0.035039
C44   C     C_R   0.673295 0.509787 0.791986 -0.039673
C45   C     C_R   0.306157 0.462391 0.204188 -0.046340
C46   C     C_R   0.676593 0.513688 0.962317 -0.190582
C47   C     C_R   0.622694 0.521942 0.864024 -0.195543
C48   C     C_R   0.777472 0.488601 0.819054 -0.214549
Cu1   Cu    Cu3+1 0.416420 0.526630 0.522910 0.936282
Cu2   Cu    Cu3+1 0.583580 0.473370 0.477090 0.968631
H1    H     H_    0.294226 0.383151 0.967523 0.135543
H2    H     H_    0.305724 0.096747 0.354545 0.142368
H3    H     H_    0.889116 0.767671 0.278342 0.153918
H4    H     H_    0.110227 0.898476 0.291926 0.139393
H5    H     H_    0.175644 0.196960 0.568961 0.139897
H6    H     H_    0.679034 0.898850 0.628910 0.150619
H7    H     H_    0.019006 0.165741 0.606809 0.122163
H8    H     H_    0.852458 0.105445 0.674698 0.143477
H9    H     H_    0.453565 0.729909 0.654385 0.129423
H10   H     H_    0.176176 0.507376 0.237183 0.158696
H11   H     H_    0.101848 0.781636 0.641039 0.169962
H12   H     H_    0.120361 0.411160 0.457628 0.123574
H13   H     H_    0.544478 0.277635 0.334986 0.112083
H14   H     H_    0.915041 0.321710 0.366784 0.132722
H15   H     H_    0.677248 0.207557 0.288226 0.145272
H16   H     H_    0.425958 0.418619 0.147505 0.165842
H17   H     H_    0.106289 0.373440 0.836407 0.139573
H18   H     H_    0.635749 0.525036 0.016309 0.141892
H19   H     H_    0.541458 0.537706 0.844527 0.156036
H20   H     H_    0.818578 0.486082 0.763530 0.150355
H21   H     H_    0.982020 0.461975 0.193409 0.148348
H22   H     H_    0.920295 0.397606 0.786930 0.141327
N1    N     N_R   0.290690 0.566960 0.557640 -0.189142
N2    N     N_R   0.709100 0.433710 0.442970 -0.197838
O1    O     O_R   0.545970 0.684450 0.528810 -0.600242
O2    O     O_R   0.687130 0.639470 0.490120 -0.541608
O3    O     O_R   0.519670 0.535100 0.660030 -0.585644
O4    O     O_R   0.660830 0.490120 0.621340 -0.592079
O5    O     O_R   0.312870 0.360530 0.509880 -0.588937
O6    O     O_R   0.454030 0.315550 0.471190 -0.596031
O7    O     O_R   0.339170 0.509880 0.378660 -0.587845
O8    O     O_R   0.480330 0.464900 0.339970 -0.561271
C49   C     C_1   0.788539 0.495929 0.166900 0.195784
N3    N     N_1   0.749474 0.504950 0.228808 -0.299048
O9    O     O_3   0.679128 0.702149 0.322779 -0.726120
H23   H     H_    0.677848 0.664140 0.259472 0.334608
C50   C     C_1   0.337468 0.842155 0.689581 0.199879
N4    N     N_1   0.391097 0.937920 0.739452 -0.277215
C51   C     C_1   0.883655 0.664495 0.637344 0.322809
N5    N     N_1   0.864396 0.709973 0.697725 -0.326952

loop_
_geom_bond_atom_site_label_1
_geom_bond_atom_site_label_2
_ccdc_geom_bond_type
C43   N1    A    
C7    C49   S    
C37   N2    A    
C17   C29   A    
C15   H10   S    
C41   C51   S    
C35   C36   A    
C4    C8    A    
C33   H15   S    
O9    H23   S    
C26   C27   A    
C17   C23   S    
C31   C43   A    
C36   C37   A    
C5    C11   A    
C3    C7    A    
Cu2   N2    S    
C32   N2    A    
C5    C6    A    
C18   C19   A    
Cu1   O7    S    
C27   O9    S    
C47   H19   S    
C13   H1    S    
C11   C15   A    
C19   C20   A    
Cu1   O3    S    
C8    C9    A    
C12   O4    A    
Cu1   O1    S    
C35   H14   S    
C18   C30   A    
C34   O7    A    
C23   O6    A    
C9    C10   A    
C42   H12   S    
C44   C47   A    
C43   H9    S    
C21   C22   A    
C17   C28   A    
Cu2   O4    S    
C28   H5    S    
C14   C45   A    
C19   H8    S    
C6    H21   S    
C8    H22   S    
C31   C50   S    
C1    O1    A    
C24   C25   A    
C39   C40   A    
C2    C48   A    
C16   C29   A    
C40   H11   S    
Cu1   O5    S    
C2    C4    A    
C9    H17   S    
C46   H18   S    
Cu2   O2    S    
C49   N3    T    
C12   O3    A    
C14   H16   S    
C34   C45   S    
C40   C41   A    
C22   C27   A    
Cu1   N1    S    
C15   C45   A    
C26   H3    S    
Cu2   O8    S    
C16   C25   A    
C20   H7    S    
C46   C47   A    
C42   N1    A    
C22   C30   A    
C1    O2    A    
C24   C28   A    
C32   H13   S    
C48   H20   S    
C4    C5    A    
C10   C13   A    
Cu2   O6    S    
C38   C42   A    
C6    C7    A    
C18   H6    S    
C3    C46   A    
C32   C33   A    
C36   C38   A    
C2    C3    A    
C25   C26   A    
C12   C44   S    
C38   C39   A    
C1    C30   S    
C33   C35   A    
C31   C39   A    
C37   C41   A    
C16   H4    S    
C10   C11   A    
C20   C21   A    
C50   N4    T    
Cu1   Cu2   S    
C21   C24   A    
C34   O8    A    
C23   O5    A    
C51   N5    T    
C13   C14   A    
C44   C48   A    
C29   H2    S    
