data_mof_unit_41914.cif
_audit_creation_date              2012-12-10T17:13:35-0500
_audit_creation_method            fapswitch 2.2
_symmetry_space_group_name_H-M    P1
_symmetry_Int_Tables_number       1
_space_group_crystal_system       triclinic
_cell_length_a                    10.735957
_cell_length_b                    13.00135
_cell_length_c                    11.711333
_cell_angle_alpha                 99.724197
_cell_angle_beta                  94.339552
_cell_angle_gamma                 91.000076
_cell_volume                      1605.82415315

loop_
_atom_site_label
_atom_site_type_symbol
_atom_type_description
_atom_site_fract_x
_atom_site_fract_y
_atom_site_fract_z
_atom_type_partial_charge
C1    C     C_R   0.494866 0.299261 0.478981 0.851621
C2    C     C_3   0.878171 0.505087 0.501495 0.146757
C3    C     C_3   0.939653 0.538886 0.627188 -0.367280
C4    C     C_3   0.922522 0.583892 0.426074 -0.434722
C5    C     C_R   0.485417 0.812511 0.533344 -0.145272
C6    C     C_R   0.491577 0.185732 0.468137 -0.106249
C7    C     C_R   0.563596 0.021163 0.371048 -0.175607
C8    C     C_R   0.550476 0.127658 0.376831 -0.188630
C9    C     C_R   0.439069 0.135728 0.552613 -0.036164
C10   C     C_R   0.452519 0.027343 0.546588 0.025448
C11   C     C_R   0.516967 0.970963 0.455987 0.159966
C12   C     C_R   0.259931 0.501991 0.500409 0.811110
C13   C     C_R   0.532744 0.864350 0.450178 -0.322104
C14   C     C_R   0.420153 0.866838 0.623228 0.435100
C15   C     C_R   0.401232 0.973148 0.627282 -0.251791
C16   C     C_R   0.363888 0.423905 0.020838 -0.348774
C17   C     C_R   0.377378 0.426397 0.141488 0.214722
C18   C     C_R   0.562151 0.532569 0.156544 0.005054
C19   C     C_R   0.551048 0.530167 0.033829 0.074866
C20   C     C_R   0.450503 0.474412 0.966073 0.045002
C21   C     C_R   0.438219 0.469811 0.844188 0.040624
C22   C     C_R   0.621133 0.575582 0.854699 0.078320
C23   C     C_R   0.498065 0.700364 0.521259 0.853866
C24   C     C_R   0.636765 0.581987 0.976580 -0.324769
C25   C     C_R   0.740220 0.502835 0.500598 0.748046
C26   C     C_3   0.065714 0.393787 0.457295 -0.386820
C27   C     C_3   0.921894 0.394757 0.451930 -0.395463
C28   C     C_3   0.082604 0.539301 0.627436 -0.346611
C29   C     C_3   0.066222 0.580099 0.420517 -0.152210
C30   C     C_3   0.122057 0.505254 0.501649 0.047597
Cu1   Cu    Cu3+1 0.509350 0.507730 0.615930 0.968169
Cu2   Cu    Cu3+1 0.490650 0.492270 0.384070 0.986780
H1    H     H_    0.099913 0.339872 0.516192 0.222743
H2    H     H_    0.892686 0.663508 0.462642 0.172364
H3    H     H_    0.122708 0.617788 0.666549 0.220128
H4    H     H_    0.909508 0.618232 0.664337 0.172652
H5    H     H_    0.581946 0.821314 0.380568 0.161934
H6    H     H_    0.611779 0.978194 0.300833 0.137792
H7    H     H_    0.343772 0.011374 0.692661 0.184231
H8    H     H_    0.590816 0.165523 0.312030 0.162877
H9    H     H_    0.360865 0.426238 0.792325 0.145101
H10   H     H_    0.095932 0.362493 0.370277 0.192110
H11   H     H_    0.688127 0.615516 0.811762 0.120139
H12   H     H_    0.285358 0.381239 0.969136 0.157709
H13   H     H_    0.715430 0.626622 0.025219 0.140758
H14   H     H_    0.638576 0.576815 0.209177 0.121330
H15   H     H_    0.883030 0.371064 0.360179 0.177448
H16   H     H_    0.886824 0.336583 0.502492 0.168026
H17   H     H_    0.119334 0.484407 0.684411 0.180277
H18   H     H_    0.909768 0.484227 0.684288 0.182397
H19   H     H_    0.083927 0.545677 0.329669 0.177382
H20   H     H_    0.877059 0.564549 0.336123 0.165907
N1    N     N_R   0.523430 0.519360 0.790130 -0.185792
N2    N     N_R   0.476570 0.480640 0.209880 -0.216167
O1    O     O_R   0.506640 0.354460 0.582000 -0.572615
O2    O     O_R   0.490840 0.341410 0.386200 -0.544041
O3    O     O_R   0.325590 0.506510 0.597900 -0.582935
O4    O     O_R   0.309790 0.493450 0.402100 -0.576120
O5    O     O_R   0.509160 0.658590 0.613800 -0.570834
O6    O     O_R   0.493360 0.645540 0.418000 -0.578205
O7    O     O_R   0.690210 0.506550 0.597900 -0.601883
O8    O     O_R   0.674410 0.493490 0.402100 -0.601799
O9    O     O_3   0.360384 0.813341 0.697122 -0.548135
C31   C     C_3   0.423096 0.836029 0.809264 0.081305
H21   H     H_    0.417174 0.920145 0.847115 0.146321
H22   H     H_    0.523211 0.814999 0.806941 0.139404
C32   C     C_3   0.361793 0.772110 0.888322 -0.730422
H23   H     H_    0.362259 0.687805 0.850998 0.255151
H24   H     H_    0.413646 0.785269 0.975507 0.197832
H25   H     H_    0.263581 0.795505 0.897585 0.246655
C33   C     C_2   0.370538 0.196153 0.646144 0.832728
O10   O     O_2   0.280707 0.246736 0.621018 -0.634111
O11   O     O_R   0.409884 0.195674 0.762621 -0.772566
H26   H     H_    0.353702 0.236903 0.818084 0.320421
C34   C     C_2   0.277175 0.369602 0.186816 0.849546
O12   O     O_2   0.301299 0.300380 0.242676 -0.586711
O13   O     O_R   0.152821 0.387309 0.152448 -0.796356
H27   H     H_    0.091699 0.335024 0.174222 0.318147
C35   C     C_2   0.127087 0.688536 0.444169 0.828012
O14   O     O_2   0.113140 0.748268 0.534510 -0.577334
O15   O     O_R   0.198801 0.720352 0.360881 -0.751837
H28   H     H_    0.234651 0.794103 0.385659 0.338452

loop_
_geom_bond_atom_site_label_1
_geom_bond_atom_site_label_2
_ccdc_geom_bond_type
C27   H16   S    
O11   H26   S    
Cu1   O7    S    
C2    C4    S    
C19   C20   A    
Cu2   O4    S    
C6    C9    A    
O15   H28   S    
C7    C8    A    
O13   H27   S    
C7    C11   A    
C26   C27   S    
C4    H20   S    
C24   H13   S    
C3    C28   S    
C1    O2    A    
C10   C15   A    
C18   C19   A    
Cu1   O5    S    
Cu1   Cu2   S    
C28   H3    S    
C16   C17   A    
C29   C35   S    
C2    C27   S    
C9    C10   A    
C16   H12   S    
C13   H5    S    
C4    C29   S    
C12   O4    A    
C18   H14   S    
Cu2   N2    S    
C3    H18   S    
C22   N1    A    
C23   O6    A    
C4    H2    S    
C32   H23   S    
C31   C32   S    
C35   O14   D    
C33   O11   S    
C6    C8    A    
C1    C6    S    
C32   H24   S    
C31   H22   S    
C23   O5    A    
C34   O12   D    
C29   C30   S    
C28   H17   S    
C26   H1    S    
C22   H11   S    
C5    C23   S    
C16   C20   A    
C25   O7    A    
Cu1   N1    S    
C34   O13   S    
C15   H7    S    
C5    C14   A    
C21   H9    S    
C12   O3    A    
C26   C30   S    
C22   C24   A    
Cu2   O6    S    
C26   H10   S    
C35   O15   S    
C29   H19   S    
C27   H15   S    
C12   C30   S    
C5    C13   A    
C9    C33   S    
C32   H25   S    
C31   H21   S    
Cu1   O3    S    
C28   C30   S    
C2    C3    S    
C1    O1    A    
Cu2   O8    S    
C33   O10   D    
C21   N1    A    
C11   C13   A    
C3    H4    S    
C14   O9    S    
C7    H6    S    
C19   C24   A    
C2    C25   S    
C25   O8    A    
C10   C11   A    
C18   N2    A    
O9    C31   S    
C20   C21   A    
C17   C34   S    
C14   C15   A    
C8    H8    S    
Cu1   O1    S    
C17   N2    A    
Cu2   O2    S    
