data_mof_unit_7752.cif
_audit_creation_date              2013-03-05T15:44:10-0500
_audit_creation_method            fapswitch 2.2
_symmetry_space_group_name_H-M    P1
_symmetry_Int_Tables_number       1
_space_group_crystal_system       triclinic
_cell_length_a                    19.382948
_cell_length_b                    10.914638
_cell_length_c                    9.682716
_cell_angle_alpha                 89.808993
_cell_angle_beta                  89.673439
_cell_angle_gamma                 90.33855
_cell_volume                      2048.37403806

loop_
_atom_site_label
_atom_site_type_symbol
_atom_site_description
_atom_site_fract_x
_atom_site_fract_y
_atom_site_fract_z
_atom_type_partial_charge
O1    O     O_R   0.500010 0.321960 0.617040 -0.533336
O2    O     O_R   0.499990 0.321920 0.382900 -0.603270
C1    C     C_R   0.496746 0.265179 0.500188 0.752668
O3    O     O_R   0.400160 0.500010 0.617110 -0.524272
O4    O     O_R   0.400130 0.499970 0.382960 -0.523554
C2    C     C_R   0.367415 0.500371 0.500467 0.866977
Cu1   Cu    Cu3+1 0.500010 0.500020 0.638630 1.134650
Cu2   Cu    Cu3+1 0.499990 0.499980 0.361370 1.102026
O5    O     O_R   0.500010 0.678080 0.617100 -0.527495
O6    O     O_R   0.499990 0.678040 0.382960 -0.522794
O7    O     O_R   0.599870 0.500030 0.617040 -0.558578
O8    O     O_R   0.599840 0.499990 0.382890 -0.546081
C3    C     C_R   0.500731 0.734400 0.499552 0.767860
C4    C     C_R   0.632721 0.501130 0.499565 0.835680
C5    C     C_R   0.255111 0.538959 0.620881 0.539982
C6    C     C_R   0.183316 0.542246 0.621039 -0.312919
H1    H     H_    0.157073 0.570942 0.714404 0.229435
C7    C     C_R   0.145930 0.509313 0.502928 -0.250150
C8    C     C_R   0.182168 0.473116 0.383429 0.567999
C9    C     C_R   0.254061 0.470060 0.382847 0.467219
C10   C     C_R   0.291357 0.502613 0.501610 -0.383137
N1    N     N_R   0.032206 0.471551 0.398089 -0.137029
N2    N     N_R   0.963738 0.476928 0.400346 -0.188619
C11   C     C_R   0.929927 0.525118 0.510326 0.454275
N3    N     N_R   0.967337 0.566543 0.618601 -0.196468
N4    N     N_R   0.035870 0.561138 0.616401 -0.247588
C12   C     C_R   0.069759 0.513960 0.505764 0.492149
C13   C     C_R   0.815472 0.522510 0.633926 0.461772
C14   C     C_R   0.743655 0.506914 0.626813 -0.359558
H2    H     H_    0.714948 0.490783 0.721374 0.205460
C15   C     C_R   0.708955 0.509487 0.500005 -0.238512
C16   C     C_R   0.747339 0.525299 0.376922 0.357486
C17   C     C_R   0.818791 0.545947 0.383300 0.314889
C18   C     C_R   0.853815 0.532352 0.510081 -0.209659
C19   C     C_2   0.469860 0.931743 0.406158 0.245075
C20   C     C_2   0.507009 0.865772 0.496257 0.396799
C21   C     C_2   0.485778 0.063706 0.389010 0.260096
C22   C     C_2   0.483872 0.133920 0.503315 0.402928
C23   C     C_2   0.464522 0.422057 0.923212 0.659614
N5    N     N_2   0.499250 0.498660 0.846910 0.107422
C24   C     C_2   0.479214 0.408566 0.076314 -0.015221
N6    N     N_2   0.499230 0.498630 0.153040 0.114769
H3    H     H_    0.470110 0.320361 0.124208 0.113789
F1    F     F_    0.288785 0.574114 0.736909 -0.629593
F2    F     F_    0.555955 0.918355 0.577651 -0.652609
O9    O     O_3   0.497171 0.118237 0.259876 -0.649913
C25   C     C_3   0.526294 0.039142 0.159881 0.076055
H4    H     H_    0.525632 0.089166 0.059756 0.176734
H5    H     H_    0.494792 0.955555 0.142790 0.222294
C26   C     C_3   0.601641 0.007800 0.191985 -0.407877
H6    H     H_    0.631925 0.093808 0.204237 0.218746
H7    H     H_    0.604807 0.954938 0.289822 0.234286
C27   C     C_3   0.633220 0.931474 0.076189 -0.798716
H8    H     H_    0.603748 0.844665 0.063145 0.307673
H9    H     H_    0.687258 0.908480 0.101879 0.243825
H10   H     H_    0.633039 0.983611 0.977462 0.267260
F3    F     F_    0.465188 0.084659 0.627800 -0.648039
O10   O     O_3   0.419613 0.342168 0.856609 -0.617237
C28   C     C_3   0.358223 0.319863 0.932876 0.055869
H11   H     H_    0.314104 0.339692 0.863686 0.216565
H12   H     H_    0.351088 0.379899 0.024717 0.197394
C29   C     C_3   0.354399 0.184571 0.974537 -0.371591
H13   H     H_    0.355809 0.126983 0.880072 0.266300
H14   H     H_    0.399518 0.160544 0.038930 0.229303
C30   C     C_3   0.288524 0.155856 0.055645 -0.805434
H15   H     H_    0.288071 0.206871 0.154668 0.297507
H16   H     H_    0.286044 0.056283 0.078886 0.239380
H17   H     H_    0.242401 0.180987 0.994404 0.271180
F4    F     F_    0.556723 0.546598 0.901040 -0.555082
F5    F     F_    0.489585 0.610790 0.100402 -0.482237
F6    F     F_    0.148565 0.441316 0.266113 -0.602167
F7    F     F_    0.286901 0.433943 0.265822 -0.636558
O11   O     O_3   0.849429 0.514567 0.759520 -0.570566
C31   C     C_3   0.826955 0.606160 0.853245 0.088874
H18   H     H_    0.829502 0.565871 0.958549 0.169216
H19   H     H_    0.772515 0.635714 0.840483 0.126213
C32   C     C_3   0.874986 0.718500 0.850244 -0.338041
H20   H     H_    0.867359 0.771021 0.946914 0.174649
H21   H     H_    0.929724 0.689137 0.847234 0.257678
C33   C     C_3   0.860177 0.804542 0.729324 -0.789977
H22   H     H_    0.872456 0.760461 0.629437 0.249746
H23   H     H_    0.892714 0.888152 0.738465 0.243746
H24   H     H_    0.805137 0.832332 0.730179 0.248243
O12   O     O_3   0.714610 0.529684 0.250359 -0.570965
C34   C     C_3   0.726185 0.418034 0.180436 0.062754
H25   H     H_    0.711160 0.337947 0.246257 0.119838
H26   H     H_    0.781441 0.409726 0.150256 0.184739
C35   C     C_3   0.682427 0.415314 0.049918 -0.260802
H27   H     H_    0.627180 0.411934 0.080027 0.253508
H28   H     H_    0.691873 0.500110 0.988703 0.243260
C36   C     C_3   0.698758 0.304216 0.960539 -0.930654
H29   H     H_    0.753175 0.308408 0.924072 0.272688
H30   H     H_    0.664395 0.303470 0.869143 0.278769
H31   H     H_    0.690289 0.218186 0.019904 0.255277
O13   O     O_3   0.853647 0.576601 0.262452 -0.594358
C37   C     C_3   0.873890 0.701629 0.265472 0.081430
H32   H     H_    0.913108 0.715459 0.182731 0.174391
H33   H     H_    0.899555 0.727464 0.363840 0.127287
C38   C     C_3   0.812853 0.787239 0.237778 -0.374792
H34   H     H_    0.786857 0.759823 0.140607 0.234667
H35   H     H_    0.774754 0.780144 0.323636 0.229831
C39   C     C_3   0.836921 0.920362 0.226349 -0.907251
H36   H     H_    0.862973 0.948954 0.323040 0.265989
H37   H     H_    0.791925 0.980932 0.209652 0.259366
H38   H     H_    0.873251 0.931826 0.138079 0.259560
O14   O     O_3   0.421761 0.873916 0.322051 -0.609010
C40   C     C_3   0.355196 0.922474 0.344794 0.064959
H39   H     H_    0.323221 0.897497 0.254222 0.191640
H40   H     H_    0.354830 0.024427 0.350472 0.140398
C41   C     C_3   0.322116 0.865465 0.474398 -0.357443
H41   H     H_    0.324574 0.764070 0.467202 0.227288
H42   H     H_    0.351094 0.894657 0.567485 0.241172
C42   C     C_3   0.246939 0.903651 0.490447 -0.847247
H43   H     H_    0.243266 0.004854 0.499390 0.258104
H44   H     H_    0.224778 0.861136 0.585283 0.273263
H45   H     H_    0.216407 0.872423 0.400281 0.256468

loop_
_geom_bond_atom_site_label_1
_geom_bond_atom_site_label_2
_geom_bond_distance
_ccdc_geom_bond_type
C24   H3    1.080334 S    
C24   N6    1.293214 D    
C8    F6    1.357729 S    
O13   C37   1.418127 S    
C4    C15   1.479950 S    
Cu1   Cu2   2.684633 S    
C25   H5    1.108205 S    
C32   H20   1.108888 S    
Cu1   O7    1.945654 S    
N4    C12   1.357902 A    
C29   H13   1.111845 S    
C31   H19   1.112682 S    
C13   C14   1.403513 A    
C19   C21   1.479836 S    
Cu2   N6    2.017441 S    
C5    F1    1.357824 S    
C33   H24   1.110828 S    
C34   H25   1.116360 S    
O4    C2    1.299429 A    
Cu2   O6    1.955364 S    
O7    C4    1.300394 A    
C34   C35   1.526283 S    
O14   C40   1.414109 S    
C5    C6    1.392269 A    
C37   C38   1.536130 S    
N6    F5    1.339023 S    
C39   H38   1.110592 S    
C7    C8    1.409022 A    
O11   C31   1.421068 S    
O5    C3    1.291734 A    
C41   H41   1.110396 S    
C29   H14   1.109125 S    
C38   H34   1.110940 S    
C1    C22   1.452944 S    
C6    H1    1.082876 S    
C30   H16   1.109834 S    
C31   C32   1.535239 S    
C37   H33   1.113431 S    
C26   H7    1.109746 S    
Cu1   N5    2.016690 S    
C14   H2    1.082075 S    
C42   H45   1.110904 S    
C35   H27   1.108591 S    
C27   H9    1.107973 S    
C13   C18   1.410636 A    
C28   H11   1.111184 S    
C40   H40   1.114382 S    
O3    Cu1   1.947750 S    
C13   O11   1.388776 S    
C17   O13   1.386845 S    
C17   C18   1.413963 A    
C25   C26   1.535239 S    
C32   H21   1.110388 S    
C16   O12   1.383963 S    
C28   H12   1.114838 S    
C26   C27   1.526501 S    
N5    F4    1.338299 S    
C34   H26   1.112864 S    
O12   C34   1.414481 S    
C3    C20   1.438542 S    
C33   H23   1.110290 S    
C31   H18   1.110533 S    
C36   H29   1.111019 S    
O10   C28   1.416287 S    
C27   H8    1.111409 S    
C2    C10   1.474561 S    
C11   C18   1.477873 S    
O1    C1    1.293557 A    
C19   C20   1.344307 D    
C21   C22   1.348762 D    
C36   H30   1.110656 S    
C22   F3    1.364373 S    
C25   H4    1.111244 S    
C35   C36   1.525774 S    
Cu2   O8    1.947754 S    
C30   H17   1.110831 S    
C37   H32   1.110587 S    
C26   H6    1.111262 S    
C20   F2    1.362238 S    
C11   N3    1.355475 A    
C39   H37   1.109753 S    
C41   C42   1.525174 S    
O3    C2    1.298697 A    
C38   H35   1.111011 S    
O8    C4    1.300322 A    
N1    C12   1.356072 A    
C40   C41   1.534281 S    
C40   H39   1.110550 S    
C23   N5    1.296752 D    
C42   H43   1.110948 S    
C27   H10   1.110902 S    
Cu1   O5    1.953917 S    
O9    C25   1.416504 S    
C28   C29   1.530739 S    
C29   C30   1.525633 S    
O1    Cu1   1.955365 S    
C15   C16   1.410907 A    
O2    Cu2   1.953919 S    
C7    C12   1.477701 S    
C35   H28   1.111096 S    
C33   H22   1.106975 S    
O6    C3    1.287559 A    
O4    Cu2   1.945652 S    
C16   C17   1.403590 A    
C8    C9    1.394076 A    
O2    C1    1.292776 A    
N3    N4    1.330070 A    
C14   C15   1.403623 A    
C19   O14   1.391359 S    
C36   H31   1.110204 S    
C32   C33   1.528025 S    
C23   O10   1.391078 S    
C39   H36   1.111034 S    
C41   H42   1.111291 S    
N2    C11   1.356467 A    
C5    C10   1.407751 A    
C38   C39   1.526887 S    
C9    C10   1.407260 A    
C23   C24   1.517983 S    
C6    C7    1.404048 A    
C30   H15   1.110385 S    
N1    N2    1.328816 A    
C9    F7    1.357297 S    
C21   O9    1.398842 S    
C42   H44   1.110577 S    
