data_mof_unit_35221.cif
_audit_creation_date              2013-03-05T16:06:54-0500
_audit_creation_method            fapswitch 2.2
_symmetry_space_group_name_H-M    P1
_symmetry_Int_Tables_number       1
_space_group_crystal_system       triclinic
_cell_length_a                    10.802974
_cell_length_b                    9.52149
_cell_length_c                    10.862526
_cell_angle_alpha                 90.211352
_cell_angle_beta                  90.164779
_cell_angle_gamma                 90.009048
_cell_volume                      1117.31162785

loop_
_atom_site_label
_atom_site_type_symbol
_atom_site_description
_atom_site_fract_x
_atom_site_fract_y
_atom_site_fract_z
_atom_type_partial_charge
O1    O     O_R   0.319640 0.618740 0.499990 -0.543269
O2    O     O_R   0.680360 0.618740 0.500010 -0.568881
O3    O     O_R   0.319620 0.381170 0.499990 -0.588239
O4    O     O_R   0.680380 0.381170 0.500010 -0.598968
C1    C     C_R   0.262267 0.500047 0.501846 0.879071
C2    C     C_R   0.737744 0.499971 0.502889 0.860996
O5    O     O_R   0.499990 0.618810 0.319660 -0.584082
O6    O     O_R   0.500010 0.618810 0.680340 -0.548536
O7    O     O_R   0.499960 0.381240 0.319650 -0.602827
O8    O     O_R   0.500040 0.381240 0.680350 -0.587853
C3    C     C_R   0.500168 0.499643 0.262680 0.830472
C4    C     C_R   0.501146 0.500288 0.737430 0.868442
Cu1   Cu    Cu3+1 0.500000 0.640660 0.500000 1.050372
Cu2   Cu    Cu3+1 0.500000 0.359340 0.500000 0.993077
C5    C     C_R   0.481500 0.619041 0.062977 0.015435
C6    C     C_R   0.485578 0.621042 0.938816 0.024456
C7    C     C_R   0.503353 0.498154 0.130220 -0.059930
C8    C     C_R   0.506032 0.499941 0.870061 -0.056660
C9    C     C_R   0.529713 0.373878 0.064205 -0.164954
C10   C     C_R   0.530650 0.374698 0.934985 -0.133973
H1    H     H_    0.548654 0.276343 0.111678 0.179921
H2    H     H_    0.549708 0.277528 0.886553 0.207663
C11   C     C_3   0.444536 0.771263 0.932175 0.127801
C12   C     C_3   0.440432 0.768405 0.074206 0.072210
H3    H     H_    0.353326 0.785489 0.886251 0.201122
H4    H     H_    0.508640 0.836948 0.122366 0.136562
C13   C     C_R   0.063563 0.399658 0.438905 -0.161259
C14   C     C_R   0.935691 0.399550 0.439667 -0.185713
H5    H     H_    0.111974 0.322479 0.383461 0.179705
H6    H     H_    0.886563 0.322538 0.384379 0.180269
C15   C     C_R   0.871608 0.499903 0.508778 -0.178715
C16   C     C_R   0.128470 0.500565 0.506761 -0.172742
C17   C     C_R   0.935792 0.599660 0.581143 0.248275
C18   C     C_R   0.065353 0.600535 0.579040 0.271983
C19   C     C_R   0.417208 0.074083 0.429699 0.010711
C20   C     C_R   0.583057 0.074702 0.569904 0.053561
H7    H     H_    0.350924 0.129832 0.373273 0.146940
H8    H     H_    0.649276 0.130921 0.626426 0.156016
C21   C     C_R   0.417111 0.925281 0.429859 0.030678
C22   C     C_R   0.583034 0.925918 0.569830 0.075524
H9    H     H_    0.350545 0.868985 0.373938 0.181900
H10   H     H_    0.648864 0.870132 0.626471 0.205578
N1    N     N_R   0.500000 0.852070 0.500000 -0.200233
N2    N     N_R   0.500000 0.147940 0.500000 -0.190036
N3    N     N_R   0.540308 0.866017 0.886496 0.121859
O9    O     O_R   0.507790 0.987528 0.842860 -0.375146
O10   O     O_R   0.656948 0.841281 0.907705 -0.288676
N4    N     N_R   0.314172 0.784057 0.120880 0.126529
O11   O     O_R   0.261276 0.906655 0.117134 -0.326686
O12   O     O_R   0.256142 0.679584 0.171874 -0.341758
N5    N     N_R   0.870534 0.691275 0.663972 0.140082
O13   O     O_R   0.893951 0.825317 0.666094 -0.290099
O14   O     O_R   0.791598 0.639566 0.741898 -0.334760
N6    N     N_R   0.132431 0.692897 0.659475 0.160613
O15   O     O_R   0.189619 0.642105 0.754951 -0.364567
O16   O     O_R   0.149945 0.823276 0.628665 -0.289260

loop_
_geom_bond_atom_site_label_1
_geom_bond_atom_site_label_2
_geom_bond_distance
_ccdc_geom_bond_type
O5    Cu1   1.969201 S    
C19   C21   1.416820 A    
C11   C12   1.543922 S    
C15   C17   1.411385 A    
O6    Cu1   1.970727 S    
C11   N3    1.461694 S    
C13   H5    1.083939 S    
Cu2   N2    2.012843 S    
C9    C10   1.403776 A    
O6    C4    1.289719 A    
O7    Cu2   1.970887 S    
C1    C16   1.446554 S    
N4    O12   1.302003 A    
C17   C18   1.399918 A    
C19   H7    1.081759 S    
C21   H9    1.080924 S    
N3    O9    1.299942 A    
O5    C3    1.290482 A    
C19   N2    1.367311 A    
O7    C3    1.288061 A    
N5    O13   1.301179 A    
O2    C2    1.290150 A    
O3    Cu2   1.959727 S    
O8    C4    1.290038 A    
O1    C1    1.289095 A    
C14   H6    1.083896 S    
N4    O11   1.300480 A    
C9    H1    1.083155 S    
C10   H2    1.082712 S    
C18   N6    1.432609 S    
C6    C11   1.499468 S    
C8    C10   1.412578 A    
C11   H3    1.111668 S    
O4    Cu2   1.959660 S    
N6    O16   1.300868 A    
C20   N2    1.366797 A    
O4    C2    1.289942 A    
C17   N5    1.437181 S    
C14   C15   1.397768 A    
N5    O14   1.301229 A    
C20   H8    1.081733 S    
C12   N4    1.463958 S    
Cu1   N1    2.012938 S    
O1    Cu1   1.959538 S    
C21   N1    1.366910 A    
C6    C8    1.389542 A    
O8    Cu2   1.969355 S    
N3    O10   1.301971 A    
C4    C8    1.441546 S    
C13   C14   1.381445 A    
C5    C7    1.385423 A    
O2    Cu1   1.959602 S    
N6    O15   1.300486 A    
C5    C12   1.494492 S    
C20   C22   1.416642 A    
C2    C15   1.447355 S    
C7    C9    1.410852 A    
C13   C16   1.396311 A    
Cu1   Cu2   2.678586 S    
C22   N1    1.366149 A    
C3    C7    1.439375 S    
C5    C6    1.349760 A    
C12   H4    1.112511 S    
C22   H10   1.080029 S    
O3    C1    1.290575 A    
C16   C18   1.408963 A    
