data_mof_unit_59069.cif
_audit_creation_date              2012-12-10T16:57:49-0500
_audit_creation_method            fapswitch 2.2
_symmetry_space_group_name_H-M    P1
_symmetry_Int_Tables_number       1
_space_group_crystal_system       triclinic
_cell_length_a                    10.642939
_cell_length_b                    10.89016
_cell_length_c                    9.751878
_cell_angle_alpha                 89.78497
_cell_angle_beta                  88.56651
_cell_angle_gamma                 89.772942
_cell_volume                      1129.90477231

loop_
_atom_site_label
_atom_site_type_symbol
_atom_type_description
_atom_site_fract_x
_atom_site_fract_y
_atom_site_fract_z
_atom_type_partial_charge
C1    C     C_R   0.496399 0.265393 0.500778 0.862636
C2    C     C_3   0.967236 0.531641 0.374383 0.233459
C3    C     C_3   0.046429 0.417756 0.410114 -0.201785
C4    C     C_3   0.123017 0.499114 0.505229 -0.055945
C5    C     C_2   0.428625 0.935210 0.405882 0.196246
C6    C     C_2   0.493894 0.867256 0.496742 -0.361066
C7    C     C_2   0.453096 0.067997 0.395999 -0.166923
C8    C     C_2   0.481247 0.133514 0.506585 -0.374493
C9    C     C_2   0.584887 0.451798 0.923688 0.007032
C10   C     C_2   0.595318 0.476002 0.074720 -0.088342
C11   C     C_R   0.259655 0.499122 0.501737 0.784572
C12   C     C_R   0.494355 0.734472 0.499507 0.830022
C13   C     C_R   0.740545 0.501647 0.498374 0.795041
C14   C     C_3   0.033941 0.469981 0.626681 0.230683
C15   C     C_3   0.955619 0.388360 0.532608 -0.212446
C16   C     C_3   0.877618 0.502374 0.495555 -0.063164
C17   C     C_3   0.954354 0.583742 0.591141 -0.204031
C18   C     C_3   0.045265 0.613186 0.468678 -0.217837
Cu1   Cu    Cu3+1 0.500030 0.500020 0.638630 0.914870
Cu2   Cu    Cu3+1 0.499970 0.499980 0.361370 0.915149
H1    H     H_    0.916670 0.296489 0.558473 0.132250
H2    H     H_    0.483214 0.091380 0.607573 0.153394
H3    H     H_    0.657825 0.395987 0.875209 0.124020
H4    H     H_    0.687190 0.472105 0.118747 0.144518
H5    H     H_    0.415376 0.464481 0.118616 0.209077
H6    H     H_    0.914503 0.651374 0.665393 0.137245
H7    H     H_    0.084451 0.705061 0.443514 0.139735
H8    H     H_    0.086347 0.350090 0.335918 0.136770
H9    H     H_    0.558694 0.909584 0.566276 0.124993
H10   H     H_    0.440090 0.113237 0.297804 0.167839
N1    N     N_2   0.498620 0.498660 0.846910 -0.161060
N2    N     N_2   0.498590 0.498630 0.153040 -0.288066
O1    O     O_R   0.500020 0.321960 0.617040 -0.581929
O2    O     O_R   0.499980 0.321920 0.382900 -0.573609
O3    O     O_R   0.316870 0.499990 0.617050 -0.613718
O4    O     O_R   0.316830 0.499950 0.382910 -0.585510
O5    O     O_R   0.500020 0.678080 0.617100 -0.585217
O6    O     O_R   0.499980 0.678040 0.382960 -0.571136
O7    O     O_R   0.683170 0.500050 0.617090 -0.576689
O8    O     O_R   0.683130 0.500010 0.382950 -0.591007
C19   C     C_3   0.422535 0.604409 0.893231 -0.062658
C20   C     C_3   0.501848 0.717296 0.927591 -0.822101
H11   H     H_    0.536169 0.712415 0.033787 0.246745
H12   H     H_    0.583866 0.725864 0.855679 0.260561
H13   H     H_    0.443356 0.801608 0.919736 0.207047
H14   H     H_    0.360747 0.632028 0.809115 0.202617
H15   H     H_    0.352467 0.582870 0.974611 0.103885
C21   C     C_3   0.073321 0.434201 0.771127 -0.380906
C22   C     C_3   0.959439 0.404583 0.863333 -0.876146
H16   H     H_    0.896801 0.486052 0.873335 0.254900
H17   H     H_    0.905751 0.326950 0.820649 0.249052
H18   H     H_    0.991352 0.377846 0.966772 0.245894
H19   H     H_    0.135861 0.352415 0.764830 0.205697
H20   H     H_    0.126232 0.511205 0.816356 0.196377
C23   C     C_3   0.932250 0.566330 0.228386 -0.392802
C24   C     C_3   0.047581 0.604612 0.142477 -0.861892
H21   H     H_    0.092947 0.685939 0.187929 0.252094
H22   H     H_    0.116759 0.528071 0.135895 0.254877
H23   H     H_    0.018737 0.629098 0.037232 0.244005
H24   H     H_    0.889217 0.485390 0.179988 0.193730
H25   H     H_    0.863174 0.643042 0.231608 0.206139
C25   C     C_3   0.331244 0.882464 0.310740 -0.365945
C26   C     C_3   0.204485 0.947638 0.329250 -0.888478
H26   H     H_    0.170618 0.940437 0.437669 0.254162
H27   H     H_    0.211944 0.046005 0.299889 0.255042
H28   H     H_    0.134320 0.904066 0.262765 0.237818
H29   H     H_    0.365211 0.893247 0.202709 0.196540
H30   H     H_    0.313164 0.783673 0.329312 0.218169

loop_
_geom_bond_atom_site_label_1
_geom_bond_atom_site_label_2
_ccdc_geom_bond_type
C5    C25   S    
C8    H2    S    
C23   C24   S    
C26   H27   S    
C25   C26   S    
C2    C18   S    
C1    C8    S    
Cu2   O6    S    
C19   C20   S    
Cu1   Cu2   S    
C24   H23   S    
C25   H30   S    
C19   H14   S    
C22   H18   S    
C4    C18   S    
Cu1   N1    S    
H5    N2    S    
C11   O3    A    
C2    C3    S    
C19   H15   S    
C26   H28   S    
Cu2   O2    S    
C7    C8    D    
C7    H10   S    
Cu1   O3    S    
C23   H24   S    
C4    C11   S    
C21   H20   S    
C14   C17   S    
C5    C6    D    
C20   H12   S    
C25   H29   S    
C17   H6    S    
C23   H25   S    
C6    C12   S    
C21   C22   S    
Cu2   N2    S    
C1    O2    A    
C17   C18   S    
C2    C23   S    
C24   H22   S    
C4    C14   S    
C21   H19   S    
Cu2   O8    S    
C13   O7    A    
C20   H11   S    
C9    N1    D    
N1    C19   S    
C1    O1    A    
C26   H26   S    
Cu2   O4    S    
C12   O6    A    
C10   N2    D    
C15   H1    S    
C6    H9    S    
C2    C16   S    
C24   H21   S    
Cu1   O7    S    
C22   H16   S    
C9    C10   S    
C13   C16   S    
C12   O5    A    
C5    C7    S    
C22   H17   S    
C14   C15   S    
C3    H8    S    
C3    C15   S    
C14   C21   S    
Cu1   O5    S    
C10   H4    S    
C15   C16   S    
C9    H3    S    
C18   H7    S    
C3    C4    S    
Cu1   O1    S    
C16   C17   S    
C13   O8    A    
C20   H13   S    
C11   O4    A    
