data_mof_unit_23338.cif
_audit_creation_date              2012-12-10T17:49:33-0500
_audit_creation_method            fapswitch 2.2
_symmetry_space_group_name_H-M    P1
_symmetry_Int_Tables_number       1
_space_group_crystal_system       triclinic
_cell_length_a                    10.527973
_cell_length_b                    10.664854
_cell_length_c                    9.971136
_cell_angle_alpha                 90.078604
_cell_angle_beta                  90.147464
_cell_angle_gamma                 92.230028
_cell_volume                      1118.69932

loop_
_atom_site_label
_atom_site_type_symbol
_atom_type_description
_atom_site_fract_x
_atom_site_fract_y
_atom_site_fract_z
_atom_type_partial_charge
C1    C     C_R   0.503738 0.260992 0.500179 0.916261
C2    C     C_R   0.608394 0.069027 0.569454 0.098256
C3    C     C_R   0.510601 0.128881 0.500704 -0.162997
C4    C     C_R   0.257865 0.500995 0.499980 0.905869
C5    C     C_R   0.414840 0.062656 0.431863 -0.189046
C6    C     C_R   0.411380 0.934001 0.431183 0.191834
C7    C     C_R   0.507285 0.872007 0.500148 -0.163310
C8    C     C_R   0.331265 0.326305 0.131108 0.547580
C9    C     C_R   0.255129 0.243142 0.055618 -0.384354
C10   C     C_R   0.257174 0.247195 0.918059 0.556829
C11   C     C_R   0.336963 0.333635 0.854253 -0.261404
C12   C     C_3   0.961223 0.495501 0.374854 0.283983
C13   C     C_R   0.419254 0.417172 0.925768 0.019593
C14   C     C_R   0.418181 0.415834 0.070219 0.046699
C15   C     C_R   0.577073 0.579362 0.071741 -0.116527
C16   C     C_R   0.502299 0.739204 0.500036 0.845618
C17   C     C_R   0.577136 0.579201 0.929137 -0.076541
C18   C     C_R   0.742465 0.500497 0.499842 0.830410
C19   C     C_3   0.042144 0.508075 0.627066 -0.112933
C20   C     C_3   0.955391 0.401388 0.568429 -0.209096
C21   C     C_3   0.877800 0.501261 0.498897 -0.036572
C22   C     C_3   0.962525 0.607969 0.557184 -0.214454
C23   C     C_3   0.039339 0.394603 0.441552 -0.144070
C24   C     C_3   0.046772 0.602562 0.430316 -0.246948
C25   C     C_3   0.307388 0.870340 0.223518 -0.724507
C26   C     C_3   0.006939 0.462908 0.137874 -0.766442
C27   C     C_3   0.123181 0.501910 0.499996 -0.013781
C28   C     C_R   0.707424 0.136500 0.637508 -0.186942
C29   C     C_R   0.803883 0.073892 0.702213 -0.115841
C30   C     C_R   0.804944 0.943757 0.698066 -0.130282
C31   C     C_R   0.708736 0.875805 0.630648 -0.188036
C32   C     C_R   0.607896 0.937628 0.567453 0.081247
F1    F     F_    0.310850 0.314803 0.262130 -0.672836
F2    F     F_    0.179997 0.167847 0.845551 -0.670492
H1    H     H_    0.917692 0.320330 0.626889 0.151051
H2    H     H_    0.084697 0.683160 0.370685 0.145860
H3    H     H_    0.074331 0.308131 0.394495 0.173289
H4    H     H_    0.339087 0.111213 0.382832 0.208681
H5    H     H_    0.711786 0.237648 0.640907 0.149894
H6    H     H_    0.878705 0.126425 0.754748 0.171550
H7    H     H_    0.281620 0.782109 0.408186 0.217586
H8    H     H_    0.390835 0.820731 0.185228 0.251390
H9    H     H_    0.310754 0.968313 0.185670 0.246731
H10   H     H_    0.219404 0.822129 0.184641 0.225688
H11   H     H_    0.862949 0.569034 0.214205 0.227695
H12   H     H_    0.880812 0.895296 0.746785 0.144381
H13   H     H_    0.962109 0.463602 0.036947 0.235054
H14   H     H_    0.042935 0.368007 0.155498 0.262309
H15   H     H_    0.087294 0.533670 0.140139 0.236264
H16   H     H_    0.715233 0.775031 0.627977 0.139823
H17   H     H_    0.640172 0.644561 0.125191 0.131992
H18   H     H_    0.191085 0.176262 0.105326 0.196590
H19   H     H_    0.330716 0.331944 0.748313 0.244925
H20   H     H_    0.640469 0.644245 0.876246 0.134740
H21   H     H_    0.079313 0.513046 0.731357 0.155839
H22   H     H_    0.928745 0.694375 0.605046 0.141685
N1    N     N_R   0.498800 0.498800 0.142780 -0.093077
N2    N     N_R   0.498760 0.498720 0.857170 -0.091332
N3    N     N_2   0.306165 0.868758 0.368598 -0.306195
N4    N     N_2   0.913750 0.491469 0.238370 -0.291222
O1    O     O_R   0.500000 0.316780 0.614690 -0.647462
O2    O     O_R   0.499990 0.316750 0.385360 -0.537702
O3    O     O_R   0.313960 0.499980 0.614650 -0.654143
O4    O     O_R   0.313940 0.499960 0.385310 -0.546656
O5    O     O_R   0.500010 0.683250 0.614640 -0.617009
O6    O     O_R   0.500000 0.683220 0.385310 -0.623769
O7    O     O_R   0.686060 0.500040 0.614690 -0.631752
O8    O     O_R   0.686040 0.500020 0.385350 -0.621891
Zn1   Zn    Zn3+2 0.500010 0.500020 0.653130 0.939807
Zn2   Zn    Zn3+2 0.499990 0.499980 0.346870 0.992617

loop_
_geom_bond_atom_site_label_1
_geom_bond_atom_site_label_2
_ccdc_geom_bond_type
C25   H8    S    
C8    C14   A    
C20   C23   S    
N2    Zn1   S    
C6    C7    A    
C7    C32   A    
O4    Zn2   S    
N1    Zn2   S    
C18   C21   S    
C11   C13   A    
C9    C10   A    
C4    O4    A    
C19   C20   S    
C12   C23   S    
C24   C27   S    
C26   H14   S    
C17   N2    A    
C3    C5    A    
O1    Zn1   S    
C1    O2    A    
C25   H9    S    
C22   C24   S    
C2    C3    A    
H11   N4    S    
C24   H2    S    
C21   C22   S    
C28   H5    S    
C15   N1    A    
C4    O3    A    
H7    N3    S    
C11   H19   S    
O6    Zn2   S    
C9    H18   S    
C26   N4    S    
C26   H13   S    
C10   F2    S    
O5    Zn1   S    
C12   C21   S    
C29   H6    S    
O8    Zn2   S    
C28   C29   A    
C16   O5    A    
C23   H3    S    
C23   C27   S    
C8    F1    S    
C25   H10   S    
C5    C6    A    
C15   H17   S    
C16   O6    A    
C10   C11   A    
C31   H16   S    
C29   C30   A    
C12   N4    S    
C22   H22   S    
O3    Zn1   S    
C4    C27   S    
C19   C27   S    
C20   C21   S    
O2    Zn2   S    
C2    C32   A    
C19   C22   S    
C26   H15   S    
C19   H21   S    
C15   C17   A    
C14   N1    A    
C12   C24   S    
C30   C31   A    
C7    C16   S    
C2    C28   A    
C13   N2    A    
C25   N3    S    
C13   C14   A    
O7    Zn1   S    
C18   O7    A    
C5    H4    S    
C20   H1    S    
C18   O8    A    
C6    N3    S    
C30   H12   S    
C17   H20   S    
C31   C32   A    
C8    C9    A    
C1    C3    S    
C1    O1    A    
