data_mof_unit_54297.cif
_audit_creation_date              2012-12-11T15:08:38-0500
_audit_creation_method            fapswitch 2.2
_symmetry_space_group_name_H-M    P1
_symmetry_Int_Tables_number       1
_space_group_crystal_system       triclinic
_cell_length_a                    19.418521
_cell_length_b                    11.31187
_cell_length_c                    18.721694
_cell_angle_alpha                 89.999425
_cell_angle_beta                  89.737261
_cell_angle_gamma                 90.000154
_cell_volume                      4112.36004304

loop_
_atom_site_label
_atom_site_type_symbol
_atom_type_description
_atom_site_fract_x
_atom_site_fract_y
_atom_site_fract_z
_atom_type_partial_charge
C1    C     C_R   0.272394 0.043408 0.854156 0.535232
C2    C     C_R   0.727606 0.043409 0.145844 0.535233
C3    C     C_R   0.772394 0.543408 0.854156 0.535229
C4    C     C_R   0.227606 0.543409 0.145844 0.535236
C5    C     C_3   0.520036 0.722657 0.964568 -0.112198
C6    C     C_3   0.479965 0.722656 0.035433 -0.112197
C7    C     C_3   0.020036 0.222657 0.964568 -0.112199
C8    C     C_3   0.979965 0.222656 0.035433 -0.112197
C9    C     C_3   0.311928 0.528524 0.043248 -0.235673
C10   C     C_3   0.688072 0.528524 0.956753 -0.235672
C11   C     C_3   0.811928 0.028524 0.043248 -0.235673
C12   C     C_3   0.188072 0.028524 0.956753 -0.235672
C13   C     C_3   0.321285 0.553581 0.962916 -0.234194
C14   C     C_3   0.678715 0.553582 0.037085 -0.234193
C15   C     C_3   0.821285 0.053581 0.962916 -0.234194
C16   C     C_3   0.178715 0.053582 0.037085 -0.234193
C17   C     C_3   0.179820 0.523162 0.026224 -0.209485
C18   C     C_3   0.820180 0.523162 0.973777 -0.209485
C19   C     C_3   0.679820 0.023162 0.026224 -0.209485
C20   C     C_3   0.320180 0.023162 0.973777 -0.209485
C21   C     C_3   0.240506 0.707376 0.056587 -0.255992
C22   C     C_3   0.759494 0.707376 0.943411 -0.255991
C23   C     C_3   0.740506 0.207376 0.056587 -0.255992
C24   C     C_3   0.259494 0.207376 0.943411 -0.255991
C25   C     C_3   0.241074 0.574445 0.070164 0.063134
C26   C     C_3   0.758925 0.574444 0.929836 0.063136
C27   C     C_3   0.741074 0.074445 0.070164 0.063135
C28   C     C_3   0.258925 0.074444 0.929836 0.063135
C29   C     C_3   0.254910 0.610199 0.932212 0.053981
C30   C     C_3   0.745090 0.610200 0.067788 0.053981
C31   C     C_3   0.754910 0.110199 0.932212 0.053981
C32   C     C_3   0.245090 0.110200 0.067788 0.053981
C33   C     C_3   0.195005 0.524684 0.945382 -0.253116
C34   C     C_3   0.804995 0.524686 0.054619 -0.253115
C35   C     C_3   0.695005 0.024684 0.945382 -0.253116
C36   C     C_3   0.304995 0.024686 0.054619 -0.253115
C37   C     C_3   0.238432 0.725496 0.974764 -0.224275
C38   C     C_3   0.761568 0.725497 0.025234 -0.224277
C39   C     C_3   0.738432 0.225496 0.974764 -0.224275
C40   C     C_3   0.261568 0.225496 0.025234 -0.224277
C41   C     C_3   0.501894 0.714532 0.461058 -0.238862
C42   C     C_3   0.498087 0.714534 0.538938 -0.238862
C43   C     C_3   0.001913 0.214527 0.461064 -0.238866
C44   C     C_3   0.998104 0.214530 0.538943 -0.238867
C45   C     C_R   0.444747 0.817174 0.862462 0.533720
C46   C     C_R   0.555253 0.817175 0.137538 0.533718
C47   C     C_R   0.944747 0.317174 0.862462 0.533719
C48   C     C_R   0.055253 0.317175 0.137538 0.533719
C49   C     C_3   0.565175 0.913425 0.472444 -0.215036
C50   C     C_3   0.434819 0.913436 0.527552 -0.215045
C51   C     C_3   0.065169 0.413448 0.472444 -0.215040
C52   C     C_3   0.934810 0.413406 0.527547 -0.215042
C53   C     C_3   0.442476 0.902355 0.444877 -0.259983
C54   C     C_3   0.557519 0.902346 0.555118 -0.259984
C55   C     C_3   0.942472 0.402328 0.444873 -0.259988
C56   C     C_3   0.057512 0.402369 0.555119 -0.259976
C57   C     C_3   0.510682 0.838760 0.430843 0.045307
C58   C     C_3   0.489309 0.838762 0.569154 0.045304
C59   C     C_3   0.010686 0.338757 0.430844 0.045316
C60   C     C_3   0.989310 0.338759 0.569155 0.045311
C61   C     C_3   0.187852 0.652375 0.458902 -0.252422
C62   C     C_3   0.812137 0.652401 0.541104 -0.252419
C63   C     C_3   0.687855 0.152389 0.458898 -0.252414
C64   C     C_3   0.312139 0.152391 0.541101 -0.252428
C65   C     C_3   0.187909 0.657716 0.537852 -0.234473
C66   C     C_3   0.812086 0.657726 0.462153 -0.234469
C67   C     C_3   0.687913 0.157728 0.537848 -0.234473
C68   C     C_3   0.312087 0.157720 0.462151 -0.234473
C69   C     C_3   0.244720 0.445964 0.479220 -0.215485
C70   C     C_3   0.755270 0.445983 0.520806 -0.215436
C71   C     C_3   0.744723 0.945981 0.479206 -0.215457
C72   C     C_3   0.255274 0.945977 0.520796 -0.215452
C73   C     C_3   0.313934 0.616362 0.441374 -0.078623
C74   C     C_3   0.686056 0.616386 0.558629 -0.078661
C75   C     C_3   0.813938 0.116378 0.441369 -0.078636
C76   C     C_3   0.186058 0.116378 0.558627 -0.078644
C77   C     C_3   0.241870 0.562046 0.431765 0.073011
C78   C     C_3   0.758119 0.562076 0.568247 0.073028
C79   C     C_3   0.741875 0.062065 0.431758 0.073014
C80   C     C_3   0.258122 0.062066 0.568242 0.073020
C81   C     C_3   0.254885 0.602874 0.568241 0.047533
C82   C     C_3   0.745114 0.602869 0.431763 0.047521
C83   C     C_3   0.754887 0.102880 0.568237 0.047521
C84   C     C_3   0.245112 0.102873 0.431761 0.047531
C85   C     C_3   0.244917 0.470529 0.560470 -0.267655
C86   C     C_3   0.755089 0.470526 0.439551 -0.267672
C87   C     C_3   0.744915 0.970536 0.560458 -0.267654
C88   C     C_3   0.255082 0.970528 0.439543 -0.267662
C89   C     C_R   0.262072 0.642113 0.855059 0.531864
C90   C     C_R   0.737927 0.642114 0.144940 0.531864
C91   C     C_R   0.762072 0.142113 0.855059 0.531865
C92   C     C_R   0.237927 0.142114 0.144940 0.531864
C93   C     C_3   0.322644 0.633097 0.523692 -0.214286
C94   C     C_3   0.677351 0.633094 0.476306 -0.214270
C95   C     C_3   0.822647 0.133104 0.523688 -0.214277
C96   C     C_3   0.177350 0.133096 0.476306 -0.214277
C97   C     C_R   0.275154 0.036109 0.643456 0.561050
C98   C     C_R   0.724844 0.036105 0.356546 0.561049
C99   C     C_R   0.775149 0.536122 0.643460 0.561052
C100  C     C_R   0.224837 0.536087 0.356552 0.561051
C101  C     C_R   0.468805 0.824722 0.645415 0.549285
C102  C     C_R   0.531191 0.824722 0.354583 0.549276
C103  C     C_R   0.968805 0.324722 0.645417 0.549298
C104  C     C_R   0.031195 0.324721 0.354584 0.549288
C105  C     C_R   0.261848 0.641455 0.643206 0.540129
C106  C     C_R   0.738155 0.641442 0.356792 0.540115
C107  C     C_R   0.761848 0.141455 0.643205 0.540123
C108  C     C_R   0.238153 0.141447 0.356793 0.540124
C109  C     C_3   0.479477 0.916000 0.035661 -0.108671
C110  C     C_3   0.520522 0.916000 0.964338 -0.108670
C111  C     C_3   0.979477 0.416000 0.035661 -0.108671
C112  C     C_3   0.020522 0.416000 0.964338 -0.108670
C113  C     C_3   0.431487 0.818284 0.006502 -0.158404
C114  C     C_3   0.568513 0.818287 0.993497 -0.158403
C115  C     C_3   0.931487 0.318284 0.006502 -0.158403
C116  C     C_3   0.068513 0.318286 0.993497 -0.158404
C117  C     C_3   0.472501 0.819928 0.936010 0.055960
C118  C     C_3   0.527499 0.819930 0.063989 0.055960
C119  C     C_3   0.972501 0.319929 0.936010 0.055961
C120  C     C_3   0.027499 0.319930 0.063989 0.055960
Cr1   Cr    Cr6+3 0.229620 0.836040 0.749110 1.036790
Cr2   Cr    Cr6+3 0.770380 0.836040 0.250890 1.036793
Cr3   Cr    Cr6+3 0.729620 0.336040 0.749110 1.036790
Cr4   Cr    Cr6+3 0.270380 0.336040 0.250890 1.036793
Cr5   Cr    Cr6+3 0.387630 0.990680 0.750730 1.007753
Cr6   Cr    Cr6+3 0.612370 0.990680 0.249270 1.007751
Cr7   Cr    Cr6+3 0.887630 0.490680 0.750730 1.007752
Cr8   Cr    Cr6+3 0.112370 0.490680 0.249270 1.007751
Cr9   Cr    Cr6+3 0.386020 0.676590 0.749210 1.020561
Cr10  Cr    Cr6+3 0.613980 0.676590 0.250790 1.020559
Cr11  Cr    Cr6+3 0.886020 0.176590 0.749210 1.020559
Cr12  Cr    Cr6+3 0.113980 0.176590 0.250790 1.020559
H1    H     H_    0.376559 0.805283 0.017256 0.092444
H2    H     H_    0.623440 0.805288 0.982743 0.092445
H3    H     H_    0.876559 0.305283 0.017256 0.092444
H4    H     H_    0.123440 0.305288 0.982743 0.092445
H5    H     H_    0.194990 0.750719 0.081685 0.129477
H6    H     H_    0.805010 0.750720 0.918312 0.129477
H7    H     H_    0.694989 0.250719 0.081685 0.129476
H8    H     H_    0.305010 0.250719 0.918312 0.129477
H9    H     H_    0.286955 0.746515 0.080934 0.105930
H10   H     H_    0.713044 0.746514 0.919064 0.105930
H11   H     H_    0.786955 0.246515 0.080934 0.105930
H12   H     H_    0.213044 0.246514 0.919064 0.105930
H13   H     H_    0.273403 0.795090 0.958366 0.107281
H14   H     H_    0.726597 0.795091 0.041631 0.107280
H15   H     H_    0.773403 0.295090 0.958366 0.107281
H16   H     H_    0.226597 0.295091 0.041631 0.107280
H17   H     H_    0.185081 0.751802 0.960983 0.131561
H18   H     H_    0.814920 0.751803 0.039014 0.131559
H19   H     H_    0.685081 0.251802 0.960983 0.131561
H20   H     H_    0.314919 0.251804 0.039014 0.131559
H21   H     H_    0.632898 0.077995 0.035476 0.138924
H22   H     H_    0.367101 0.077996 0.964524 0.138925
H23   H     H_    0.132898 0.577995 0.035476 0.138924
H24   H     H_    0.867101 0.577996 0.964524 0.138925
H25   H     H_    0.148489 0.553732 0.915864 0.126017
H26   H     H_    0.851511 0.553734 0.084136 0.126017
H27   H     H_    0.648489 0.053732 0.915864 0.126018
H28   H     H_    0.351511 0.053734 0.084136 0.126017
H29   H     H_    0.539855 0.647733 0.444252 0.170311
H30   H     H_    0.460124 0.647744 0.555748 0.170303
H31   H     H_    0.039876 0.147738 0.444258 0.170291
H32   H     H_    0.960146 0.147725 0.555751 0.170316
H33   H     H_    0.452300 0.685826 0.442409 0.174250
H34   H     H_    0.547679 0.685821 0.557585 0.174260
H35   H     H_    0.952323 0.185802 0.442419 0.174263
H36   H     H_    0.047699 0.185835 0.557591 0.174253
H37   H     H_    0.615265 0.891721 0.453078 0.114911
H38   H     H_    0.384727 0.891740 0.546918 0.114920
H39   H     H_    0.115268 0.391776 0.453077 0.114919
H40   H     H_    0.884721 0.391675 0.546902 0.114903
H41   H     H_    0.600665 0.851824 0.578246 0.108097
H42   H     H_    0.399328 0.851839 0.421748 0.108092
H43   H     H_    0.100665 0.351862 0.578247 0.108092
H44   H     H_    0.899332 0.351796 0.421743 0.108099
H45   H     H_    0.464391 0.996662 0.065442 0.115115
H46   H     H_    0.535607 0.996663 0.934555 0.115117
H47   H     H_    0.964391 0.496662 0.065442 0.115115
H48   H     H_    0.035607 0.496663 0.934555 0.115116
H49   H     H_    0.443463 0.990557 0.418997 0.122320
H50   H     H_    0.556539 0.990547 0.580996 0.122316
H51   H     H_    0.943448 0.490529 0.418992 0.122312
H52   H     H_    0.056519 0.490574 0.580996 0.122324
H53   H     H_    0.442807 0.007392 0.541487 0.130251
H54   H     H_    0.557194 0.007385 0.458508 0.130248
H55   H     H_    0.942777 0.507366 0.541483 0.130257
H56   H     H_    0.057169 0.507405 0.458507 0.130244
H57   H     H_    0.134486 0.634285 0.442449 0.147502
H58   H     H_    0.865504 0.634323 0.557562 0.147520
H59   H     H_    0.634489 0.134295 0.442446 0.147508
H60   H     H_    0.365505 0.134307 0.557557 0.147516
H61   H     H_    0.199765 0.740178 0.436553 0.115957
H62   H     H_    0.800221 0.740205 0.563445 0.115932
H63   H     H_    0.699766 0.240192 0.436549 0.115948
H64   H     H_    0.300224 0.240194 0.563444 0.115945
H65   H     H_    0.176190 0.747098 0.555072 0.163104
H66   H     H_    0.823801 0.747107 0.444927 0.163110
H67   H     H_    0.676198 0.247110 0.555070 0.163098
H68   H     H_    0.323808 0.247099 0.444925 0.163118
H69   H     H_    0.142553 0.609383 0.558736 0.127094
H70   H     H_    0.857446 0.609397 0.441277 0.127081
H71   H     H_    0.642555 0.109401 0.558733 0.127092
H72   H     H_    0.357444 0.109385 0.441273 0.127084
H73   H     H_    0.714756 0.871915 0.461743 0.091842
H74   H     H_    0.285238 0.871906 0.538256 0.091838
H75   H     H_    0.214753 0.371889 0.461778 0.091830
H76   H     H_    0.785220 0.371905 0.538286 0.091854
H77   H     H_    0.697272 0.940096 0.586735 0.111290
H78   H     H_    0.302724 0.940087 0.413266 0.111288
H79   H     H_    0.197277 0.440091 0.586752 0.111287
H80   H     H_    0.802736 0.440087 0.413284 0.111295
H81   H     H_    0.316821 0.703242 0.413914 0.115113
H82   H     H_    0.683170 0.703275 0.586078 0.115099
H83   H     H_    0.816824 0.203261 0.413912 0.115106
H84   H     H_    0.183169 0.203265 0.586079 0.115104
H85   H     H_    0.535388 0.641551 0.935355 0.126027
H86   H     H_    0.464614 0.641550 0.064646 0.126027
H87   H     H_    0.035388 0.141551 0.935355 0.126027
H88   H     H_    0.964614 0.141550 0.064646 0.126028
H89   H     H_    0.343621 0.719674 0.536028 0.096211
H90   H     H_    0.656377 0.719666 0.463956 0.096229
H91   H     H_    0.843619 0.219683 0.536023 0.096207
H92   H     H_    0.156366 0.219667 0.463958 0.096223
H93   H     H_    0.362535 0.569559 0.541145 0.155829
H94   H     H_    0.637458 0.569552 0.458857 0.155821
H95   H     H_    0.862542 0.069572 0.541141 0.155823
H96   H     H_    0.137462 0.069550 0.458856 0.155823
H97   H     H_    0.295082 0.408129 0.471947 0.159725
H98   H     H_    0.704902 0.408164 0.528068 0.159724
H99   H     H_    0.795088 0.908146 0.471935 0.159723
H100  H     H_    0.204912 0.908143 0.528069 0.159726
H101  H     H_    0.287917 0.424631 0.587850 0.120052
H102  H     H_    0.712097 0.424617 0.412166 0.120031
H103  H     H_    0.787913 0.924637 0.587840 0.120047
H104  H     H_    0.212084 0.924623 0.412164 0.120042
H105  H     H_    0.317799 0.434140 0.053712 0.130886
H106  H     H_    0.682201 0.434139 0.946291 0.130884
H107  H     H_    0.817799 0.934140 0.053712 0.130886
H108  H     H_    0.182201 0.934139 0.946291 0.130884
H109  H     H_    0.353720 0.572100 0.073755 0.114677
H110  H     H_    0.646280 0.572098 0.926245 0.114678
H111  H     H_    0.853720 0.072100 0.073755 0.114678
H112  H     H_    0.146280 0.072098 0.926245 0.114678
H113  H     H_    0.365779 0.613760 0.954847 0.136482
H114  H     H_    0.634220 0.613760 0.045152 0.136482
H115  H     H_    0.865780 0.113760 0.954847 0.136482
H116  H     H_    0.134221 0.113760 0.045152 0.136482
H117  H     H_    0.333309 0.469761 0.934391 0.119817
H118  H     H_    0.666690 0.469762 0.065611 0.119818
H119  H     H_    0.833309 0.969761 0.934391 0.119817
H120  H     H_    0.166690 0.969762 0.065611 0.119818
H121  H     H_    0.664765 0.937682 0.047366 0.098228
H122  H     H_    0.335235 0.937682 0.952637 0.098228
H123  H     H_    0.164765 0.437682 0.047366 0.098228
H124  H     H_    0.835235 0.437682 0.952637 0.098229
H125  H     H_    0.708730 0.936047 0.925797 0.112146
H126  H     H_    0.291270 0.936048 0.074205 0.112147
H127  H     H_    0.208730 0.436047 0.925797 0.112146
H128  H     H_    0.791270 0.436048 0.074205 0.112147
O1    O     O_R   0.214130 0.708570 0.829890 -0.524396
O2    O     O_R   0.785870 0.708570 0.170110 -0.524397
O3    O     O_R   0.714130 0.208570 0.829890 -0.524395
O4    O     O_R   0.285870 0.208570 0.170110 -0.524397
O5    O     O_R   0.446360 0.919990 0.675230 -0.509964
O6    O     O_R   0.553640 0.919990 0.324770 -0.509965
O7    O     O_R   0.946360 0.419990 0.675230 -0.509964
O8    O     O_R   0.053640 0.419990 0.324770 -0.509973
O9    O     O_R   0.457170 0.717300 0.668380 -0.503891
O10   O     O_R   0.542830 0.717300 0.331620 -0.503894
O11   O     O_R   0.957170 0.217300 0.668380 -0.503899
O12   O     O_R   0.042830 0.217300 0.331620 -0.503891
O13   O     O_R   0.320870 0.624890 0.673130 -0.510287
O14   O     O_R   0.679130 0.624890 0.326870 -0.510279
O15   O     O_R   0.820870 0.124890 0.673130 -0.510283
O16   O     O_R   0.179130 0.124890 0.326870 -0.510284
O17   O     O_3   0.334430 0.834430 0.749680 -0.298870
O18   O     O_3   0.665570 0.834430 0.250320 -0.298865
O19   O     O_3   0.834430 0.334430 0.749680 -0.298866
O20   O     O_3   0.165570 0.334430 0.250320 -0.298874
O21   O     O_R   0.236050 0.959150 0.825270 -0.505914
O22   O     O_R   0.763950 0.959150 0.174730 -0.505913
O23   O     O_R   0.736050 0.459150 0.825270 -0.505914
O24   O     O_R   0.263950 0.459150 0.174730 -0.505913
O25   O     O_R   0.332100 0.076650 0.832310 -0.531818
O26   O     O_R   0.667900 0.076650 0.167690 -0.531818
O27   O     O_R   0.832100 0.576650 0.832310 -0.531820
O28   O     O_R   0.167900 0.576650 0.167690 -0.531815
O29   O     O_R   0.446500 0.918620 0.826240 -0.503618
O30   O     O_R   0.553500 0.918620 0.173760 -0.503619
O31   O     O_R   0.946500 0.418620 0.826240 -0.503619
O32   O     O_R   0.053500 0.418620 0.173760 -0.503618
O33   O     O_R   0.457310 0.715830 0.831280 -0.515152
O34   O     O_R   0.542690 0.715830 0.168720 -0.515156
O35   O     O_R   0.957310 0.215830 0.831280 -0.515155
O36   O     O_R   0.042690 0.215830 0.168720 -0.515154
O37   O     O_R   0.321000 0.623520 0.824130 -0.519238
O38   O     O_R   0.679000 0.623520 0.175870 -0.519239
O39   O     O_R   0.821000 0.123520 0.824130 -0.519238
O40   O     O_R   0.179000 0.123520 0.175870 -0.519238
O41   O     O_R   0.213990 0.710040 0.667000 -0.515080
O42   O     O_R   0.786010 0.710040 0.333000 -0.515074
O43   O     O_R   0.713990 0.210040 0.667000 -0.515078
O44   O     O_R   0.286010 0.210040 0.333000 -0.515076
O45   O     O_R   0.235920 0.960520 0.674260 -0.467215
O46   O     O_R   0.764080 0.960520 0.325740 -0.467211
O47   O     O_R   0.735920 0.460520 0.674260 -0.467221
O48   O     O_R   0.264080 0.460520 0.325740 -0.467205
O49   O     O_R   0.331960 0.078120 0.669410 -0.537020
O50   O     O_R   0.668040 0.078120 0.330590 -0.537020
O51   O     O_R   0.831960 0.578120 0.669410 -0.537021
O52   O     O_R   0.168040 0.578120 0.330590 -0.537019
I1    I     I_    0.395473 0.500278 0.393517 -0.452882
I2    I     I_    0.604520 0.500306 0.606504 -0.452862
I3    I     I_    0.895474 0.000298 0.393504 -0.452869
I4    I     I_    0.104522 0.000294 0.606494 -0.452879

loop_
_geom_bond_atom_site_label_1
_geom_bond_atom_site_label_2
_ccdc_geom_bond_type
C82   C94   S    
C55   C59   S    
C35   H125  S    
C83   C87   S    
C73   C93   S    
C47   O31   A    
C42   C58   S    
C29   C89   S    
C16   H120  S    
C75   C95   S    
C48   C120  S    
C24   H8    S    
C57   C102  S    
Cr6   O18   S    
Cr7   O7    S    
C85   H101  S    
C59   C104  S    
Cr1   O17   S    
C5    C6    S    
Cr10  O10   S    
Cr3   O19   S    
Cr4   O4    S    
Cr12  O16   S    
C29   C33   S    
C87   H103  S    
C30   C38   S    
C77   C100  S    
C44   H36   S    
C9    C13   S    
C11   C15   S    
C5    H85   S    
C49   H54   S    
C12   C16   S    
C98   O50   A    
C99   O47   A    
C52   H55   S    
C21   H5    S    
C60   C103  S    
C107  O15   A    
C83   C107  S    
C88   H78   S    
C74   H82   S    
C111  H47   S    
C23   H11   S    
C64   H60   S    
C11   C27   S    
C16   H116  S    
Cr5   O25   S    
C50   C53   S    
C89   O37   A    
C7    C119  S    
Cr8   O28   S    
C62   H58   S    
C62   C66   S    
Cr2   O2    S    
C72   H74   S    
C20   C28   S    
C18   H124  S    
Cr12  O36   S    
C43   C44   S    
C66   C82   S    
Cr9   O33   S    
C58   C101  S    
C105  O41   A    
C92   O4    A    
C107  O43   A    
C14   H118  S    
C108  O44   A    
C19   H21   S    
C89   O1    A    
C62   H62   S    
Cr5   O49   S    
C17   H23   S    
C91   O3    A    
Cr1   O45   S    
Cr5   O5    S    
Cr2   O42   S    
C3    C26   S    
C84   C88   S    
C74   I2    S    
Cr12  O12   S    
C110  H46   S    
C85   H79   S    
C13   H117  S    
Cr10  O34   S    
C17   C25   S    
C19   C35   S    
C76   C96   S    
C1    O21   A    
C32   C92   S    
C75   H83   S    
C95   H95   S    
C67   H71   S    
C21   H9    S    
C61   C65   S    
C12   H108  S    
C78   C99   S    
C45   O29   A    
C75   C79   S    
C75   I3    S    
C22   C38   S    
C67   C83   S    
C80   C97   S    
C68   H72   S    
C11   H111  S    
C69   C77   S    
C111  C112  S    
C9    H109  S    
C52   H40   S    
C71   C79   S    
C4    C25   S    
Cr4   O20   S    
C7    C8    S    
Cr10  O38   S    
Cr4   O44   S    
C96   H96   S    
C24   H12   S    
C100  O52   A    
C39   H19   S    
C49   C57   S    
C40   H20   S    
Cr11  O11   S    
Cr9   O37   S    
C38   H14   S    
C51   H56   S    
C52   C60   S    
C19   H121  S    
C61   C77   S    
C12   H112  S    
C93   H93   S    
C36   H126  S    
C47   O35   A    
C110  C114  S    
C48   O36   A    
C43   C59   S    
C112  H48   S    
C90   O38   A    
C6    H86   S    
C22   H10   S    
Cr1   O21   S    
Cr2   O18   S    
Cr4   O24   S    
Cr12  O20   S    
C81   C105  S    
C30   C34   S    
C10   C14   S    
C101  O9    A    
C95   H91   S    
C116  C120  S    
C103  O11   A    
C7    C116  S    
C69   H97   S    
C71   H73   S    
C73   I1    S    
C33   H127  S    
C114  H2    S    
C34   H128  S    
C66   H66   S    
C113  C117  S    
C31   C91   S    
Cr6   O26   S    
C9    H105  S    
Cr4   O48   S    
C61   H61   S    
C112  C116  S    
C69   C85   S    
C45   C117  S    
C21   C25   S    
C71   H99   S    
Cr12  O40   S    
C62   C78   S    
C76   C80   S    
C42   H30   S    
C15   C31   S    
C43   H35   S    
C16   C32   S    
C97   O45   A    
C105  O13   A    
C106  O42   A    
C72   C80   S    
C115  H3    S    
C64   H64   S    
C4    O24   A    
C82   C106  S    
C90   O2    A    
Cr5   O29   S    
C55   H44   S    
Cr6   O50   S    
C66   H70   S    
Cr8   O32   S    
C94   H90   S    
Cr6   O6    S    
C113  H1    S    
C46   O34   A    
Cr7   O19   S    
Cr8   O20   S    
C81   C85   S    
C13   H113  S    
C41   H29   S    
C64   C80   S    
C41   C42   S    
C74   C94   S    
Cr9   O13   S    
C18   C26   S    
C30   C90   S    
Cr11  O39   S    
C1    O25   A    
C9    C25   S    
C2    O22   A    
C3    O27   A    
C86   H102  S    
C12   C28   S    
C13   C29   S    
C86   H80   S    
C67   H67   S    
C98   O46   A    
C46   C118  S    
C73   C77   S    
Cr6   O30   S    
C106  O14   A    
C109  C118  S    
C1    C28   S    
C2    C27   S    
Cr10  O14   S    
C72   H100  S    
Cr11  O19   S    
C61   H57   S    
C52   C55   S    
C32   C36   S    
C87   H77   S    
C73   H81   S    
C17   C33   S    
C110  C117  S    
C38   H18   S    
C33   H25   S    
C69   H75   S    
C40   H16   S    
C68   C84   S    
C24   C28   S    
C53   C57   S    
C82   C86   S    
C56   C60   S    
C115  C119  S    
C50   C58   S    
C104  O12   A    
C48   O32   A    
Cr7   O27   S    
C76   H84   S    
C65   C81   S    
C76   I4    S    
C91   O39   A    
Cr8   O8    S    
C50   H38   S    
C20   H122  S    
Cr2   O22   S    
C71   C87   S    
C15   H115  S    
C31   C35   S    
C64   C68   S    
C101  O5    A    
C102  O10   A    
C37   H17   S    
C108  O16   A    
C112  C119  S    
C116  H4    S    
C56   H52   S    
C22   H6    S    
C41   C57   S    
C109  C110  S    
C49   H37   S    
Cr5   O17   S    
C44   C60   S    
C63   H59   S    
C84   C108  S    
C94   H94   S    
C20   C36   S    
C109  H45   S    
C21   C37   S    
C22   C26   S    
C29   C37   S    
C55   H51   S    
C44   H32   S    
C70   H76   S    
C42   H34   S    
C43   H31   S    
C97   O49   A    
C5    C114  S    
C70   C78   S    
C79   C98   S    
C99   O51   A    
C10   H110  S    
C63   C79   S    
C4    O28   A    
C20   H22   S    
C92   O40   A    
C54   H41   S    
C23   H7    S    
C84   C96   S    
C11   H107  S    
C49   C54   S    
Cr3   O47   S    
C51   C56   S    
C46   O30   A    
C8    C115  S    
Cr1   O1    S    
Cr3   O3    S    
C96   H92   S    
C41   H33   S    
C54   H50   S    
Cr9   O17   S    
C23   C27   S    
C19   C27   S    
C74   C78   S    
C109  C113  S    
C2    O26   A    
C7    H87   S    
C10   C26   S    
C47   C119  S    
C14   C30   S    
C72   C88   S    
C53   H42   S    
C88   H104  S    
C63   C67   S    
C56   H43   S    
Cr7   O31   S    
Cr1   O41   S    
C5    C117  S    
C111  C120  S    
Cr10  O18   S    
Cr3   O43   S    
C70   H98   S    
C6    C113  S    
Cr11  O15   S    
C8    H88   S    
C53   H49   S    
C81   C93   S    
C83   C95   S    
Cr11  O35   S    
C18   C34   S    
C114  C118  S    
C65   H65   S    
C34   H26   S    
C10   H106  S    
C51   C59   S    
C70   C86   S    
C8    C120  S    
Cr2   O46   S    
C54   C58   S    
C17   H123  S    
C45   O33   A    
C104  O8    A    
C18   H24   S    
C111  C115  S    
Cr7   O51   S    
Cr8   O52   S    
C68   H68   S    
C51   H39   S    
Cr3   O23   S    
C15   H119  S    
C23   C39   S    
C3    O23   A    
C24   C40   S    
C31   C39   S    
C63   H63   S    
C32   C40   S    
C35   H27   S    
Cr9   O9    S    
C36   H28   S    
C103  O7    A    
C100  O48   A    
C65   H69   S    
C102  O6    A    
C39   H15   S    
C93   H89   S    
C37   H13   S    
C50   H53   S    
C6    C118  S    
C14   H114  S    
