data_mof_unit_64690.cif
_audit_creation_date              2012-12-10T17:52:54-0500
_audit_creation_method            fapswitch 2.2
_symmetry_space_group_name_H-M    P1
_symmetry_Int_Tables_number       1
_space_group_crystal_system       triclinic
_cell_length_a                    18.714354
_cell_length_b                    18.663587
_cell_length_c                    18.699587
_cell_angle_alpha                 109.347199
_cell_angle_beta                  109.405314
_cell_angle_gamma                 109.433422
_cell_volume                      5041.90289392

loop_
_atom_site_label
_atom_site_type_symbol
_atom_type_description
_atom_site_fract_x
_atom_site_fract_y
_atom_site_fract_z
_atom_type_partial_charge
C1    C     C_R   0.120338 0.120205 0.500084 0.847024
C2    C     C_R   0.322920 0.320329 0.579799 -0.182248
C3    C     C_R   0.258228 0.257041 0.579792 -0.188120
C4    C     C_R   0.122801 0.002589 0.619927 0.865937
C5    C     C_R   0.186654 0.186199 0.500185 -0.009213
C6    C     C_R   0.742330 0.920244 0.242505 -0.182782
C7    C     C_R   0.677673 0.920227 0.179283 -0.183839
C8    C     C_R   0.686050 0.999957 0.186700 -0.011958
C9    C     C_R   0.757675 0.079702 0.257491 -0.182994
C10   C     C_R   0.820950 0.079723 0.322093 -0.184300
C11   C     C_R   0.813353 0.999995 0.313894 -0.011912
C12   C     C_R   0.264340 0.004948 0.675661 0.098434
C13   C     C_R   0.819878 0.740191 0.496618 -0.180162
C14   C     C_R   0.756453 0.676770 0.497728 -0.170037
C15   C     C_R   0.685889 0.686057 0.499339 -0.001764
C16   C     C_R   0.879727 0.879738 0.499986 0.865001
C17   C     C_R   0.678528 0.758529 0.500863 -0.183498
C18   C     C_R   0.743324 0.823263 0.502431 -0.183622
C19   C     C_R   0.813403 0.813505 0.499764 -0.013686
C20   C     C_R   0.499972 0.879855 0.879723 0.847305
C21   C     C_R   0.380094 0.997487 0.877221 0.868219
C22   C     C_R   0.499892 0.120428 0.120298 0.878095
C23   C     C_R   0.192658 0.005503 0.685296 -0.108405
C24   C     C_R   0.620154 0.999993 0.120369 0.862153
C25   C     C_R   0.499941 0.620344 0.620246 0.856598
C26   C     C_R   0.379900 0.379793 0.500180 0.856257
C27   C     C_R   0.500395 0.380398 0.380132 0.867796
C28   C     C_R   0.879679 0.000005 0.379828 0.860680
C29   C     C_R   0.620068 0.620189 0.499836 0.864635
C30   C     C_R   0.579461 0.821593 0.821707 -0.184335
C31   C     C_R   0.579435 0.756965 0.758418 -0.186306
C32   C     C_R   0.499897 0.686648 0.686193 -0.010432
C33   C     C_R   0.420358 0.679764 0.677180 -0.182518
C34   C     C_R   0.183646 0.002502 0.755452 -0.206733
C35   C     C_R   0.420345 0.743032 0.741811 -0.188205
C36   C     C_R   0.499910 0.813870 0.813460 -0.009117
C37   C     C_R   0.523757 0.268782 0.191318 -0.216527
C38   C     C_R   0.524180 0.333589 0.255020 -0.001280
C39   C     C_R   0.501800 0.315792 0.314244 -0.047863
C40   C     C_R   0.278258 0.014606 0.608672 -0.175505
C41   C     C_R   0.479404 0.234817 0.310160 -0.205849
C42   C     C_R   0.477634 0.169952 0.245558 -0.180231
C43   C     C_R   0.500054 0.187152 0.186484 -0.041978
C44   C     C_R   0.346622 0.008373 0.598009 -0.136960
C45   C     C_R   0.244630 0.997524 0.816429 -0.205538
C46   C     C_R   0.402128 0.992557 0.653496 -0.136787
C47   C     C_R   0.391461 0.986094 0.721839 -0.175887
C48   C     C_R   0.324456 0.995527 0.735764 0.097954
C49   C     C_1   0.549854 0.418044 0.260084 0.145484
C50   C     C_R   0.314793 0.994717 0.807417 -0.108904
C51   C     C_R   0.178549 0.178439 0.420614 -0.184795
C52   C     C_R   0.241904 0.243069 0.420655 -0.187955
C53   C     C_R   0.314020 0.313420 0.500234 -0.010280
H1    H     H_    0.128427 0.002754 0.762331 0.160340
H2    H     H_    0.738300 0.879995 0.504353 0.145102
H3    H     H_    0.641012 0.876565 0.877570 0.144845
H4    H     H_    0.237573 0.028149 0.564743 0.151885
H5    H     H_    0.640998 0.762292 0.764934 0.145229
H6    H     H_    0.358796 0.624948 0.621197 0.145620
H7    H     H_    0.358813 0.737623 0.735502 0.144107
H8    H     H_    0.541047 0.281543 0.145157 0.157960
H9    H     H_    0.462193 0.221689 0.356173 0.141247
H10   H     H_    0.459983 0.107042 0.242395 0.154474
H11   H     H_    0.356119 0.015158 0.546077 0.138559
H12   H     H_    0.264418 0.262446 0.641332 0.144977
H13   H     H_    0.454073 0.985944 0.643996 0.138653
H14   H     H_    0.435400 0.972543 0.762493 0.151840
H15   H     H_    0.237729 0.997084 0.871628 0.160516
H16   H     H_    0.122742 0.123442 0.359037 0.144902
H17   H     H_    0.235506 0.237746 0.359081 0.145086
H18   H     H_    0.378839 0.375188 0.641381 0.146136
H19   H     H_    0.736502 0.858541 0.236610 0.146722
H20   H     H_    0.622187 0.858515 0.124080 0.145808
H21   H     H_    0.763729 0.141411 0.263183 0.144949
H22   H     H_    0.876325 0.141437 0.377407 0.144791
H23   H     H_    0.874479 0.733001 0.494806 0.146060
H24   H     H_    0.761552 0.620135 0.496070 0.143420
H25   H     H_    0.623750 0.765503 0.502402 0.142244
N1    N     N_1   0.570476 0.485703 0.264288 -0.194904
O1    O     O_R   0.091590 0.143330 0.551700 -0.620873
O2    O     O_R   0.551730 0.591680 0.643420 -0.622433
O3    O     O_R   0.356670 0.408480 0.448390 -0.623414
O4    O     O_R   0.091620 0.039900 0.448280 -0.630768
O5    O     O_R   0.460120 0.408460 0.551810 -0.622919
O6    O     O_R   0.448270 0.408490 0.356760 -0.614225
O7    O     O_R   0.551720 0.408480 0.460170 -0.621722
O8    O     O_R   0.539880 0.591710 0.448370 -0.613763
O9    O     O_R   0.643330 0.591700 0.551790 -0.626812
O10   O     O_R   0.091610 0.051730 0.643330 -0.619418
O11   O     O_R   0.091640 0.948310 0.539920 -0.624740
O12   O     O_R   0.551760 0.960180 0.908450 -0.630603
O13   O     O_R   0.908380 0.960100 0.551720 -0.622483
O14   O     O_R   0.908410 0.856670 0.448300 -0.619186
O15   O     O_R   0.908360 0.051690 0.460080 -0.622229
O16   O     O_R   0.908390 0.948270 0.356670 -0.621006
O17   O     O_R   0.448330 0.856720 0.908450 -0.620929
O18   O     O_R   0.356660 0.948290 0.908410 -0.620531
O19   O     O_R   0.460090 0.051750 0.908420 -0.623602
O20   O     O_R   0.448250 0.039900 0.091630 -0.625109
O21   O     O_R   0.551680 0.143360 0.091630 -0.623633
O22   O     O_R   0.539910 0.948330 0.091670 -0.621734
O23   O     O_R   0.643340 0.051790 0.091670 -0.621786
O24   O     O_R   0.448280 0.591700 0.540000 -0.624272
Zn1   Zn    Zn3+2 0.999980 0.069060 0.569050 0.955565
Zn2   Zn    Zn3+2 0.000020 0.930940 0.430950 0.953780
Zn3   Zn    Zn3+2 0.430940 0.930960 0.000040 0.954013
Zn4   Zn    Zn3+2 0.569060 0.069120 0.000040 0.952141
Zn5   Zn    Zn3+2 0.430920 0.500100 0.431040 0.966760
Zn6   Zn    Zn3+2 0.569080 0.500080 0.569140 0.956317

loop_
_geom_bond_atom_site_label_1
_geom_bond_atom_site_label_2
_ccdc_geom_bond_type
C37   C43   A    
C8    C24   S    
C41   C42   A    
C35   C36   A    
C12   C48   A    
C7    C8    A    
C7    H20   S    
C38   C49   S    
C44   H11   S    
C6    H19   S    
C12   C23   A    
C16   O14   A    
O1    Zn1   S    
C28   O16   A    
C1    C5    S    
C45   C50   A    
C31   H5    S    
C46   H13   S    
C30   C31   A    
C28   O15   A    
C18   C19   A    
C14   H24   S    
C27   O6    A    
C29   O9    A    
O16   Zn2   S    
O14   Zn2   S    
O8    Zn5   S    
C22   C43   S    
C27   C39   S    
C8    C9    A    
O24   Zn5   S    
C22   O20   A    
O3    Zn5   S    
O6    Zn5   S    
C9    C10   A    
C25   C32   S    
C48   C50   A    
C20   O17   A    
O15   Zn1   S    
C26   O3    A    
C13   C14   A    
C25   O2    A    
C3    H12   S    
C41   H9    S    
C47   H14   S    
C21   C50   S    
C44   C46   A    
C15   C29   S    
C4    O11   A    
C20   O12   A    
C22   O21   A    
C13   C19   A    
C51   C52   A    
O12   Zn4   S    
O7    Zn6   S    
C39   C41   A    
C6    C11   A    
C4    C23   S    
C25   O24   A    
C30   H3    S    
O19   Zn4   S    
C49   N1    T    
C35   H7    S    
C12   C40   A    
C27   O7    A    
C37   C38   A    
C21   O18   A    
C10   H22   S    
C47   C48   A    
C13   H23   S    
C23   C34   A    
C45   H15   S    
C17   C18   A    
O23   Zn4   S    
C34   C45   A    
C18   H2    S    
O9    Zn6   S    
O2    Zn6   S    
C34   H1    S    
O10   Zn1   S    
C42   C43   A    
O18   Zn3   S    
C2    H18   S    
C26   C53   S    
C52   C53   A    
C4    O10   A    
O22   Zn3   S    
C15   C17   A    
O20   Zn3   S    
O17   Zn3   S    
C46   C47   A    
O21   Zn4   S    
C26   O5    A    
C40   H4    S    
C31   C32   A    
O11   Zn2   S    
C3    C5    A    
C2    C53   A    
C37   H8    S    
C16   O13   A    
C6    C7    A    
C1    O4    A    
O5    Zn6   S    
C30   C36   A    
C24   O22   A    
C32   C33   A    
C2    C3    A    
C21   O19   A    
C38   C39   A    
C11   C28   S    
C16   C19   S    
C17   H25   S    
C33   C35   A    
C24   O23   A    
C29   O8    A    
C52   H17   S    
C10   C11   A    
O13   Zn1   S    
C20   C36   S    
O4    Zn2   S    
C40   C44   A    
C33   H6    S    
C9    H21   S    
C1    O1    A    
C14   C15   A    
C5    C51   A    
C51   H16   S    
C42   H10   S    
