data_mof_unit_12919.cif
_audit_creation_date              2012-12-10T18:58:14-0500
_audit_creation_method            fapswitch 2.2
_symmetry_space_group_name_H-M    P1
_symmetry_Int_Tables_number       1
_space_group_crystal_system       triclinic
_cell_length_a                    11.082475
_cell_length_b                    10.823243
_cell_length_c                    9.537738
_cell_angle_alpha                 89.953054
_cell_angle_beta                  102.423757
_cell_angle_gamma                 90.055015
_cell_volume                      1117.24521119

loop_
_atom_site_label
_atom_site_type_symbol
_atom_type_description
_atom_site_fract_x
_atom_site_fract_y
_atom_site_fract_z
_atom_type_partial_charge
C1    C     C_R   0.502308 0.262274 0.500562 0.799769
C2    C     C_R   0.514975 0.129195 0.503239 -0.090827
C3    C     C_R   0.527379 0.064498 0.379277 -0.212533
C4    C     C_R   0.527397 0.935702 0.379236 -0.211842
C5    C     C_R   0.515005 0.870768 0.503150 -0.087144
C6    C     C_R   0.520683 0.936277 0.630400 0.108306
C7    C     C_3   0.439761 0.929550 0.736834 -0.436274
C8    C     C_3   0.439936 0.069846 0.737037 -0.483720
C9    C     C_R   0.546495 0.598514 0.085044 0.252430
C10   C     C_R   0.441898 0.409529 0.059992 -0.073949
C11   C     C_R   0.441749 0.409623 0.911032 -0.045763
C12   C     C_R   0.263067 0.504562 0.442499 0.874663
C13   C     C_R   0.546516 0.598437 0.937711 0.259838
C14   C     C_3   0.675021 0.647573 0.963315 -0.502850
C15   C     C_3   0.675191 0.647578 0.122589 -0.498340
C16   C     C_R   0.502363 0.737709 0.500486 0.811618
C17   C     C_R   0.736802 0.501914 0.558060 0.855438
C18   C     C_2   0.128242 0.507084 0.412996 -0.424534
C19   C     C_2   0.066180 0.540707 0.514133 0.049205
C20   C     C_2   0.870192 0.515601 0.591763 -0.332194
C21   C     C_2   0.933316 0.515301 0.486994 -0.237180
C22   C     C_R   0.520707 0.063440 0.630454 0.134237
Cu1   Cu    Cu3+1 0.499990 0.499980 0.640670 0.965809
Cu2   Cu    Cu3+1 0.500010 0.500020 0.359330 0.947978
H1    H     H_    0.489007 0.109958 0.841011 0.193983
H2    H     H_    0.396739 0.335097 0.104449 0.142846
H3    H     H_    0.396157 0.335524 0.843992 0.145127
H4    H     H_    0.741539 0.580587 0.934209 0.221354
H5    H     H_    0.678607 0.741877 0.918174 0.193975
H6    H     H_    0.741665 0.580475 0.184281 0.214266
H7    H     H_    0.530754 0.112635 0.280580 0.162423
H8    H     H_    0.530725 0.887762 0.280510 0.159785
H9    H     H_    0.347582 0.889025 0.690870 0.245155
H10   H     H_    0.488373 0.888987 0.840761 0.189374
H11   H     H_    0.347816 0.110771 0.691440 0.204342
N1    N     N_R   0.500780 0.500930 0.148120 -0.189410
N2    N     N_R   0.500790 0.500890 0.852210 -0.187696
O1    O     O_R   0.500000 0.319640 0.618810 -0.586776
O2    O     O_R   0.500010 0.319680 0.381230 -0.593615
O3    O     O_R   0.320680 0.500000 0.575130 -0.559302
O4    O     O_R   0.320690 0.500040 0.337550 -0.575811
O5    O     O_R   0.499990 0.680320 0.618770 -0.575063
O6    O     O_R   0.500000 0.680360 0.381190 -0.589559
O7    O     O_R   0.679310 0.499960 0.662450 -0.587135
O8    O     O_R   0.679320 0.500000 0.424870 -0.579592
H12   H     H_    0.886327 0.493967 0.377575 0.174788
H13   H     H_    0.679259 0.741869 0.169442 0.192707
C23   C     C_2   0.127053 0.607091 0.647312 0.908102
O9    O     O_2   0.166419 0.711762 0.638921 -0.627517
O10   O     O_R   0.142816 0.548267 0.780563 -0.777477
H14   H     H_    0.187771 0.602035 0.862328 0.324555
H15   H     H_    0.915188 0.531183 0.702959 0.184858
H16   H     H_    0.078933 0.470406 0.310490 0.149170

loop_
_geom_bond_atom_site_label_1
_geom_bond_atom_site_label_2
_ccdc_geom_bond_type
C2    C22   A    
C9    N1    A    
C8    C22   S    
Cu1   Cu2   S    
C12   O3    A    
C12   O4    A    
Cu2   O4    S    
C11   H3    S    
Cu1   O1    S    
C13   N2    A    
C15   H13   S    
C10   H2    S    
C23   O10   S    
O10   H14   S    
C9    C15   S    
C17   O7    A    
C7    C8    S    
C20   H15   S    
Cu2   N1    S    
C13   C14   S    
C3    H7    S    
C8    H1    S    
C7    H9    S    
C16   O6    A    
C4    H8    S    
Cu1   O5    S    
C1    O1    A    
Cu2   O8    S    
C1    C2    S    
C23   O9    D    
C19   C21   S    
Cu1   N2    S    
C17   O8    A    
C2    C3    A    
C6    C7    S    
C5    C6    A    
C7    H10   S    
C10   C11   A    
C1    O2    A    
C14   H5    S    
Cu1   O3    S    
C6    C22   A    
C16   O5    A    
Cu2   O2    S    
C20   C21   D    
C15   H6    S    
C21   H12   S    
C12   C18   S    
C11   N2    A    
Cu2   O6    S    
C9    C13   A    
C14   C15   S    
C18   C19   D    
C5    C16   S    
C10   N1    A    
C18   H16   S    
C14   H4    S    
C19   C23   S    
C17   C20   S    
Cu1   O7    S    
C3    C4    A    
C4    C5    A    
C8    H11   S    
