data_mof_unit_64013.cif
_audit_creation_date              2013-03-05T16:00:51-0500
_audit_creation_method            fapswitch 2.2
_symmetry_space_group_name_H-M    P1
_symmetry_Int_Tables_number       1
_space_group_crystal_system       triclinic
_cell_length_a                    29.410085
_cell_length_b                    29.410175
_cell_length_c                    55.842978
_cell_angle_alpha                 90.000032
_cell_angle_beta                  90.000036
_cell_angle_gamma                 89.999319
_cell_volume                      48301.7047258

loop_
_atom_site_label
_atom_site_type_symbol
_atom_site_description
_atom_site_fract_x
_atom_site_fract_y
_atom_site_fract_z
_atom_type_partial_charge
O1    O     O_R   0.061950 0.464160 0.500020 -0.555277
O2    O     O_R   0.535840 0.061950 0.500020 -0.555419
O3    O     O_R   0.938050 0.535840 0.500020 -0.555277
O4    O     O_R   0.464160 0.938050 0.500020 -0.555419
O5    O     O_R   0.061950 0.535840 0.499980 -0.555851
O6    O     O_R   0.535840 0.938050 0.499980 -0.555403
O7    O     O_R   0.938050 0.464160 0.499980 -0.555851
O8    O     O_R   0.464160 0.061950 0.499980 -0.555403
O9    O     O_R   0.561950 0.964160 0.000020 -0.555412
O10   O     O_R   0.035840 0.561950 0.000020 -0.555035
O11   O     O_R   0.438050 0.035840 0.000020 -0.555412
O12   O     O_R   0.964160 0.438050 0.000020 -0.555035
O13   O     O_R   0.561950 0.035840 0.999980 -0.555399
O14   O     O_R   0.035840 0.438050 0.999980 -0.555507
O15   O     O_R   0.438050 0.964160 0.999980 -0.555399
O16   O     O_R   0.964160 0.561950 0.999980 -0.555508
C1    C     C_R   0.085526 0.499999 0.499994 0.879163
C2    C     C_R   0.500000 0.085526 0.500000 0.878158
C3    C     C_R   0.914474 0.500000 0.499994 0.879163
C4    C     C_R   0.500000 0.914474 0.500000 0.878160
C5    C     C_R   0.585526 1.000000 0.000000 0.878130
C6    C     C_R   1.000000 0.585526 0.999995 0.877224
C7    C     C_R   0.414474 0.000000 0.000000 0.878131
C8    C     C_R   1.000000 0.414474 0.999995 0.877225
O17   O     O_R   0.999990 0.464160 0.465150 -0.555421
O18   O     O_R   0.535840 0.999990 0.465150 -0.555343
O19   O     O_R   0.000010 0.535840 0.465150 -0.555420
O20   O     O_R   0.464160 0.000010 0.465150 -0.555343
O21   O     O_R   0.999990 0.535840 0.534850 -0.555716
O22   O     O_R   0.535840 0.000010 0.534850 -0.555341
O23   O     O_R   0.000010 0.464160 0.534850 -0.555716
O24   O     O_R   0.464160 0.999990 0.534850 -0.555340
O25   O     O_R   0.499990 0.964160 0.965150 -0.555336
O26   O     O_R   0.035840 0.499990 0.965150 -0.554993
O27   O     O_R   0.500010 0.035840 0.965150 -0.555335
O28   O     O_R   0.964160 0.500010 0.965150 -0.554994
O29   O     O_R   0.499990 0.035840 0.034850 -0.555334
O30   O     O_R   0.035840 0.500010 0.034850 -0.555266
O31   O     O_R   0.500010 0.964160 0.034850 -0.555333
O32   O     O_R   0.964160 0.499990 0.034850 -0.555266
C9    C     C_R   0.000000 0.500000 0.453323 0.974680
C10   C     C_R   0.500000 0.000000 0.453323 0.974826
C11   C     C_R   0.000000 0.500000 0.546674 0.976555
C12   C     C_R   0.500000 0.000000 0.546677 0.974793
C13   C     C_R   0.500000 1.000000 0.953323 0.974794
C14   C     C_R   1.000000 0.500000 0.953319 0.973186
C15   C     C_R   0.500000 1.000000 0.046677 0.974776
C16   C     C_R   0.000000 0.500000 0.046677 0.974914
Cu1   Cu    Cu3+1 1.000000 0.457560 0.500000 1.142780
Cu2   Cu    Cu3+1 0.542440 0.000000 0.500000 1.143118
Cu3   Cu    Cu3+1 1.000000 0.542440 0.500000 1.142781
Cu4   Cu    Cu3+1 0.457560 0.000000 0.500000 1.143118
Cu5   Cu    Cu3+1 0.500000 0.957560 0.000000 1.143134
Cu6   Cu    Cu3+1 0.042440 0.500000 0.000000 1.143431
Cu7   Cu    Cu3+1 0.500000 0.042440 0.000000 1.143134
Cu8   Cu    Cu3+1 0.957560 0.500000 0.000000 1.143431
C17   C     C_R   0.030854 0.527991 0.262687 0.022951
C18   C     C_R   0.471993 0.030839 0.262687 0.022952
C19   C     C_R   0.969146 0.472009 0.262687 0.022951
C20   C     C_R   0.528007 0.969160 0.262687 0.022952
C21   C     C_R   0.030033 0.471130 0.737298 0.022967
C22   C     C_R   0.472011 0.969145 0.737313 0.022953
C23   C     C_R   0.969966 0.528871 0.737298 0.022968
C24   C     C_R   0.527990 0.030855 0.737313 0.022953
C25   C     C_R   0.530850 0.027996 0.762687 0.022951
C26   C     C_R   0.972904 0.531645 0.762672 0.022937
C27   C     C_R   0.469151 0.972004 0.762687 0.022950
C28   C     C_R   0.027095 0.468355 0.762672 0.022936
C29   C     C_R   0.530865 0.972021 0.237313 0.022952
C30   C     C_R   0.972006 0.469149 0.237313 0.022951
C31   C     C_R   0.469134 0.027979 0.237313 0.022952
C32   C     C_R   0.027994 0.530851 0.237313 0.022952
C33   C     C_R   0.000000 0.500000 0.275374 0.094807
C34   C     C_R   0.500000 1.000000 0.275374 0.094806
C35   C     C_R   1.000000 0.500000 0.724611 0.094793
C36   C     C_R   0.500000 1.000000 0.724626 0.094807
C37   C     C_R   0.500000 0.000000 0.775374 0.094805
C38   C     C_R   0.999999 0.500000 0.775358 0.094818
C39   C     C_R   0.500000 1.000000 0.224626 0.094807
C40   C     C_R   1.000000 0.500000 0.224626 0.094808
C41   C     C_R   0.064583 0.551323 0.275706 -0.217107
C42   C     C_R   0.448642 0.064557 0.275707 -0.217106
C43   C     C_R   0.935417 0.448676 0.275706 -0.217106
C44   C     C_R   0.551358 0.935443 0.275707 -0.217105
C45   C     C_R   0.063068 0.446826 0.724278 -0.217064
C46   C     C_R   0.448680 0.935415 0.724294 -0.217107
C47   C     C_R   0.936931 0.553175 0.724278 -0.217065
C48   C     C_R   0.551321 0.064585 0.724294 -0.217106
C49   C     C_R   0.564575 0.051334 0.775706 -0.217104
C50   C     C_R   0.950549 0.566030 0.775693 -0.217132
C51   C     C_R   0.435425 0.948667 0.775706 -0.217104
C52   C     C_R   0.049449 0.433970 0.775693 -0.217132
C53   C     C_R   0.564605 0.948702 0.224294 -0.217106
C54   C     C_R   0.948670 0.435422 0.224293 -0.217105
C55   C     C_R   0.435395 0.051298 0.224294 -0.217107
C56   C     C_R   0.051331 0.564577 0.224293 -0.217105
C57   C     C_R   0.066672 0.549585 0.300637 0.351542
C58   C     C_R   0.450379 0.066647 0.300638 0.351540
C59   C     C_R   0.933328 0.450414 0.300637 0.351542
C60   C     C_R   0.549621 0.933353 0.300638 0.351540
C61   C     C_R   0.065212 0.448507 0.699348 0.351572
C62   C     C_R   0.450418 0.933326 0.699362 0.351549
C63   C     C_R   0.934788 0.551495 0.699348 0.351573
C64   C     C_R   0.549583 0.066674 0.699362 0.351549
C65   C     C_R   0.566664 0.049596 0.800638 0.351532
C66   C     C_R   0.952331 0.568056 0.800625 0.351486
C67   C     C_R   0.433336 0.950404 0.800637 0.351532
C68   C     C_R   0.047667 0.431944 0.800625 0.351485
C69   C     C_R   0.566693 0.950440 0.199363 0.351537
C70   C     C_R   0.950407 0.433333 0.199362 0.351538
C71   C     C_R   0.433307 0.049559 0.199363 0.351539
C72   C     C_R   0.049593 0.566666 0.199362 0.351537
C73   C     C_R   0.033048 0.525466 0.313586 -0.128554
C74   C     C_R   0.474517 0.033035 0.313587 -0.128556
C75   C     C_R   0.966953 0.474534 0.313586 -0.128555
C76   C     C_R   0.525483 0.966965 0.313587 -0.128556
C77   C     C_R   0.032315 0.473608 0.686397 -0.128614
C78   C     C_R   0.474535 0.966951 0.686413 -0.128552
C79   C     C_R   0.967685 0.526393 0.686397 -0.128614
C80   C     C_R   0.525465 0.033048 0.686413 -0.128551
C81   C     C_R   0.533044 0.025471 0.813587 -0.128559
C82   C     C_R   0.975460 0.533739 0.813571 -0.128503
C83   C     C_R   0.466956 0.974529 0.813587 -0.128559
C84   C     C_R   0.024538 0.466261 0.813571 -0.128503
C85   C     C_R   0.533058 0.974546 0.186414 -0.128552
C86   C     C_R   0.974530 0.466955 0.186413 -0.128555
C87   C     C_R   0.466942 0.025454 0.186414 -0.128553
C88   C     C_R   0.025470 0.533044 0.186413 -0.128554
C89   C     C_R   0.000000 0.500000 0.300861 -0.109115
C90   C     C_R   0.500000 1.000000 0.300861 -0.109112
C91   C     C_R   1.000000 0.500000 0.699123 -0.109075
C92   C     C_R   0.500000 1.000000 0.699139 -0.109114
C93   C     C_R   0.500000 0.000000 0.800861 -0.109111
C94   C     C_R   0.999999 0.500000 0.800845 -0.109147
C95   C     C_R   0.500000 1.000000 0.199139 -0.109113
C96   C     C_R   0.000000 0.500000 0.199139 -0.109112
C97   C     C_R   0.030756 0.526411 0.338842 0.696671
C98   C     C_R   0.473574 0.030744 0.338843 0.696671
C99   C     C_R   0.969244 0.473589 0.338842 0.696671
C100  C     C_R   0.526426 0.969256 0.338843 0.696671
C101  C     C_R   0.030030 0.472766 0.661140 0.696667
C102  C     C_R   0.473590 0.969243 0.661157 0.696671
C103  C     C_R   0.969970 0.527235 0.661140 0.696667
C104  C     C_R   0.526410 0.030757 0.661157 0.696671
C105  C     C_R   0.530753 0.026414 0.838843 0.696667
C106  C     C_R   0.974406 0.531438 0.838824 0.696640
C107  C     C_R   0.469247 0.973586 0.838843 0.696667
C108  C     C_R   0.025593 0.468562 0.838824 0.696640
C109  C     C_R   0.530766 0.973599 0.161158 0.696671
C110  C     C_R   0.973585 0.469247 0.161157 0.696670
C111  C     C_R   0.469234 0.026400 0.161158 0.696670
C112  C     C_R   0.026415 0.530752 0.161158 0.696669
N1    N     N_R   0.000000 0.500000 0.350744 -0.433207
N2    N     N_R   0.500000 1.000000 0.350744 -0.433213
N3    N     N_R   0.000000 0.500000 0.649241 -0.433323
N4    N     N_R   0.500000 1.000000 0.649256 -0.433215
N5    N     N_R   0.500000 0.000000 0.850744 -0.433211
N6    N     N_R   0.999999 0.500000 0.850728 -0.433091
N7    N     N_R   0.500000 1.000000 0.149256 -0.433211
N8    N     N_R   0.000000 0.500000 0.149256 -0.433216
O33   O     O_2   0.058152 0.554113 0.351572 -0.424762
O34   O     O_2   0.445859 0.058128 0.351573 -0.424747
O35   O     O_2   0.941848 0.445887 0.351572 -0.424763
O36   O     O_2   0.554140 0.941872 0.351573 -0.424747
O37   O     O_2   0.056697 0.444369 0.648404 -0.424504
O38   O     O_2   0.445889 0.941846 0.648428 -0.424753
O39   O     O_2   0.943303 0.555632 0.648404 -0.424503
O40   O     O_2   0.554111 0.058154 0.648428 -0.424752
O41   O     O_2   0.558148 0.054118 0.851573 -0.424748
O42   O     O_2   0.947388 0.559521 0.851548 -0.425004
O43   O     O_2   0.441852 0.945882 0.851572 -0.424749
O44   O     O_2   0.052611 0.440479 0.851548 -0.425003
O45   O     O_2   0.558172 0.945906 0.148428 -0.424755
O46   O     O_2   0.945879 0.441855 0.148427 -0.424741
O47   O     O_2   0.441828 0.054094 0.148428 -0.424754
O48   O     O_2   0.054121 0.558145 0.148428 -0.424741
C113  C     C_R   0.500000 0.584704 0.500000 0.791972
C114  C     C_R   0.415296 0.500000 0.500000 0.791971
C115  C     C_R   0.500000 0.415296 0.500000 0.791970
C116  C     C_R   0.584704 0.500000 0.500000 0.791973
C117  C     C_R   1.000000 0.084704 1.000000 0.791964
C118  C     C_R   0.915296 0.000000 0.000000 0.791963
C119  C     C_R   1.000000 0.915296 1.000000 0.791962
C120  C     C_R   0.084704 1.000000 0.000000 0.791965
Cu9   Cu    Cu3+1 0.500000 0.500000 0.476130 1.055387
Cu10  Cu    Cu3+1 0.500000 0.500000 0.523870 1.055383
Cu11  Cu    Cu3+1 1.000000 0.000000 0.976130 1.055425
Cu12  Cu    Cu3+1 1.000000 1.000000 0.023870 1.055414
O49   O     O_R   0.500000 0.562000 0.479850 -0.547436
O50   O     O_R   0.438000 0.500000 0.479850 -0.547441
O51   O     O_R   0.500000 0.438000 0.479850 -0.547435
O52   O     O_R   0.562000 0.500000 0.479850 -0.547441
O53   O     O_R   0.500000 0.438000 0.520150 -0.547438
O54   O     O_R   0.438000 0.500000 0.520150 -0.547430
O55   O     O_R   0.500000 0.562000 0.520150 -0.547438
O56   O     O_R   0.562000 0.500000 0.520150 -0.547430
O57   O     O_R   0.000000 0.062000 0.979850 -0.547437
O58   O     O_R   0.938000 0.000000 0.979850 -0.547430
O59   O     O_R   0.000000 0.938000 0.979850 -0.547437
O60   O     O_R   0.062000 0.000000 0.979850 -0.547430
O61   O     O_R   1.000000 0.938000 0.020150 -0.547429
O62   O     O_R   0.938000 1.000000 0.020150 -0.547434
O63   O     O_R   0.000000 0.062000 0.020150 -0.547429
O64   O     O_R   0.062000 1.000000 0.020150 -0.547434
C121  C     C_R   0.967677 0.526185 0.389059 0.261171
C122  C     C_R   0.473825 0.967669 0.389059 0.261191
C123  C     C_R   0.032323 0.473814 0.389059 0.261171
C124  C     C_R   0.526175 0.032331 0.389059 0.261192
C125  C     C_R   0.967178 0.474442 0.610926 0.261448
C126  C     C_R   0.473814 0.032322 0.610941 0.261183
C127  C     C_R   0.032822 0.525558 0.610926 0.261447
C128  C     C_R   0.526187 0.967677 0.610941 0.261183
C129  C     C_R   0.467677 0.026186 0.889059 0.261189
C130  C     C_R   0.973257 0.468139 0.889045 0.260940
C131  C     C_R   0.532323 0.973814 0.889059 0.261189
C132  C     C_R   0.026742 0.531861 0.889045 0.260939
C133  C     C_R   0.467682 0.973809 0.110941 0.261183
C134  C     C_R   0.973819 0.532327 0.110941 0.261200
C135  C     C_R   0.532318 0.026191 0.110941 0.261182
C136  C     C_R   0.026181 0.467673 0.110941 0.261201
C137  C     C_R   0.967881 0.526486 0.414292 0.182826
C138  C     C_R   0.473524 0.967874 0.414292 0.182824
C139  C     C_R   0.032119 0.473514 0.414292 0.182826
C140  C     C_R   0.526476 0.032126 0.414292 0.182823
C141  C     C_R   0.967404 0.474105 0.585694 0.182937
C142  C     C_R   0.473513 0.032118 0.585708 0.182816
C143  C     C_R   0.032596 0.525895 0.585693 0.182937
C144  C     C_R   0.526487 0.967882 0.585708 0.182818
C145  C     C_R   0.467881 0.026486 0.914292 0.182826
C146  C     C_R   0.972992 0.468319 0.914278 0.182700
C147  C     C_R   0.532119 0.973514 0.914292 0.182825
C148  C     C_R   0.027008 0.531681 0.914278 0.182700
C149  C     C_R   0.467886 0.973509 0.085708 0.182817
C150  C     C_R   0.973518 0.532122 0.085708 0.182816
C151  C     C_R   0.532114 0.026491 0.085708 0.182817
C152  C     C_R   0.026482 0.467878 0.085708 0.182815
C153  C     C_R   0.000000 0.500000 0.426921 -0.352563
C154  C     C_R   0.500000 0.000000 0.426921 -0.352614
C155  C     C_R   1.000000 0.500000 0.573068 -0.352269
C156  C     C_R   0.500000 1.000000 0.573079 -0.352617
C157  C     C_R   0.500000 1.000000 0.926921 -0.352620
C158  C     C_R   1.000000 0.500000 0.926912 -0.352925
C159  C     C_R   0.500000 1.000000 0.073079 -0.352620
C160  C     C_R   1.000000 0.500000 0.073079 -0.352664
C161  C     C_R   0.000000 0.500000 0.376526 0.030380
C162  C     C_R   0.500000 1.000000 0.376527 0.030380
C163  C     C_R   0.000000 0.500000 0.623459 0.030246
C164  C     C_R   0.500000 1.000000 0.623474 0.030382
C165  C     C_R   0.500000 1.000000 0.876526 0.030386
C166  C     C_R   1.000000 0.500000 0.876512 0.030507
C167  C     C_R   0.500000 0.000000 0.123474 0.030384
C168  C     C_R   0.000000 0.500000 0.123473 0.030387
C169  C     C_1   0.136631 0.499999 0.499995 -0.072644
C170  C     C_1   0.499999 0.136631 0.500000 -0.073489
C171  C     C_1   0.863369 0.500001 0.499995 -0.072644
C172  C     C_1   0.500001 0.863369 0.500000 -0.073489
C173  C     C_1   0.636631 0.999999 0.000000 -0.073506
C174  C     C_1   1.000000 0.636631 0.999996 -0.074264
C175  C     C_1   0.363369 0.000001 0.000000 -0.073506
C176  C     C_1   0.000000 0.363369 0.999996 -0.074264
C177  C     C_1   0.178993 0.499999 0.499996 0.074080
C178  C     C_1   0.499999 0.178993 0.500000 0.073872
C179  C     C_1   0.821007 0.500001 0.499996 0.074080
C180  C     C_1   0.500001 0.821006 0.500000 0.073872
C181  C     C_1   0.678993 0.999999 0.000000 0.073871
C182  C     C_1   1.000000 0.678993 0.999996 0.073687
C183  C     C_1   0.321007 0.000001 0.000000 0.073871
C184  C     C_1   1.000000 0.321007 0.999996 0.073687
C185  C     C_1   0.229220 0.499999 0.499997 0.065957
C186  C     C_1   0.499999 0.229220 0.500000 0.065876
C187  C     C_1   0.770780 0.500001 0.499997 0.065957
C188  C     C_1   0.500000 0.770780 0.500000 0.065876
C189  C     C_1   0.729220 1.000000 0.000000 0.065880
C190  C     C_1   0.000000 0.729220 0.999997 0.065808
C191  C     C_1   0.270780 0.000000 0.000000 0.065880
C192  C     C_1   1.000000 0.270780 0.999997 0.065808
C193  C     C_1   0.271586 0.499999 0.499998 0.059064
C194  C     C_1   0.500000 0.271586 0.500000 0.059005
C195  C     C_1   0.728414 0.500001 0.499998 0.059064
C196  C     C_1   0.500000 0.728414 0.500000 0.059005
C197  C     C_1   0.771586 1.000000 0.000000 0.059011
C198  C     C_1   0.000000 0.771586 0.999998 0.058958
C199  C     C_1   0.228414 0.000000 0.000000 0.059011
C200  C     C_1   1.000000 0.228414 0.999998 0.058959
C201  C     C_1   0.321815 0.499999 0.499999 0.049167
C202  C     C_1   0.500000 0.321815 0.500000 0.049148
C203  C     C_1   0.678185 0.500000 0.499999 0.049167
C204  C     C_1   0.500000 0.678185 0.500000 0.049148
C205  C     C_1   0.821815 1.000000 1.000000 0.049153
C206  C     C_1   0.000000 0.821815 0.999999 0.049138
C207  C     C_1   0.178185 0.000000 0.000000 0.049153
C208  C     C_1   1.000000 0.178185 0.999999 0.049138
C209  C     C_1   0.364182 0.500000 0.500000 -0.144465
C210  C     C_1   0.500000 0.364182 0.500000 -0.144472
C211  C     C_1   0.635818 0.500000 0.500000 -0.144465
C212  C     C_1   0.500000 0.635818 0.500000 -0.144472
C213  C     C_1   0.864182 0.000000 1.000000 -0.144465
C214  C     C_1   0.000000 0.864182 1.000000 -0.144471
C215  C     C_1   0.135818 0.000000 0.000000 -0.144465
C216  C     C_1   1.000000 0.135818 1.000000 -0.144470
H1    H     H_    0.091873 0.569028 0.266764 0.189634
H2    H     H_    0.430923 0.091838 0.266764 0.189632
H3    H     H_    0.908127 0.430972 0.266764 0.189633
H4    H     H_    0.569077 0.908162 0.266764 0.189631
H5    H     H_    0.089825 0.428321 0.733220 0.189555
H6    H     H_    0.430976 0.908124 0.733236 0.189629
H7    H     H_    0.910174 0.571680 0.733220 0.189554
H8    H     H_    0.569025 0.091876 0.733236 0.189628
H9    H     H_    0.591862 0.069043 0.766764 0.189635
H10   H     H_    0.933652 0.593828 0.766750 0.189706
H11   H     H_    0.408138 0.930957 0.766764 0.189635
H12   H     H_    0.066346 0.406171 0.766750 0.189707
H13   H     H_    0.591902 0.931008 0.233236 0.189634
H14   H     H_    0.930962 0.408135 0.233236 0.189633
H15   H     H_    0.408098 0.068991 0.233236 0.189635
H16   H     H_    0.069038 0.591865 0.233236 0.189633
N9    N     N_R   0.104900 0.570492 0.312203 0.172802
O65   O     O_R   0.116841 0.611626 0.306364 -0.265464
O66   O     O_R   0.133040 0.545509 0.324467 -0.231990
N10   N     N_R   0.429451 0.104864 0.312203 0.172804
O67   O     O_R   0.388310 0.116780 0.306366 -0.265452
O68   O     O_R   0.454419 0.133019 0.324465 -0.231989
N11   N     N_R   0.895100 0.429507 0.312203 0.172802
O69   O     O_R   0.883159 0.388374 0.306364 -0.265464
O70   O     O_R   0.866960 0.454491 0.324467 -0.231990
N12   N     N_R   0.570549 0.895136 0.312203 0.172805
O71   O     O_R   0.611691 0.883220 0.306366 -0.265452
O72   O     O_R   0.545581 0.866981 0.324465 -0.231989
N13   N     N_R   0.102789 0.426449 0.687785 0.172839
O73   O     O_R   0.113401 0.384932 0.693583 -0.265207
O74   O     O_R   0.131747 0.450584 0.675578 -0.232231
N14   N     N_R   0.429512 0.895097 0.687797 0.172799
O75   O     O_R   0.388379 0.883155 0.693635 -0.265462
O76   O     O_R   0.454497 0.866958 0.675533 -0.232005
N15   N     N_R   0.897212 0.573553 0.687785 0.172837
O77   O     O_R   0.886601 0.615071 0.693583 -0.265205
O78   O     O_R   0.868253 0.549419 0.675578 -0.232230
N16   N     N_R   0.570489 0.104902 0.687797 0.172798
O79   O     O_R   0.611623 0.116844 0.693635 -0.265462
O80   O     O_R   0.545505 0.133042 0.675534 -0.232005
N17   N     N_R   0.604887 0.070512 0.812203 0.172809
O81   O     O_R   0.616815 0.111650 0.806367 -0.265445
O82   O     O_R   0.633036 0.045535 0.824465 -0.231964
N18   N     N_R   0.932572 0.606887 0.812195 0.172764
O83   O     O_R   0.891865 0.620136 0.806308 -0.265720
O84   O     O_R   0.958359 0.634189 0.824524 -0.231663
N19   N     N_R   0.395112 0.929489 0.812203 0.172809
O85   O     O_R   0.383184 0.888351 0.806366 -0.265446
O86   O     O_R   0.366964 0.954467 0.824465 -0.231963
N20   N     N_R   0.067424 0.393111 0.812195 0.172764
O87   O     O_R   0.108130 0.379860 0.806308 -0.265721
O88   O     O_R   0.041636 0.365811 0.824524 -0.231662
N21   N     N_R   0.604929 0.929549 0.187797 0.172804
O89   O     O_R   0.616889 0.888421 0.193636 -0.265457
O90   O     O_R   0.633057 0.954543 0.175533 -0.231975
N22   N     N_R   0.929497 0.395108 0.187797 0.172805
O91   O     O_R   0.888362 0.383171 0.193635 -0.265450
O92   O     O_R   0.954477 0.366966 0.175533 -0.231974
N23   N     N_R   0.395070 0.070450 0.187797 0.172804
O93   O     O_R   0.383110 0.111578 0.193636 -0.265458
O94   O     O_R   0.366943 0.045455 0.175532 -0.231975
N24   N     N_R   0.070503 0.604892 0.187797 0.172806
O95   O     O_R   0.111638 0.616829 0.193636 -0.265449
O96   O     O_R   0.045523 0.633034 0.175533 -0.231974
N25   N     N_R   0.933721 0.551346 0.376111 0.182254
O97   O     O_R   0.945102 0.576978 0.358094 -0.289071
O98   O     O_R   0.891027 0.547848 0.381940 -0.217727
N26   N     N_R   0.448676 0.933705 0.376112 0.182250
O99   O     O_R   0.423041 0.945077 0.358094 -0.289067
O100  O     O_R   0.452189 0.891013 0.381941 -0.217733
N27   N     N_R   0.066279 0.448654 0.376111 0.182254
O101  O     O_R   0.054898 0.423022 0.358094 -0.289071
O102  O     O_R   0.108973 0.452152 0.381940 -0.217728
N28   N     N_R   0.551323 0.066295 0.376112 0.182249
O103  O     O_R   0.576959 0.054923 0.358094 -0.289067
O104  O     O_R   0.547811 0.108987 0.381941 -0.217732
N29   N     N_R   0.932701 0.449995 0.623870 0.182188
O105  O     O_R   0.943529 0.424159 0.641902 -0.288927
O106  O     O_R   0.890098 0.454340 0.618015 -0.218273
N30   N     N_R   0.448652 0.066277 0.623888 0.182254
O107  O     O_R   0.423020 0.054896 0.641906 -0.289052
O108  O     O_R   0.452150 0.108971 0.618060 -0.217716
N31   N     N_R   0.067299 0.550006 0.623870 0.182188
O109  O     O_R   0.056471 0.575841 0.641902 -0.288927
O110  O     O_R   0.109902 0.545661 0.618014 -0.218273
N32   N     N_R   0.551348 0.933723 0.623888 0.182254
O111  O     O_R   0.576980 0.945104 0.641906 -0.289051
O112  O     O_R   0.547851 0.891029 0.618060 -0.217715
N33   N     N_R   0.433721 0.051346 0.876112 0.182248
O113  O     O_R   0.445101 0.076978 0.858094 -0.289083
O114  O     O_R   0.391027 0.047848 0.881941 -0.217727
N34   N     N_R   0.947456 0.434673 0.876095 0.182341
O115  O     O_R   0.922011 0.446557 0.858093 -0.289217
O116  O     O_R   0.950195 0.391909 0.881894 -0.217099
N35   N     N_R   0.566279 0.948654 0.876112 0.182248
O117  O     O_R   0.554899 0.923022 0.858094 -0.289083
O118  O     O_R   0.608973 0.952152 0.881941 -0.217727
N36   N     N_R   0.052543 0.565327 0.876095 0.182341
O119  O     O_R   0.077988 0.553443 0.858093 -0.289218
O120  O     O_R   0.049804 0.608091 0.881894 -0.217100
N37   N     N_R   0.433733 0.948641 0.123888 0.182254
O121  O     O_R   0.445119 0.923011 0.141906 -0.289067
O122  O     O_R   0.391038 0.952132 0.118060 -0.217703
N38   N     N_R   0.948663 0.566285 0.123888 0.182251
O123  O     O_R   0.923029 0.554909 0.141906 -0.289062
O124  O     O_R   0.952168 0.608979 0.118060 -0.217708
N39   N     N_R   0.566268 0.051359 0.123889 0.182255
O125  O     O_R   0.554881 0.076989 0.141906 -0.289067
O126  O     O_R   0.608963 0.047868 0.118060 -0.217704
N40   N     N_R   0.051337 0.433714 0.123888 0.182250
O127  O     O_R   0.076971 0.445091 0.141906 -0.289062
O128  O     O_R   0.047832 0.391021 0.118059 -0.217708
N41   N     N_R   0.935286 0.553647 0.427042 0.174288
O129  O     O_R   0.908644 0.535065 0.442859 -0.349934
O130  O     O_R   0.930910 0.596693 0.422181 -0.239526
N42   N     N_R   0.446372 0.935271 0.427042 0.174274
O131  O     O_R   0.464961 0.908637 0.442861 -0.349808
O132  O     O_R   0.403328 0.930882 0.422180 -0.239518
N43   N     N_R   0.064714 0.446353 0.427042 0.174288
O133  O     O_R   0.091356 0.464935 0.442859 -0.349934
O134  O     O_R   0.069090 0.403307 0.422181 -0.239526
N44   N     N_R   0.553627 0.064729 0.427042 0.174274
O135  O     O_R   0.535039 0.091363 0.442861 -0.349807
O136  O     O_R   0.596672 0.069118 0.422180 -0.239518
N45   N     N_R   0.934359 0.447500 0.572939 0.173838
O137  O     O_R   0.908159 0.466494 0.557052 -0.351219
O138  O     O_R   0.929136 0.404573 0.577859 -0.239535
N46   N     N_R   0.446352 0.064713 0.572958 0.174283
O139  O     O_R   0.464933 0.091355 0.557141 -0.349782
O140  O     O_R   0.403305 0.069088 0.577819 -0.239493
N47   N     N_R   0.065641 0.552500 0.572939 0.173837
O141  O     O_R   0.091841 0.533506 0.557052 -0.351219
O142  O     O_R   0.070863 0.595427 0.577859 -0.239535
N48   N     N_R   0.553648 0.935287 0.572958 0.174283
O143  O     O_R   0.535067 0.908645 0.557141 -0.349782
O144  O     O_R   0.596695 0.930912 0.577819 -0.239493
N49   N     N_R   0.435286 0.053647 0.927042 0.174282
O145  O     O_R   0.408644 0.035066 0.942859 -0.349778
O146  O     O_R   0.430912 0.096694 0.922181 -0.239527
N50   N     N_R   0.945343 0.436132 0.927023 0.174662
O147  O     O_R   0.963551 0.409096 0.942776 -0.348449
O148  O     O_R   0.902204 0.432515 0.922216 -0.239521
N51   N     N_R   0.564714 0.946352 0.927042 0.174282
O149  O     O_R   0.591355 0.964933 0.942859 -0.349779
O150  O     O_R   0.569088 0.903306 0.922181 -0.239527
N52   N     N_R   0.054657 0.563867 0.927023 0.174662
O151  O     O_R   0.036449 0.590903 0.942776 -0.348449
O152  O     O_R   0.097796 0.567484 0.922216 -0.239521
N53   N     N_R   0.435295 0.946343 0.072958 0.174286
O153  O     O_R   0.408650 0.964921 0.057141 -0.349764
O154  O     O_R   0.430928 0.903296 0.077818 -0.239503
N54   N     N_R   0.946362 0.564721 0.072958 0.174273
O155  O     O_R   0.964946 0.591358 0.057140 -0.349656
O156  O     O_R   0.903316 0.569103 0.077819 -0.239496
N55   N     N_R   0.564705 0.053657 0.072958 0.174287
O157  O     O_R   0.591350 0.035079 0.057141 -0.349765
O158  O     O_R   0.569072 0.096704 0.077818 -0.239503
N56   N     N_R   0.053638 0.435279 0.072958 0.174273
O159  O     O_R   0.035054 0.408641 0.057139 -0.349656
O160  O     O_R   0.096684 0.430896 0.077819 -0.239496

loop_
_geom_bond_atom_site_label_1
_geom_bond_atom_site_label_2
_geom_bond_distance
_ccdc_geom_bond_type
C120  O64   1.308439 A    
O25   C13   1.243895 A    
N45   O137  1.301063 A    
N8    C168  1.439783 S    
Cu10  O53   1.835226 S    
C80   C104  1.412242 A    
C142  N46   1.436662 S    
C52   H12   1.079222 S    
C143  N47   1.436696 S    
Cu9   O50   1.835221 S    
N49   O145  1.301071 A    
C25   C49   1.408384 A    
C183  C191  1.477166 S    
C132  N36   1.437898 S    
C147  C157  1.412966 A    
C29   C53   1.408383 A    
C18   C42   1.408381 A    
C120  C215  1.503258 S    
C58   C74   1.415640 A    
C31   C55   1.408383 A    
C12   C156  1.474338 S    
C66   N18   1.435057 S    
O24   Cu4   1.955784 S    
C152  N56   1.436663 S    
C149  C159  1.412965 A    
N2    C162  1.439777 S    
C35   C91   1.423326 A    
Cu1   Cu3   2.496339 S    
C115  O51   1.308441 A    
C206  C214  1.246021 T    
Cu2   Cu4   2.496331 S    
O3    C3    1.261669 A    
N12   O71   1.301200 A    
C123  N27   1.437907 S    
C19   C33   1.415281 A    
C116  O56   1.308444 A    
C64   N16   1.435002 S    
C148  N52   1.436626 S    
O15   C7    1.261673 A    
C85   C95   1.417962 A    
C187  C195  1.245991 T    
C134  C150  1.409110 A    
C86   C96   1.417963 A    
N41   O130  1.301151 A    
C74   C90   1.417965 A    
C118  C213  1.503258 S    
C68   C84   1.415610 A    
N26   O99   1.301025 A    
N21   O90   1.301452 A    
C49   C65   1.394512 A    
N48   O143  1.301070 A    
C140  N44   1.436658 S    
C25   C37   1.415284 A    
N11   O69   1.301197 A    
C44   C60   1.394513 A    
C51   C67   1.394513 A    
C173  C181  1.245888 T    
N34   O116  1.301213 A    
O17   C9    1.243895 A    
N15   O78   1.301476 A    
C82   C106  1.412199 A    
O10   C6    1.261667 A    
C137  C153  1.412966 A    
N32   O112  1.301213 A    
C105  N5    1.365006 A    
C57   N9    1.435002 S    
C97   N1    1.365007 A    
C98   O34   1.348456 S    
N38   O123  1.301021 A    
C151  N55   1.436659 S    
C38   C94   1.423259 A    
C141  N45   1.436701 S    
C151  C159  1.412964 A    
C21   C45   1.408353 A    
C47   C63   1.394473 A    
C3    C171  1.502997 S    
C75   C99   1.412242 A    
O26   Cu6   1.955784 S    
O7    C3    1.261676 A    
C172  C180  1.245891 T    
C116  C211  1.503258 S    
N33   O113  1.301022 A    
C141  C155  1.412828 A    
C73   C97   1.412242 A    
N31   O109  1.301015 A    
O27   C13   1.243897 A    
C129  C145  1.409110 A    
N46   O140  1.301151 A    
Cu9   O52   1.835221 S    
O31   C15   1.243897 A    
C115  O53   1.308441 A    
C169  C177  1.245885 T    
O32   C16   1.243891 A    
C136  N40   1.437905 S    
C113  O55   1.308440 A    
N43   O134  1.301151 A    
N5    C165  1.439777 S    
C129  N33   1.437909 S    
C41   H1    1.079195 S    
C43   H3    1.079199 S    
C8    C176  1.502992 S    
C121  C161  1.409459 A    
Cu11  O60   1.835221 S    
C205  C213  1.246020 T    
N42   O131  1.301073 A    
O18   Cu2   1.955784 S    
N7    C167  1.439777 S    
N25   O97   1.301022 A    
C121  N25   1.437906 S    
C5    C173  1.502988 S    
O6    C4    1.261673 A    
O11   C7    1.261675 A    
C28   C52   1.408416 A    
C203  C211  1.246020 T    
C204  C212  1.246024 T    
N20   O87   1.301227 A    
C124  C162  1.409459 A    
N51   O150  1.301149 A    
N15   O77   1.301206 A    
C32   C56   1.408385 A    
C46   H6    1.079199 S    
C76   C90   1.417965 A    
C200  C208  1.477250 S    
C113  C212  1.503263 S    
N23   O93   1.301200 A    
N55   O158  1.301149 A    
O5    Cu3   1.832264 S    
C115  C210  1.503263 S    
C102  N4    1.365005 A    
C52   C68   1.394554 A    
C140  C154  1.412960 A    
C50   H10   1.079217 S    
C195  C203  1.477245 S    
N30   O107  1.301022 A    
C97   O33   1.348455 S    
C123  C139  1.409110 A    
N43   O133  1.301068 A    
C27   C37   1.415281 A    
C126  C164  1.409460 A    
C128  C164  1.409459 A    
N52   O152  1.301149 A    
C31   C39   1.415283 A    
N37   O121  1.301028 A    
C10   C154  1.474327 S    
N47   O142  1.301160 A    
C2    C170  1.502995 S    
C22   C46   1.408380 A    
O23   C11   1.243787 A    
C72   N24   1.435003 S    
Cu10  O56   1.835221 S    
C144  C156  1.412963 A    
N24   O95   1.301200 A    
C202  C210  1.246024 T    
C58   N10   1.435002 S    
C17   C33   1.415282 A    
N28   O103  1.301027 A    
C82   C94   1.417902 A    
C150  N54   1.436661 S    
O2    Cu2   1.832269 S    
C87   C111  1.412244 A    
C44   H4    1.079200 S    
C88   C112  1.412242 A    
C120  O60   1.308438 A    
C53   H13   1.079198 S    
C79   C91   1.418003 A    
C129  C165  1.409461 A    
O26   C14   1.244001 A    
C176  C184  1.245891 T    
C191  C199  1.245994 T    
O8    Cu4   1.832274 S    
C119  C214  1.503266 S    
O30   C16   1.243889 A    
C179  C187  1.477166 S    
C188  C196  1.245994 T    
C137  N41   1.436660 S    
N13   O74   1.301473 A    
C66   C82   1.415614 A    
C117  O63   1.308445 A    
C123  C161  1.409459 A    
C130  N34   1.437895 S    
C48   C64   1.394513 A    
O19   Cu3   1.955784 S    
O17   Cu1   1.955784 S    
N17   O82   1.301453 A    
C24   C36   1.415280 A    
N56   O159  1.301071 A    
Cu11  O58   1.835221 S    
C201  C209  1.246020 T    
C135  C151  1.409109 A    
N14   O75   1.301198 A    
C139  C153  1.412964 A    
C192  C200  1.245997 T    
N53   O154  1.301149 A    
C193  C201  1.477245 S    
Cu12  O64   1.835221 S    
N11   O70   1.301451 A    
C111  N7    1.365009 A    
C104  N4    1.365004 A    
O16   Cu8   1.832274 S    
C146  C158  1.413094 A    
C102  O38   1.348454 S    
C103  N3    1.364962 A    
N47   O141  1.301064 A    
C100  N2    1.365010 A    
C146  N50   1.436630 S    
C184  C192  1.477170 S    
C114  C209  1.503258 S    
N22   O92   1.301455 A    
C185  C193  1.245991 T    
O6    Cu2   1.832277 S    
C103  O39   1.348470 S    
N40   O127  1.301024 A    
C70   C86   1.415637 A    
C181  C189  1.477166 S    
C48   H8    1.079199 S    
N16   O80   1.301457 A    
N44   O135  1.301075 A    
C11   C155  1.473964 S    
C134  N38   1.437908 S    
C124  N28   1.437903 S    
C29   C39   1.415283 A    
C46   C62   1.394518 A    
N46   O139  1.301070 A    
C18   C34   1.415283 A    
C131  C165  1.409457 A    
O21   Cu3   1.955784 S    
C69   N21   1.435006 S    
O14   Cu6   1.832277 S    
Cu10  O54   1.835220 S    
N18   O84   1.301490 A    
N54   O155  1.301069 A    
Cu9   O49   1.835226 S    
C106  N6    1.365027 A    
C30   C54   1.408385 A    
C71   N23   1.435003 S    
O12   C8    1.261667 A    
C101  O37   1.348470 S    
C84   C94   1.417904 A    
C61   C77   1.415656 A    
C99   O35   1.348454 S    
C32   C40   1.415281 A    
O13   C5    1.261673 A    
C133  N37   1.437903 S    
C36   C92   1.423287 A    
C98   N2    1.365013 A    
C23   C35   1.415295 A    
C20   C29   1.421948 A    
C122  C138  1.409110 A    
C63   N15   1.434958 S    
N36   O120  1.301211 A    
N39   O126  1.301213 A    
C77   C91   1.418000 A    
C17   C41   1.408384 A    
N29   O106  1.301216 A    
C78   C92   1.417965 A    
O29   Cu7   1.955784 S    
C59   N11   1.435002 S    
N18   O83   1.301229 A    
C170  C178  1.245891 T    
N53   O153  1.301079 A    
N35   O118  1.301214 A    
C150  C160  1.412961 A    
Cu12  O62   1.835220 S    
C135  C167  1.409458 A    
C133  C167  1.409459 A    
O13   Cu7   1.832264 S    
C189  C197  1.245994 T    
C100  O36   1.348456 S    
C42   H2    1.079198 S    
C53   C69   1.394512 A    
C174  C182  1.245891 T    
N41   O129  1.301069 A    
C42   C58   1.394513 A    
C60   C76   1.415639 A    
C67   C83   1.415635 A    
C16   C160  1.474333 S    
O22   C12   1.243889 A    
N26   O100  1.301211 A    
N21   O89   1.301201 A    
C45   C61   1.394469 A    
C26   C50   1.408417 A    
C9    C153  1.474338 S    
C6    C174  1.502992 S    
C84   C108  1.412200 A    
O18   C10   1.243894 A    
C110  N8    1.365006 A    
C83   C93   1.417965 A    
C148  C158  1.413089 A    
O15   Cu5   1.832266 S    
C134  C168  1.409458 A    
C122  C162  1.409459 A    
C19   C43   1.408382 A    
C88   C96   1.417959 A    
C59   C75   1.415638 A    
C114  O50   1.308435 A    
C18   C31   1.421948 A    
O5    C1    1.261676 A    
C99   N1    1.365008 A    
N27   O101  1.301021 A    
C147  N51   1.436660 S    
N50   O147  1.301104 A    
N9    O66   1.301455 A    
C122  N26   1.437909 S    
C107  N5    1.365005 A    
O32   Cu8   1.955784 S    
N1    C161  1.439777 S    
Cu9   O51   1.835227 S    
C139  N43   1.436660 S    
C56   H16   1.079198 S    
O22   Cu2   1.955784 S    
C23   C26   1.421955 A    
C117  O57   1.308434 A    
N55   O157  1.301073 A    
C180  C188  1.477170 S    
C43   C59   1.394513 A    
O21   C11   1.243785 A    
N45   O138  1.301158 A    
C22   C36   1.415280 A    
C125  C141  1.409125 A    
O23   Cu1   1.955784 S    
C67   N19   1.435000 S    
C190  C198  1.245997 T    
C4    C172  1.502995 S    
C33   C89   1.423287 A    
N49   O146  1.301151 A    
C28   C38   1.415279 A    
C79   C103  1.412254 A    
C26   C38   1.415279 A    
C105  O41   1.348454 S    
C142  C156  1.412965 A    
C30   C40   1.415280 A    
C111  O47   1.348457 S    
C50   C66   1.394553 A    
N4    C164  1.439777 S    
N19   O85   1.301197 A    
O3    Cu3   1.832271 S    
C124  C140  1.409110 A    
C101  N3    1.364961 A    
C61   N13   1.434962 S    
C199  C207  1.477245 S    
C127  C163  1.409477 A    
C54   C70   1.394513 A    
O8    C2    1.261673 A    
C54   H14   1.079197 S    
Cu11  O59   1.835227 S    
N10   O68   1.301454 A    
C119  O61   1.308445 A    
C77   C101  1.412254 A    
C196  C204  1.477250 S    
O28   Cu8   1.955784 S    
C178  C186  1.477170 S    
C145  C157  1.412966 A    
N48   O144  1.301150 A    
O30   Cu6   1.955784 S    
C143  C155  1.412829 A    
N3    C163  1.439721 S    
C27   C51   1.408382 A    
N20   O88   1.301494 A    
Cu11  O57   1.835226 S    
C73   C89   1.417962 A    
C128  N32   1.437903 S    
O4    Cu4   1.832272 S    
C114  O54   1.308444 A    
C208  C216  1.246021 T    
C65   N17   1.435000 S    
C14   C158  1.474668 S    
C133  C149  1.409109 A    
C130  C146  1.409101 A    
O11   Cu7   1.832271 S    
N30   O108  1.301213 A    
O16   C6    1.261678 A    
C194  C202  1.477250 S    
C118  O62   1.308439 A    
O1    C1    1.261669 A    
N6    C166  1.439850 S    
N38   O124  1.301213 A    
N34   O115  1.301038 A    
N35   O117  1.301023 A    
C39   C95   1.423287 A    
C40   C96   1.423292 A    
C144  N48   1.436660 S    
C24   C25   1.421943 A    
C186  C194  1.245994 T    
N32   O111  1.301023 A    
C126  C142  1.409110 A    
C55   H15   1.079197 S    
Cu11  Cu12  2.665949 S    
C15   C159  1.474338 S    
Cu9   Cu10  2.665949 S    
O31   Cu5   1.955784 S    
N24   O96   1.301452 A    
C182  C190  1.477170 S    
C17   C32   1.421943 A    
N28   O104  1.301212 A    
C72   C88   1.415634 A    
C175  C183  1.245888 T    
C19   C30   1.421948 A    
C128  C144  1.409115 A    
C132  C166  1.409429 A    
N33   O114  1.301213 A    
C62   N14   1.435002 S    
C47   H7    1.079226 S    
C24   C48   1.408384 A    
N42   O132  1.301150 A    
C64   C80   1.415638 A    
C112  N8    1.365007 A    
N52   O151  1.301109 A    
O2    C2    1.261672 A    
C20   C44   1.408380 A    
N13   O73   1.301204 A    
C118  O58   1.308440 A    
C70   N22   1.435000 S    
N17   O81   1.301196 A    
C21   C35   1.415299 A    
C56   C72   1.394513 A    
C1    C169  1.502997 S    
N56   O160  1.301149 A    
C22   C27   1.421949 A    
C104  O40   1.348455 S    
C131  C147  1.409110 A    
N14   O76   1.301454 A    
N25   O98   1.301214 A    
O14   C8    1.261678 A    
C106  O42   1.348476 S    
Cu12  O61   1.835226 S    
C20   C34   1.415284 A    
C132  C148  1.409101 A    
N27   O102  1.301214 A    
C60   N12   1.435003 S    
C130  C166  1.409429 A    
N39   O125  1.301026 A    
C207  C215  1.246020 T    
C125  C163  1.409477 A    
N40   O128  1.301213 A    
C62   C78   1.415635 A    
C74   C98   1.412240 A    
C7    C175  1.502988 S    
C127  C143  1.409125 A    
N44   O136  1.301149 A    
C37   C93   1.423287 A    
O10   Cu6   1.832269 S    
N37   O122  1.301211 A    
C107  O43   1.348454 S    
Cu5   Cu7   2.496339 S    
O25   Cu5   1.955784 S    
Cu6   Cu8   2.496331 S    
C113  O49   1.308439 A    
O27   Cu7   1.955784 S    
Cu10  O55   1.835226 S    
C145  N49   1.436658 S    
O7    Cu1   1.832266 S    
N54   O156  1.301152 A    
C116  O52   1.308433 A    
C138  N42   1.436659 S    
C138  C154  1.412961 A    
C119  O59   1.308436 A    
C131  N35   1.437911 S    
C135  N39   1.437908 S    
N31   O110  1.301216 A    
N19   O86   1.301454 A    
C198  C206  1.477250 S    
O19   C9    1.243897 A    
O24   C12   1.243891 A    
C65   C81   1.415639 A    
N23   O94   1.301451 A    
C108  N6    1.365025 A    
O28   C14   1.243999 A    
C109  N7    1.365012 A    
N29   O105  1.301017 A    
O12   Cu8   1.832272 S    
C85   C109  1.412243 A    
C69   C85   1.415639 A    
C110  O46   1.348453 S    
C83   C107  1.412246 A    
C34   C90   1.423287 A    
C71   C87   1.415637 A    
C81   C105  1.412240 A    
O29   C15   1.243895 A    
C57   C73   1.415636 A    
O9    C5    1.261675 A    
C13   C157  1.474333 S    
C68   N20   1.435059 S    
C45   H5    1.079229 S    
C75   C89   1.417964 A    
C126  N30   1.437906 S    
C86   C110  1.412242 A    
C117  C216  1.503266 S    
C23   C47   1.408355 A    
C80   C92   1.417964 A    
C177  C185  1.477166 S    
C136  C152  1.409110 A    
C63   C79   1.415656 A    
C125  N29   1.437906 S    
C78   C102  1.412242 A    
C49   H9    1.079196 S    
N12   O72   1.301452 A    
O4    C4    1.261672 A    
C51   H11   1.079198 S    
Cu12  O63   1.835226 S    
N10   O67   1.301201 A    
C152  C160  1.412963 A    
C136  C168  1.409462 A    
N51   O149  1.301075 A    
C55   C71   1.394518 A    
C149  N53   1.436658 S    
O20   Cu4   1.955784 S    
C21   C28   1.421957 A    
C171  C179  1.245885 T    
C41   C57   1.394513 A    
C121  C137  1.409110 A    
N22   O91   1.301196 A    
C108  O44   1.348480 S    
N50   O148  1.301152 A    
C109  O45   1.348453 S    
N9    O65   1.301194 A    
C87   C95   1.417965 A    
C112  O48   1.348456 S    
O9    Cu5   1.832268 S    
N16   O79   1.301198 A    
C127  N31   1.437907 S    
N36   O119  1.301040 A    
C81   C93   1.417965 A    
O1    Cu1   1.832268 S    
C197  C205  1.477245 S    
C76   C100  1.412246 A    
O20   C10   1.243892 A    
