data_mof_unit_62559.cif
_audit_creation_date              2012-12-10T19:57:48-0500
_audit_creation_method            fapswitch 2.2
_symmetry_space_group_name_H-M    P1
_symmetry_Int_Tables_number       1
_space_group_crystal_system       triclinic
_cell_length_a                    38.957154
_cell_length_b                    32.104053
_cell_length_c                    21.759254
_cell_angle_alpha                 90.609976
_cell_angle_beta                  124.556961
_cell_angle_gamma                 89.900925
_cell_volume                      22410.7912432

loop_
_atom_site_label
_atom_site_type_symbol
_atom_type_description
_atom_site_fract_x
_atom_site_fract_y
_atom_site_fract_z
_atom_type_partial_charge
C1    C     C_R   0.419295 0.499902 0.419258 0.910709
C2    C     C_R   0.580705 0.500095 0.580739 0.910529
C3    C     C_R   0.919295 0.999902 0.419258 0.910620
C4    C     C_R   0.080705 0.000095 0.580738 0.910420
C5    C     C_R   0.272118 0.532907 0.299939 -0.179857
C6    C     C_R   0.728192 0.529025 0.691775 -0.178966
C7    C     C_R   0.772137 0.031581 0.303258 -0.179836
C8    C     C_R   0.228148 0.026910 0.688334 -0.179082
C9    C     C_R   0.293311 0.499499 0.294269 0.166646
C10   C     C_R   0.706690 0.500234 0.706064 0.167429
C11   C     C_R   0.793311 0.999479 0.294258 0.166791
C12   C     C_R   0.206690 0.000241 0.706088 0.167627
C13   C     C_R   0.271251 0.466080 0.245638 -0.180617
C14   C     C_R   0.728440 0.471307 0.763315 -0.181531
C15   C     C_R   0.771231 0.967359 0.242292 -0.180761
C16   C     C_R   0.228485 0.973430 0.766814 -0.181505
C17   C     C_1   0.162205 0.499690 0.163414 -0.062458
C18   C     C_1   0.837793 0.499981 0.836683 -0.063057
C19   C     C_1   0.662205 0.999674 0.163406 -0.062310
C20   C     C_1   0.337793 0.999976 0.836698 -0.062882
C21   C     C_1   0.337731 0.499568 0.338279 -0.068764
C22   C     C_1   0.662269 0.500318 0.661903 -0.068697
C23   C     C_1   0.837731 0.999561 0.338274 -0.068758
C24   C     C_1   0.162269 0.000321 0.661912 -0.068667
C25   C     C_1   0.375041 0.499691 0.375272 -0.179377
C26   C     C_1   0.624959 0.500281 0.624806 -0.179338
C27   C     C_1   0.875041 0.999689 0.375271 -0.179410
C28   C     C_1   0.124959 0.000282 0.624808 -0.179356
C29   C     C_1   0.124893 0.499829 0.125763 -0.165481
C30   C     C_1   0.875106 0.499970 0.874256 -0.166439
C31   C     C_1   0.624893 0.999822 0.125761 -0.165268
C32   C     C_1   0.375106 0.999966 0.874260 -0.166184
C33   C     C_R   0.499904 0.419289 0.999885 0.910643
C34   C     C_R   0.999904 0.919289 0.999885 0.910539
C35   C     C_R   0.499631 0.498480 0.880388 0.936134
C36   C     C_R   0.500368 0.501513 0.119612 0.936117
C37   C     C_R   0.999631 0.998480 0.880387 0.936063
C38   C     C_R   0.000368 0.001513 0.119612 0.936054
C39   C     C_R   0.500097 0.580671 0.000136 0.911784
C40   C     C_R   0.000097 0.080671 0.000135 0.911738
C41   C     C_R   0.501526 0.500349 0.620700 0.935732
C42   C     C_R   0.498474 0.499636 0.379301 0.935858
C43   C     C_R   0.001526 0.000349 0.620700 0.935640
C44   C     C_R   0.998474 0.999637 0.379301 0.935775
C45   C     C_R   0.999996 0.419452 0.999695 0.908308
C46   C     C_R   0.499996 0.919452 0.999695 0.909383
C47   C     C_R   0.080635 0.499974 0.080880 0.911311
C48   C     C_R   0.919364 0.499967 0.919121 0.911174
C49   C     C_R   0.580635 0.999974 0.080880 0.911760
C50   C     C_R   0.419364 0.999966 0.919121 0.911725
C51   C     C_R   0.000005 0.580688 0.000299 0.901465
C52   C     C_R   0.500004 0.080688 0.000299 0.901430
C53   C     C_R   0.975072 0.728506 0.017841 -0.180827
C54   C     C_R   0.024662 0.728071 0.983849 -0.180864
C55   C     C_R   0.472508 0.228455 0.011656 -0.180842
C56   C     C_R   0.527253 0.228122 0.990145 -0.180918
C57   C     C_R   0.999919 0.706662 0.001012 0.167522
C58   C     C_R   0.499931 0.206663 0.001065 0.167728
C59   C     C_R   0.527150 0.271527 0.989795 -0.181464
C60   C     C_R   0.472406 0.271869 0.011308 -0.180256
C61   C     C_R   0.024557 0.771476 0.983503 -0.181501
C62   C     C_R   0.974969 0.771920 0.017497 -0.180400
C63   C     C_R   0.499719 0.293324 0.000353 0.168153
C64   C     C_R   0.999704 0.793324 0.000308 0.168380
C65   C     C_1   0.999938 0.662245 0.001072 -0.069712
C66   C     C_1   0.499944 0.162245 0.001095 -0.069631
C67   C     C_1   0.499661 0.337739 0.000045 -0.069442
C68   C     C_1   0.999654 0.837739 0.000024 -0.069438
C69   C     C_1   0.499713 0.375039 0.999885 -0.179756
C70   C     C_1   0.999711 0.875039 0.999879 -0.179796
C71   C     C_2   0.528094 0.475506 0.811484 -0.154061
C72   C     C_2   0.471884 0.524444 0.188495 -0.153595
C73   C     C_2   0.028094 0.975506 0.811484 -0.154196
C74   C     C_2   0.971883 0.024443 0.188495 -0.153646
C75   C     C_1   0.999969 0.624941 0.000873 -0.176684
C76   C     C_1   0.499971 0.124941 0.000879 -0.176650
C77   C     C_R   0.965346 0.270955 0.940254 -0.026914
C78   C     C_R   0.035861 0.271789 0.057119 -0.027174
C79   C     C_R   0.464414 0.770976 0.942520 -0.026891
C80   C     C_R   0.536684 0.771769 0.054695 -0.027143
C81   C     C_R   0.000577 0.293404 0.998596 0.084082
C82   C     C_R   0.500522 0.793404 0.998515 0.084181
C83   C     C_R   0.535957 0.728244 0.054037 -0.277273
C84   C     C_R   0.465090 0.727468 0.944013 -0.278471
C85   C     C_R   0.035137 0.228263 0.056392 -0.277342
C86   C     C_R   0.965991 0.227447 0.941767 -0.278444
C87   C     C_R   0.500494 0.706457 0.999277 0.180647
C88   C     C_R   0.000525 0.206456 0.999317 0.180735
C89   C     C_1   0.000351 0.338009 0.998840 0.120651
C90   C     C_1   0.500318 0.838009 0.998796 0.120832
C91   C     C_1   0.500425 0.662095 0.999753 -0.044943
C92   C     C_1   0.000437 0.162095 0.999769 -0.044985
C93   C     C_1   0.500306 0.624842 0.000026 -0.187505
C94   C     C_1   0.000309 0.124841 0.000029 -0.187558
C95   C     C_1   0.000162 0.375292 0.999173 -0.077155
C96   C     C_1   0.500148 0.875293 0.999155 -0.077138
C97   C     C_2   0.497763 0.494052 0.812760 -0.334093
C98   C     C_2   0.502232 0.505929 0.187237 -0.335672
C99   C     C_2   0.997763 0.994051 0.812760 -0.334124
C100  C     C_2   0.002232 0.005929 0.187237 -0.335828
C101  C     C_2   0.524456 0.471866 0.740998 -0.153948
C102  C     C_2   0.475516 0.528081 0.258974 -0.153387
C103  C     C_2   0.024456 0.971866 0.740998 -0.154085
C104  C     C_2   0.975515 0.028081 0.258973 -0.153457
C105  C     C_2   0.505941 0.502200 0.690877 -0.334094
C106  C     C_2   0.494050 0.497760 0.309117 -0.335779
C107  C     C_2   0.005941 0.002200 0.690877 -0.334108
C108  C     C_2   0.994050 0.997760 0.309117 -0.335919
C109  C     C_R   0.227822 0.466101 0.202419 -0.172792
C110  C     C_R   0.771864 0.471190 0.806490 -0.174143
C111  C     C_R   0.727802 0.967376 0.199069 -0.172585
C112  C     C_R   0.271908 0.973308 0.809994 -0.174042
C113  C     C_R   0.206629 0.499539 0.208009 0.166130
C114  C     C_R   0.793369 0.499994 0.792239 0.166601
C115  C     C_R   0.706628 0.999512 0.207991 0.166070
C116  C     C_R   0.293370 0.999991 0.792275 0.166533
C117  C     C_R   0.228690 0.532928 0.256719 -0.181964
C118  C     C_R   0.771623 0.528908 0.734959 -0.180778
C119  C     C_R   0.728709 0.031600 0.260034 -0.181960
C120  C     C_R   0.271579 0.026789 0.731525 -0.180611
H1    H     H_    0.554699 0.461699 0.861329 0.166160
H2    H     H_    0.445270 0.538234 0.138643 0.167254
H3    H     H_    0.054699 0.961700 0.861329 0.166102
H4    H     H_    0.945268 0.038231 0.138641 0.167265
H5    H     H_    0.955858 0.712014 0.031121 0.142540
H6    H     H_    0.043926 0.711242 0.970756 0.142016
H7    H     H_    0.451291 0.211923 0.020088 0.142401
H8    H     H_    0.548517 0.211333 0.981890 0.141828
H9    H     H_    0.437869 0.709725 0.901893 0.136112
H10   H     H_    0.563175 0.711097 0.096431 0.136758
H11   H     H_    0.939426 0.209687 0.897872 0.136011
H12   H     H_    0.061689 0.211132 0.100549 0.136651
H13   H     H_    0.468989 0.503524 0.761455 0.158443
H14   H     H_    0.531011 0.496471 0.238549 0.158661
H15   H     H_    0.968989 0.003523 0.761455 0.158374
H16   H     H_    0.031011 0.996473 0.238549 0.158600
H17   H     H_    0.538248 0.445262 0.731551 0.166184
H18   H     H_    0.461712 0.554680 0.268405 0.167434
H19   H     H_    0.038249 0.945263 0.731552 0.166122
H20   H     H_    0.961709 0.054679 0.268403 0.167447
H21   H     H_    0.496486 0.530966 0.703959 0.158510
H22   H     H_    0.503519 0.468997 0.296058 0.158522
H23   H     H_    0.996486 0.030965 0.703959 0.158460
H24   H     H_    0.003521 0.968998 0.296060 0.158467
H25   H     H_    0.287587 0.440163 0.241129 0.143981
H26   H     H_    0.711865 0.448963 0.774494 0.141939
H27   H     H_    0.787551 0.942455 0.235199 0.143846
H28   H     H_    0.211943 0.952730 0.780679 0.141746
H29   H     H_    0.210810 0.440206 0.164702 0.147652
H30   H     H_    0.788630 0.448772 0.850851 0.145421
H31   H     H_    0.710775 0.942491 0.158769 0.147659
H32   H     H_    0.288708 0.952532 0.857045 0.145393
H33   H     H_    0.212354 0.558881 0.261130 0.141781
H34   H     H_    0.788203 0.551271 0.723825 0.142635
H35   H     H_    0.712388 0.056543 0.267032 0.141856
H36   H     H_    0.288126 0.047506 0.717697 0.142759
H37   H     H_    0.289127 0.558836 0.337561 0.142465
H38   H     H_    0.711421 0.551458 0.647445 0.142925
H39   H     H_    0.789163 0.056504 0.343468 0.142329
H40   H     H_    0.211343 0.047701 0.641309 0.142732
H41   H     H_    0.451129 0.288664 0.019521 0.142580
H42   H     H_    0.548352 0.288054 0.981317 0.141113
H43   H     H_    0.955693 0.788755 0.030559 0.142362
H44   H     H_    0.043759 0.787963 0.970188 0.140938
O1    O     O_R   0.439010 0.534430 0.439020 -0.619715
O2    O     O_R   0.560990 0.534430 0.560980 -0.614596
O3    O     O_R   0.939010 0.034430 0.439020 -0.619671
O4    O     O_R   0.060990 0.034430 0.560980 -0.614528
O5    O     O_R   0.060990 0.500040 0.112010 -0.611499
O6    O     O_R   0.939010 0.500040 0.887990 -0.611552
O7    O     O_R   0.560990 0.000040 0.112010 -0.611931
O8    O     O_R   0.439010 0.000040 0.887990 -0.611960
O9    O     O_R   0.060980 0.499970 0.009870 -0.617025
O10   O     O_R   0.939020 0.499970 0.990130 -0.617435
O11   O     O_R   0.560980 0.999970 0.009870 -0.616834
O12   O     O_R   0.439020 0.999970 0.990130 -0.617276
O13   O     O_R   0.000010 0.561020 0.051000 -0.617735
O14   O     O_R   0.999990 0.561020 0.949000 -0.617349
O15   O     O_R   0.500010 0.061020 0.051000 -0.617683
O16   O     O_R   0.499990 0.061020 0.949000 -0.617267
O17   O     O_R   0.439010 0.465570 0.438980 -0.614790
O18   O     O_R   0.560990 0.465570 0.561020 -0.619524
O19   O     O_R   0.939010 0.965570 0.438980 -0.614734
O20   O     O_R   0.060990 0.965570 0.561020 -0.619442
O21   O     O_R   0.500010 0.534430 0.590460 -0.622743
O22   O     O_R   0.499990 0.534430 0.409540 -0.616266
O23   O     O_R   0.000010 0.034430 0.590460 -0.622771
O24   O     O_R   0.999990 0.034430 0.409540 -0.616256
O25   O     O_R   0.500010 0.465570 0.590420 -0.616294
O26   O     O_R   0.499990 0.465570 0.409580 -0.622971
O27   O     O_R   0.000010 0.965570 0.590420 -0.616289
O28   O     O_R   0.999990 0.965570 0.409580 -0.623018
O29   O     O_R   0.534430 0.439010 0.034350 -0.619680
O30   O     O_R   0.465570 0.439010 0.965650 -0.614634
O31   O     O_R   0.034430 0.939010 0.034350 -0.619610
O32   O     O_R   0.965570 0.939010 0.965650 -0.614556
O33   O     O_R   0.534420 0.500000 0.943920 -0.616476
O34   O     O_R   0.465580 0.500000 0.056080 -0.616584
O35   O     O_R   0.034420 0.000000 0.943920 -0.616456
O36   O     O_R   0.965580 1.000000 0.056080 -0.616570
O37   O     O_R   0.465560 0.500000 0.875080 -0.622969
O38   O     O_R   0.534440 0.500000 0.124920 -0.623072
O39   O     O_R   0.965560 1.000000 0.875080 -0.623032
O40   O     O_R   0.034440 0.000000 0.124920 -0.623140
O41   O     O_R   0.534430 0.560990 0.034430 -0.615180
O42   O     O_R   0.465570 0.560990 0.965570 -0.620057
O43   O     O_R   0.034430 0.060990 0.034430 -0.615156
O44   O     O_R   0.965570 0.060990 0.965570 -0.620037
O45   O     O_R   1.000000 0.439050 0.051090 -0.611149
O46   O     O_R   1.000000 0.439050 0.948910 -0.609564
O47   O     O_R   0.500000 0.939050 0.051090 -0.611776
O48   O     O_R   0.500000 0.939050 0.948910 -0.610146
Zn1   Zn    Zn3+2 0.500000 0.545980 0.500000 0.965316
Zn2   Zn    Zn3+2 0.000000 0.045980 0.500000 0.965362
Zn3   Zn    Zn3+2 0.500000 0.454020 0.500000 0.964186
Zn4   Zn    Zn3+2 0.000000 0.954020 0.500000 0.964185
Zn5   Zn    Zn3+2 0.545980 0.500000 0.045940 0.964164
Zn6   Zn    Zn3+2 0.454020 0.500000 0.954060 0.964520
Zn7   Zn    Zn3+2 0.045980 1.000000 0.045940 0.964092
Zn8   Zn    Zn3+2 0.954020 1.000000 0.954060 0.964470
Zn9   Zn    Zn3+2 0.000010 0.500050 0.068180 0.985813
Zn10  Zn    Zn3+2 0.999990 0.500050 0.931820 0.987224
Zn11  Zn    Zn3+2 0.500010 0.000050 0.068180 0.985271
Zn12  Zn    Zn3+2 0.499990 0.000050 0.931820 0.986724
C121  C     C_2   0.927064 0.290794 0.876506 0.388554
H45   H     H_    0.901281 0.271288 0.834901 0.066410
O49   O     O_2   0.923474 0.328488 0.868873 -0.576465
C122  C     C_2   0.074233 0.292536 0.120380 0.389162
H46   H     H_    0.099458 0.273640 0.163564 0.066862
O50   O     O_2   0.078619 0.330315 0.125622 -0.577210
C123  C     C_2   0.425167 0.790836 0.881303 0.388737
H47   H     H_    0.398784 0.771344 0.841474 0.066476
O51   O     O_2   0.421424 0.828531 0.873820 -0.576921
C124  C     C_2   0.576000 0.792493 0.115390 0.389320
H48   H     H_    0.601909 0.773583 0.156950 0.066913
O52   O     O_2   0.580415 0.830268 0.120255 -0.577662

loop_
_geom_bond_atom_site_label_1
_geom_bond_atom_site_label_2
_ccdc_geom_bond_type
C34   O31   A    
O44   Zn8   S    
C14   C110  A    
C74   H4    S    
C40   O44   A    
C77   C121  S    
O46   Zn10  S    
O12   Zn11  S    
C87   C91   S    
C61   H44   S    
O45   Zn9   S    
O29   Zn5   S    
C83   C87   A    
C84   C87   A    
C13   H25   S    
C19   C31   T    
C54   C57   A    
C18   C114  S    
O31   Zn7   S    
C17   C113  S    
O30   Zn6   S    
C77   C81   A    
C72   C98   D    
C10   C22   S    
C7    C11   A    
C54   H6    S    
C15   C111  A    
O41   Zn5   S    
C12   C16   A    
C41   C105  S    
O39   Zn8   S    
C29   C47   S    
C60   C63   A    
C64   C68   S    
O38   Zn5   S    
C30   C48   S    
C51   C75   S    
O37   Zn6   S    
C85   H12   S    
C102  H18   S    
C79   C84   A    
C86   C88   A    
C86   H11   S    
O20   Zn4   S    
C112  C116  A    
C7    H39   S    
C46   O47   A    
C39   O42   A    
C84   H9    S    
C120  H36   S    
C17   C29   T    
C50   O12   A    
C124  O52   D    
C2    O18   A    
O4    Zn2   S    
C9    C13   A    
C39   C93   S    
C13   C109  A    
O25   Zn3   S    
C47   O5    A    
O6    Zn10  S    
C11   C15   A    
C58   C66   S    
O5    Zn9   S    
C88   C92   S    
O21   Zn1   S    
C73   H3    S    
C62   C64   A    
O11   Zn12  S    
C112  H32   S    
C118  H34   S    
C18   C30   T    
C119  H35   S    
C23   C27   T    
C51   O14   A    
O26   Zn3   S    
C2    O2    A    
C109  C113  A    
C81   C89   S    
O32   Zn8   S    
C37   O35   A    
C71   C101  S    
C40   O43   A    
C43   O27   A    
C38   O40   A    
C55   C60   A    
C1    C25   S    
O34   Zn6   S    
O10   Zn9   S    
C36   O38   A    
C31   C49   S    
C80   C83   A    
O33   Zn5   S    
O9    Zn10  S    
C122  O50   D    
C122  H46   S    
C6    H38   S    
C20   C32   T    
C106  H22   S    
C48   O10   A    
C44   C108  S    
C101  C105  D    
C97   H13   S    
C99   H15   S    
C5    H37   S    
C63   C67   S    
C101  H17   S    
C41   O25   A    
O40   Zn7   S    
C3    O3    A    
C7    C119  A    
O35   Zn7   S    
C83   H10   S    
C38   C100  S    
C21   C25   T    
C10   C14   A    
C40   C94   S    
C20   C116  S    
C53   C57   A    
C35   O37   A    
C74   C100  D    
C52   C76   S    
O42   Zn6   S    
C116  C120  A    
C5    C117  A    
C67   C69   T    
C89   C95   T    
C61   C64   A    
C109  H29   S    
C52   O16   A    
C5    C9    A    
O8    Zn12  S    
C103  H19   S    
O27   Zn4   S    
C91   C93   T    
C71   C97   D    
C53   C62   A    
C42   O26   A    
O7    Zn11  S    
C62   H43   S    
C16   C112  A    
C19   C115  S    
C8    C12   A    
C66   C76   T    
C92   C94   T    
C60   H41   S    
C37   O39   A    
C41   O21   A    
C2    C26   S    
C43   C107  S    
C82   C90   S    
C4    O20   A    
C9    C21   S    
C42   C106  S    
C79   C123  S    
C114  C118  A    
C53   H5    S    
C44   O24   A    
C48   O6    A    
C78   C85   A    
O1    Zn1   S    
C108  H24   S    
C55   H7    S    
C33   O30   A    
C115  C119  A    
C123  O51   D    
C117  H33   S    
O18   Zn3   S    
O36   Zn8   S    
C113  C117  A    
C59   C63   A    
C55   C58   A    
C124  H48   S    
C107  H23   S    
C8    H40   S    
C110  C114  A    
C104  C108  D    
C35   O33   A    
C74   C104  S    
O48   Zn12  S    
C85   C88   A    
C34   O32   A    
O19   Zn4   S    
C73   C99   D    
C8    C120  A    
C34   C70   S    
C4    C28   S    
C1    O17   A    
C121  H45   S    
C1    O1    A    
C4    O4    A    
C49   O7    A    
C71   H1    S    
C32   C50   S    
C24   C28   T    
C57   C65   S    
O22   Zn1   S    
C110  H30   S    
C80   C124  S    
C111  H31   S    
C43   O23   A    
C77   C86   A    
C79   C82   A    
C50   O8    A    
O24   Zn2   S    
O17   Zn3   S    
C90   C96   T    
C54   C61   A    
C33   C69   S    
C78   C122  S    
C98   H14   S    
O43   Zn7   S    
C45   O46   A    
C65   C75   T    
C56   C59   A    
C72   H2    S    
C16   H28   S    
C103  C107  D    
C3    C27   S    
C52   O15   A    
C59   H42   S    
C51   O13   A    
C44   O28   A    
C15   H27   S    
C78   C81   A    
C42   O22   A    
C72   C102  S    
C46   O48   A    
C39   O41   A    
C11   C23   S    
C121  O49   D    
C80   C82   A    
C56   C58   A    
O16   Zn12  S    
C38   O36   A    
C56   H8    S    
C12   C24   S    
C36   O34   A    
C105  H21   S    
C45   O45   A    
O23   Zn2   S    
C6    C10   A    
O2    Zn1   S    
C33   O29   A    
C104  H20   S    
C73   C103  S    
C46   C96   S    
C111  C115  A    
C37   C99   S    
C22   C26   T    
C102  C106  D    
O15   Zn11  S    
C123  H47   S    
C68   C70   T    
C14   H26   S    
O14   Zn10  S    
C36   C98   S    
C47   O9    A    
O3    Zn2   S    
O13   Zn9   S    
C35   C97   S    
C3    O19   A    
O28   Zn4   S    
O47   Zn11  S    
C100  H16   S    
C6    C118  A    
C49   O11   A    
C45   C95   S    
