data_mof_unit_25638.cif
_audit_creation_date              2012-12-10T17:47:44-0500
_audit_creation_method            fapswitch 2.2
_symmetry_space_group_name_H-M    P1
_symmetry_Int_Tables_number       1
_space_group_crystal_system       triclinic
_cell_length_a                    10.645892
_cell_length_b                    10.715791
_cell_length_c                    9.975887
_cell_angle_alpha                 88.936296
_cell_angle_beta                  89.261558
_cell_angle_gamma                 92.66616
_cell_volume                      1136.50519688

loop_
_atom_site_label
_atom_site_type_symbol
_atom_type_description
_atom_site_fract_x
_atom_site_fract_y
_atom_site_fract_z
_atom_type_partial_charge
C1    C     C_R   0.499473 0.259676 0.503018 0.887905
C2    C     C_R   0.438880 0.054959 0.620868 0.111344
C3    C     C_R   0.496684 0.125466 0.511323 -0.103210
C4    C     C_R   0.258020 0.502863 0.500232 0.937071
C5    C     C_R   0.545072 0.066271 0.399906 -0.230011
C6    C     C_R   0.538147 0.938974 0.394288 -0.207122
C7    C     C_R   0.476370 0.869544 0.496539 -0.087808
C8    C     C_R   0.298324 0.367547 0.136948 0.203841
C9    C     C_R   0.185124 0.352834 0.067440 -0.219987
C10   C     C_R   0.189829 0.348017 0.929778 -0.256288
C11   C     C_R   0.301938 0.379438 0.862995 -0.177038
C12   C     C_3   0.878256 0.507738 0.498500 0.023040
C13   C     C_R   0.402245 0.440005 0.929244 0.121035
C14   C     C_R   0.401946 0.437002 0.073200 0.141639
C15   C     C_R   0.593155 0.558938 0.068909 -0.131247
C16   C     C_R   0.491644 0.738432 0.498808 0.873253
C17   C     C_R   0.593394 0.558395 0.926288 -0.110820
C18   C     C_R   0.741795 0.502997 0.499194 0.897911
C19   C     C_3   0.064097 0.382988 0.562753 0.383571
C20   C     C_3   0.920270 0.381775 0.557599 -0.506800
C21   C     C_3   0.077754 0.619215 0.580843 0.382542
C22   C     C_3   0.073286 0.520393 0.353935 -0.334017
C23   C     C_3   0.931962 0.616727 0.587104 -0.071717
C24   C     C_3   0.121176 0.506406 0.499700 -0.069336
C25   C     C_3   0.879814 0.745456 0.552787 -0.742960
C26   C     C_3   0.318598 0.252404 0.220732 -0.741040
C27   C     C_3   0.930851 0.522919 0.352956 -0.410735
C28   C     C_R   0.404916 0.104332 0.746902 -0.177793
C29   C     C_R   0.330738 0.034604 0.839871 -0.154053
C30   C     C_R   0.291969 0.912783 0.812182 -0.140292
C31   C     C_R   0.335436 0.858120 0.696329 -0.067047
C32   C     C_R   0.415483 0.926600 0.603811 0.103468
F1    F     F_    0.127591 0.729507 0.522046 -0.679659
F2    F     F_    0.107301 0.280214 0.496764 -0.678566
H1    H     H_    0.092764 0.375925 0.668508 0.070791
H2    H     H_    0.102336 0.309243 0.116474 0.162522
H3    H     H_    0.110659 0.306168 0.877573 0.162477
H4    H     H_    0.310160 0.348876 0.762474 0.212712
H5    H     H_    0.669868 0.606606 0.871212 0.143775
H6    H     H_    0.884166 0.303150 0.495161 0.224290
H7    H     H_    0.880906 0.365146 0.660716 0.148635
H8    H     H_    0.113623 0.613734 0.685042 0.051505
H9    H     H_    0.902996 0.595311 0.693151 0.118230
H10   H     H_    0.114956 0.606681 0.303889 0.219019
H11   H     H_    0.101433 0.439564 0.295584 0.211142
H12   H     H_    0.901899 0.611498 0.305369 0.184885
H13   H     H_    0.893460 0.445278 0.289823 0.189074
H14   H     H_    0.776059 0.743208 0.565764 0.201484
H15   H     H_    0.919744 0.816583 0.621922 0.257794
H16   H     H_    0.904225 0.775888 0.448440 0.264216
H17   H     H_    0.257244 0.170891 0.190689 0.207383
H18   H     H_    0.414598 0.219971 0.202772 0.227622
H19   H     H_    0.293159 0.268028 0.326699 0.293417
H20   H     H_    0.592360 0.118562 0.318359 0.162865
H21   H     H_    0.441103 0.191982 0.782568 0.171175
H22   H     H_    0.304520 0.075032 0.934320 0.152184
H23   H     H_    0.232594 0.858883 0.883031 0.137502
H24   H     H_    0.305989 0.761876 0.680552 0.185450
H25   H     H_    0.584328 0.894652 0.311472 0.164315
H26   H     H_    0.669325 0.607573 0.120022 0.138455
N1    N     N_R   0.498810 0.498800 0.142780 -0.117394
N2    N     N_R   0.498760 0.498720 0.857170 -0.120128
O1    O     O_R   0.500000 0.316780 0.614690 -0.648653
O2    O     O_R   0.499990 0.316750 0.385360 -0.626866
O3    O     O_R   0.314800 0.499990 0.614670 -0.673863
O4    O     O_R   0.314790 0.499970 0.385330 -0.611930
O5    O     O_R   0.500010 0.683250 0.614640 -0.634154
O6    O     O_R   0.500000 0.683220 0.385310 -0.611947
O7    O     O_R   0.685210 0.500030 0.614670 -0.628690
O8    O     O_R   0.685200 0.500010 0.385330 -0.630424
Zn1   Zn    Zn3+2 0.500010 0.500020 0.653130 0.924392
Zn2   Zn    Zn3+2 0.499990 0.499980 0.346870 0.947666

loop_
_geom_bond_atom_site_label_1
_geom_bond_atom_site_label_2
_ccdc_geom_bond_type
C18   O8    A    
C11   H4    S    
O8    Zn2   S    
C1    O2    A    
C29   C30   A    
C16   O6    A    
C29   H22   S    
C26   H18   S    
C17   N2    A    
C9    H2    S    
C8    C26   S    
C9    C10   A    
C19   C20   S    
C25   H14   S    
C27   H12   S    
O6    Zn2   S    
C6    H25   S    
C12   C20   S    
C18   O7    A    
C21   C23   S    
C2    C3    A    
C15   N1    A    
O7    Zn1   S    
C16   O5    A    
C19   H1    S    
C13   C14   A    
C4    O4    A    
O4    Zn2   S    
C11   C13   A    
C12   C23   S    
C6    C7    A    
C10   H3    S    
C4    C24   S    
C5    C6    A    
C1    O1    A    
C31   H24   S    
C28   C29   A    
C28   H21   S    
O1    Zn1   S    
N2    Zn1   S    
C20   H7    S    
O5    Zn1   S    
C22   C27   S    
O2    Zn2   S    
C30   C31   A    
C20   H6    S    
C25   H15   S    
C21   C24   S    
C21   F1    S    
C10   C11   A    
C12   C27   S    
C12   C18   S    
C21   H8    S    
C26   H19   S    
C5    H20   S    
C23   C25   S    
C23   H9    S    
N1    Zn2   S    
C8    C9    A    
C2    C32   A    
C22   H11   S    
C17   H5    S    
C22   C24   S    
C27   H13   S    
C15   C17   A    
C4    O3    A    
C7    C16   S    
C2    C28   A    
C7    C32   A    
C8    C14   A    
C3    C5    A    
C26   H17   S    
C14   N1    A    
C19   C24   S    
C25   H16   S    
C15   H26   S    
C22   H10   S    
C13   N2    A    
C31   C32   A    
O3    Zn1   S    
C30   H23   S    
C1    C3    S    
C19   F2    S    
