data_mof_unit_56393.cif
_audit_creation_date              2012-12-10T20:34:51-0500
_audit_creation_method            fapswitch 2.2
_symmetry_space_group_name_H-M    P1
_symmetry_Int_Tables_number       1
_space_group_crystal_system       triclinic
_cell_length_a                    10.64481
_cell_length_b                    10.707537
_cell_length_c                    9.882165
_cell_angle_alpha                 89.023784
_cell_angle_beta                  89.148574
_cell_angle_gamma                 90.808903
_cell_volume                      1125.9619962

loop_
_atom_site_label
_atom_site_type_symbol
_atom_type_description
_atom_site_fract_x
_atom_site_fract_y
_atom_site_fract_z
_atom_type_partial_charge
C1    C     C_R   0.502283 0.260245 0.500903 0.907558
C2    C     C_3   0.878814 0.510061 0.499322 0.021149
C3    C     C_3   0.924883 0.570197 0.632398 -0.447763
C4    C     C_3   0.929129 0.593688 0.380328 -0.413341
C5    C     C_R   0.523149 0.060635 0.621219 0.037336
C6    C     C_R   0.520015 0.129469 0.501023 -0.139161
C7    C     C_R   0.545089 0.070404 0.378219 -0.274731
C8    C     C_R   0.545783 0.941100 0.373638 0.188376
C9    C     C_R   0.525395 0.872055 0.495901 -0.126788
C10   C     C_R   0.529883 0.934210 0.618668 0.034779
C11   C     C_3   0.458972 0.917561 0.749659 -0.447573
C12   C     C_R   0.258416 0.508965 0.500714 0.809894
C13   C     C_3   0.450258 0.059750 0.752600 0.040001
C14   C     C_R   0.413219 0.430546 0.073935 0.177495
C15   C     C_R   0.593465 0.560387 0.068150 0.255496
C16   C     C_R   0.592563 0.558243 0.923551 -0.165937
C17   C     C_R   0.413523 0.430281 0.931387 0.206714
C18   C     C_3   0.275288 0.446701 0.927260 -0.522861
C19   C     C_3   0.274802 0.448055 0.080196 -0.511985
C20   C     C_R   0.505190 0.740076 0.498542 0.854184
C21   C     C_R   0.742161 0.505381 0.499390 0.881027
C22   C     C_3   0.073456 0.379654 0.492576 -0.541331
C23   C     C_3   0.929079 0.374868 0.491493 0.056871
C24   C     C_3   0.069440 0.574831 0.635896 0.085605
C25   C     C_3   0.073870 0.592847 0.375490 0.087410
C26   C     C_3   0.121825 0.516838 0.501701 0.000648
H1    H     H_    0.106804 0.323576 0.580696 0.164927
H2    H     H_    0.893159 0.689726 0.394005 0.186109
H3    H     H_    0.884854 0.665427 0.639540 0.198698
H4    H     H_    0.556072 0.123175 0.284087 0.178911
H5    H     H_    0.367620 0.867662 0.737228 0.218949
H6    H     H_    0.519164 0.878824 0.830653 0.169138
H7    H     H_    0.502334 0.104668 0.836120 0.138981
H8    H     H_    0.113100 0.335635 0.400213 0.191502
H9    H     H_    0.663565 0.606461 0.862686 0.169880
H10   H     H_    0.250887 0.538091 0.881610 0.216156
H11   H     H_    0.225401 0.364752 0.885011 0.201362
H12   H     H_    0.250265 0.540949 0.120252 0.211931
H13   H     H_    0.224286 0.366756 0.128045 0.197349
H14   H     H_    0.895136 0.323187 0.584346 0.145172
H15   H     H_    0.099144 0.515593 0.722760 0.140367
H16   H     H_    0.889989 0.515669 0.722672 0.158514
H17   H     H_    0.102013 0.542446 0.282888 0.133373
H18   H     H_    0.893688 0.560618 0.281919 0.191410
N1    N     N_R   0.499150 0.499140 0.142800 -0.148097
N2    N     N_R   0.499150 0.499180 0.857150 -0.128658
O1    O     O_R   0.500020 0.316790 0.614690 -0.626395
O2    O     O_R   0.500000 0.316760 0.385350 -0.609113
O3    O     O_R   0.314800 0.500000 0.614670 -0.627395
O4    O     O_R   0.314790 0.499960 0.385330 -0.626623
O5    O     O_R   0.500000 0.683240 0.614650 -0.622915
O6    O     O_R   0.499980 0.683210 0.385310 -0.621070
O7    O     O_R   0.685210 0.500040 0.614670 -0.640043
O8    O     O_R   0.685200 0.500000 0.385330 -0.616022
Zn1   Zn    Zn3+2 0.500010 0.500020 0.653130 0.921095
Zn2   Zn    Zn3+2 0.499990 0.499980 0.346870 0.939141
N3    N     N_2   0.115075 0.702755 0.655159 -0.262751
H19   H     H_    0.207117 0.719371 0.625660 0.229031
C27   C     C_3   0.088131 0.758766 0.784809 -0.830965
H20   H     H_    0.097564 0.861725 0.773877 0.260632
H21   H     H_    0.155676 0.726368 0.861662 0.221677
H22   H     H_    0.991295 0.736741 0.821391 0.245838
N4    N     N_2   0.563801 0.883358 0.246381 -0.295425
H23   H     H_    0.639483 0.920656 0.192354 0.217850
C28   C     C_3   0.452479 0.876679 0.164387 -0.767707
H24   H     H_    0.422299 0.971916 0.133860 0.223628
H25   H     H_    0.375047 0.827890 0.220885 0.259819
H26   H     H_    0.473125 0.822831 0.071913 0.232204
N5    N     N_2   0.321570 0.101156 0.739514 -0.272513
H27   H     H_    0.313147 0.187743 0.693871 0.243640
C29   C     C_3   0.247315 0.089846 0.863102 -0.841068
H28   H     H_    0.149103 0.117435 0.842896 0.236127
H29   H     H_    0.286672 0.151499 0.941736 0.235158
H30   H     H_    0.246193 0.991953 0.902072 0.256451
N6    N     N_2   0.690304 0.627197 0.136010 -0.281214
H31   H     H_    0.663177 0.666718 0.225017 0.296063
C30   C     C_3   0.779861 0.703673 0.058667 -0.929318
H32   H     H_    0.837877 0.644279 0.992029 0.252904
H33   H     H_    0.843815 0.751925 0.128382 0.247867
H34   H     H_    0.730534 0.776092 0.998550 0.246846
N7    N     N_2   0.883091 0.310979 0.372293 -0.281769
H35   H     H_    0.918352 0.344933 0.280899 0.236114
C31   C     C_3   0.878244 0.175954 0.381351 -0.803797
H36   H     H_    0.834425 0.138353 0.288978 0.235621
H37   H     H_    0.820195 0.144598 0.470238 0.246284
H38   H     H_    0.974522 0.138209 0.389956 0.243895
N8    N     N_2   0.127319 0.719596 0.367383 -0.273835
H39   H     H_    0.222431 0.724130 0.384737 0.221937
C32   C     C_3   0.095715 0.794997 0.249855 -0.825690
H40   H     H_    0.157359 0.879525 0.243943 0.236996
H41   H     H_    0.998262 0.828710 0.259242 0.246770
H42   H     H_    0.108194 0.741474 0.155303 0.232996

loop_
_geom_bond_atom_site_label_1
_geom_bond_atom_site_label_2
_ccdc_geom_bond_type
C8    C9    A    
C15   N6    S    
N8    H39   S    
N4    C28   S    
C3    H16   S    
C25   H17   S    
C12   O3    A    
C7    C8    A    
C30   H32   S    
C18   H11   S    
C24   C26   S    
C20   O5    A    
C16   H9    S    
C5    C6    A    
N3    C27   S    
C15   C16   A    
C25   N8    S    
N5    C29   S    
C18   C19   S    
C3    H3    S    
N7    C31   S    
N1    Zn2   S    
C24   N3    S    
C28   H25   S    
N2    Zn1   S    
C32   H41   S    
C9    C10   A    
C5    C13   S    
C30   H33   S    
C11   H5    S    
C27   H20   S    
C7    H4    S    
C24   H15   S    
C14   C17   A    
C3    C24   S    
C4    H2    S    
N7    H35   S    
C14   N1    A    
O7    Zn1   S    
C22   H8    S    
O8    Zn2   S    
C27   H21   S    
C1    C6    S    
C17   N2    A    
C16   N2    A    
C29   H29   S    
C23   H14   S    
C1    O1    A    
C4    H18   S    
C25   C26   S    
O3    Zn1   S    
O4    Zn2   S    
C12   C26   S    
C2    C4    S    
N6    H31   S    
C13   H7    S    
C19   H12   S    
C9    C20   S    
C31   H36   S    
C28   H26   S    
C2    C21   S    
C17   C18   S    
C32   H42   S    
N6    C30   S    
C19   H13   S    
C31   H37   S    
C11   H6    S    
C22   H1    S    
N8    C32   S    
C15   N1    A    
C4    C25   S    
O1    Zn1   S    
C30   H34   S    
O2    Zn2   S    
C27   H22   S    
C23   N7    S    
C14   C19   S    
C29   H30   S    
C12   O4    A    
C1    O2    A    
C6    C7    A    
C2    C3    S    
C5    C10   A    
C20   O6    A    
C21   O7    A    
C11   C13   S    
N3    H19   S    
C21   O8    A    
C13   N5    S    
O5    Zn1   S    
N5    H27   S    
C10   C11   S    
C8    N4    S    
N4    H23   S    
C29   H28   S    
C31   H38   S    
C28   H24   S    
C22   C26   S    
C2    C23   S    
C22   C23   S    
C32   H40   S    
C18   H10   S    
O6    Zn2   S    
