data_mof_unit_36442.cif
_audit_creation_date              2012-12-10T17:56:44-0500
_audit_creation_method            fapswitch 2.2
_symmetry_space_group_name_H-M    P1
_symmetry_Int_Tables_number       1
_space_group_crystal_system       triclinic
_cell_length_a                    10.853612
_cell_length_b                    9.522585
_cell_length_c                    10.877141
_cell_angle_alpha                 90.695506
_cell_angle_beta                  91.821267
_cell_angle_gamma                 90.218138
_cell_volume                      1123.54026581

loop_
_atom_site_label
_atom_site_type_symbol
_atom_type_description
_atom_site_fract_x
_atom_site_fract_y
_atom_site_fract_z
_atom_type_partial_charge
C1    C     C_R   0.262233 0.500362 0.505868 0.850603
C2    C     C_R   0.737763 0.500644 0.492717 0.817995
C3    C     C_R   0.938111 0.632481 0.493350 0.225672
C4    C     C_R   0.063192 0.627887 0.531750 0.257833
C5    C     C_R   0.424590 0.074420 0.420700 -0.064704
C6    C     C_R   0.576500 0.077163 0.578210 -0.065615
C7    C     C_R   0.424387 0.926346 0.419307 0.200830
C8    C     C_R   0.577779 0.929140 0.578425 0.233114
C9    C     C_R   0.510606 0.499856 0.263003 0.806757
C10   C     C_R   0.493433 0.501817 0.738069 0.817226
C11   C     C_R   0.587426 0.752657 0.124021 -0.121540
C12   C     C_R   0.473620 0.769728 0.893020 -0.112868
C13   C     C_R   0.572375 0.883066 0.069164 -0.108391
C14   C     C_R   0.509052 0.892132 0.956712 -0.112979
C15   C     C_R   0.500055 0.635461 0.941801 0.110835
C16   C     C_R   0.538239 0.629425 0.066464 0.106408
C17   C     C_R   0.522646 0.501449 0.129410 -0.116458
C18   C     C_R   0.489451 0.507078 0.873124 -0.116622
C19   C     C_R   0.500709 0.376902 0.062594 -0.200372
C20   C     C_R   0.490037 0.379118 0.935578 -0.199770
C21   C     C_R   0.063336 0.377685 0.478805 -0.236758
C22   C     C_R   0.936011 0.376958 0.476472 -0.218684
C23   C     C_R   0.872175 0.503736 0.485054 -0.148013
C24   C     C_R   0.127976 0.502195 0.507097 -0.097552
Cu1   Cu    Cu3+1 0.500000 0.640660 0.500000 0.983072
Cu2   Cu    Cu3+1 0.500000 0.359340 0.500000 0.949263
H1    H     H_    0.491427 0.277194 0.108422 0.164534
H2    H     H_    0.479642 0.279955 0.886400 0.161382
H3    H     H_    0.637857 0.749770 0.211243 0.141795
H4    H     H_    0.423635 0.783478 0.807419 0.151047
H5    H     H_    0.606144 0.977313 0.115846 0.133653
H6    H     H_    0.490854 0.993823 0.916699 0.130065
H7    H     H_    0.110974 0.279581 0.463282 0.174393
H8    H     H_    0.887729 0.277700 0.464490 0.173844
H9    H     H_    0.364609 0.131016 0.357462 0.154093
H10   H     H_    0.637874 0.135901 0.640192 0.156791
N1    N     N_R   0.500000 0.852070 0.500000 -0.199409
N2    N     N_R   0.500000 0.147940 0.500000 -0.188236
O1    O     O_R   0.319640 0.618740 0.499990 -0.552966
O2    O     O_R   0.680360 0.618740 0.500010 -0.549708
O3    O     O_R   0.319620 0.381170 0.499990 -0.594750
O4    O     O_R   0.680380 0.381170 0.500010 -0.587168
O5    O     O_R   0.500000 0.618810 0.319650 -0.563239
O6    O     O_R   0.500000 0.618810 0.680350 -0.577125
O7    O     O_R   0.499970 0.381240 0.319640 -0.588765
O8    O     O_R   0.500030 0.381240 0.680360 -0.585314
N3    N     N_2   0.878611 0.760340 0.455761 -0.387877
H11   H     H_    0.820333 0.746741 0.379716 0.253108
C25   C     C_3   0.945765 0.891310 0.450281 -0.651044
H12   H     H_    0.885047 0.972814 0.408672 0.212200
H13   H     H_    0.971081 0.929403 0.544149 0.256508
H14   H     H_    0.026906 0.879400 0.391641 0.238020
N4    N     N_2   0.102269 0.712276 0.635823 -0.437208
H15   H     H_    0.033285 0.734850 0.696097 0.274754
C26   C     C_3   0.186268 0.828624 0.619805 -0.631432
H16   H     H_    0.152823 0.924033 0.667947 0.199875
H17   H     H_    0.195996 0.853607 0.522045 0.248895
H18   H     H_    0.277506 0.802631 0.660787 0.244061
I1    I     I_    0.302245 0.835186 0.283292 -0.420666
I2    I     I_    0.710945 0.842131 0.702357 -0.393391

loop_
_geom_bond_atom_site_label_1
_geom_bond_atom_site_label_2
_ccdc_geom_bond_type
C10   O8    A    
C15   C18   A    
C26   H16   S    
C6    N2    A    
C9    O7    A    
C13   C14   A    
C4    N4    S    
C19   H1    S    
C11   C16   A    
C3    C23   A    
C19   C20   A    
C12   C15   A    
C12   C14   A    
C25   H14   S    
Cu1   N1    S    
Cu1   O5    S    
N4    C26   S    
C7    N1    A    
N3    C25   S    
N4    H15   S    
C8    I2    S    
C11   H3    S    
C1    O3    A    
C11   C13   A    
C9    C17   S    
C26   H18   S    
C2    O4    A    
C4    C24   A    
C15   C16   A    
C5    H9    S    
Cu1   O6    S    
C7    I1    S    
C17   C19   A    
C10   C18   S    
C18   C20   A    
C26   H17   S    
Cu1   O2    S    
C22   H8    S    
C9    O5    A    
C21   H7    S    
C8    N1    A    
C1    O1    A    
C10   O6    A    
C3    C4    A    
C2    O2    A    
C5    N2    A    
Cu2   O4    S    
C1    C24   S    
C25   H12   S    
C21   C24   A    
C3    N3    S    
C2    C23   S    
C5    C7    A    
Cu2   O8    S    
C22   C23   A    
Cu2   N2    S    
C6    C8    A    
C20   H2    S    
Cu2   O7    S    
C12   H4    S    
Cu1   Cu2   S    
C21   C22   A    
C14   H6    S    
C13   H5    S    
Cu1   O1    S    
N3    H11   S    
Cu2   O3    S    
C6    H10   S    
C16   C17   A    
C25   H13   S    
