data_mof_unit_66985.cif
_audit_creation_date              2012-12-11T17:41:00-0500
_audit_creation_method            fapswitch 2.2
_symmetry_space_group_name_H-M    P1
_symmetry_Int_Tables_number       1
_space_group_crystal_system       triclinic
_cell_length_a                    8.192586
_cell_length_b                    12.737914
_cell_length_c                    14.290044
_cell_angle_alpha                 93.300177
_cell_angle_beta                  90.801967
_cell_angle_gamma                 98.330303
_cell_volume                      1472.7009198

loop_
_atom_site_label
_atom_site_type_symbol
_atom_type_description
_atom_site_fract_x
_atom_site_fract_y
_atom_site_fract_z
_atom_type_partial_charge
Ba1   Ba    Ba6+2 0.855630 0.555280 0.454520 1.638893
Ba2   Ba    Ba6+2 0.334200 0.444810 0.545490 1.636284
C1    C     C_3   0.609989 0.946475 0.182182 -0.414167
C2    C     C_R   0.183529 0.496960 0.196194 0.038487
C3    C     C_R   0.338835 0.548483 0.226564 -0.293169
C4    C     C_3   0.154522 0.805084 0.198937 0.369213
C5    C     C_R   0.451069 0.595715 0.163738 0.019355
C6    C     C_R   0.406027 0.598645 0.069712 -0.154236
C7    C     C_R   0.250173 0.549339 0.036133 0.003746
C8    C     C_R   0.138149 0.495263 0.098580 -0.020824
C9    C     C_R   0.055633 0.500776 0.902805 -0.020309
C10   C     C_R   0.942676 0.447441 0.965338 0.001051
C11   C     C_R   0.010032 0.501000 0.805284 0.015641
C12   C     C_3   0.655995 0.855562 0.236667 0.341426
C13   C     C_R   0.855215 0.448850 0.774855 -0.275154
C14   C     C_R   0.741006 0.404183 0.837670 0.015464
C15   C     C_R   0.784955 0.401169 0.932070 -0.145206
C16   C     C_3   0.152541 0.844735 0.100949 -0.375922
C17   C     C_R   0.207515 0.552544 0.940446 -0.044749
C18   C     C_R   0.762430 0.176369 0.537501 -0.272343
C19   C     C_R   0.428083 0.813571 0.463036 -0.263230
C20   C     C_R   0.405341 0.994128 0.428690 -0.109965
C21   C     C_R   0.340116 0.887146 0.424472 -0.012292
C22   C     C_R   0.576319 0.846523 0.512943 0.065337
C23   C     C_3   0.475167 0.307869 0.259588 0.305196
C24   C     C_R   0.641138 0.957119 0.522121 -0.057281
C25   C     C_R   0.554839 0.031157 0.477666 -0.061815
C26   C     C_R   0.618382 0.140818 0.485350 0.039054
C27   C     C_R   0.851731 0.105209 0.577798 -0.005834
C28   C     C_3   0.087905 0.770015 0.754146 0.303393
C29   C     C_R   0.789839 0.996453 0.572607 -0.096360
C30   C     C_3   0.043076 0.762566 0.857608 -0.427297
C31   C     C_3   0.970957 0.238579 0.344769 0.283268
C32   C     C_3   0.958989 0.119475 0.323854 -0.355708
C33   C     C_3   0.661769 0.669813 0.740350 0.360617
C34   C     C_3   0.455731 0.285110 0.154006 -0.390931
C35   C     C_3   0.609405 0.691118 0.840190 -0.376987
C36   C     C_3   0.153187 0.886274 0.738818 -0.161221
C37   C     C_3   0.251034 0.897664 0.649724 -0.337247
C38   C     C_3   0.056203 0.195355 0.803757 0.355519
C39   C     C_3   0.075023 0.156850 0.901594 -0.372944
C40   C     C_3   0.553392 0.148466 0.760467 0.357438
C41   C     C_3   0.590368 0.051404 0.809526 -0.405251
C42   C     C_R   0.985897 0.442873 0.060961 -0.038868
H1    H     H_    0.752476 0.887450 0.290373 0.086278
H2    H     H_    0.776652 0.634932 0.740983 -0.103155
H3    H     H_    0.568156 0.609342 0.706224 0.109736
H4    H     H_    0.563738 0.006183 0.230718 0.102794
H5    H     H_    0.700342 0.751844 0.878393 0.110514
H6    H     H_    0.598521 0.616122 0.876883 0.067967
H7    H     H_    0.489440 0.721739 0.839622 0.128913
H8    H     H_    0.544430 0.820752 0.273546 -0.049731
H9    H     H_    0.512177 0.915583 0.129082 0.114763
H10   H     H_    0.357697 0.329649 0.286834 0.016165
H11   H     H_    0.575981 0.375544 0.273409 0.059526
H12   H     H_    0.157536 0.765950 0.900400 0.116056
H13   H     H_    0.351836 0.220012 0.137717 0.127834
H14   H     H_    0.429982 0.357260 0.119934 0.063322
H15   H     H_    0.571054 0.261225 0.125238 0.119560
H16   H     H_    0.719096 0.984967 0.145332 0.131068
H17   H     H_    0.217649 0.793223 0.053958 0.057568
H18   H     H_    0.132667 0.274348 0.800504 0.098477
H19   H     H_    0.924882 0.203533 0.792057 -0.066059
H20   H     H_    0.206209 0.150327 0.917015 0.154902
H21   H     H_    0.032887 0.213956 0.954349 0.073003
H22   H     H_    0.999637 0.077673 0.906837 0.102171
H23   H     H_    0.978376 0.829630 0.882048 0.095314
H24   H     H_    0.670612 0.186371 0.731070 -0.060639
H25   H     H_    0.465194 0.123557 0.701245 0.069907
H26   H     H_    0.692285 0.075040 0.861906 0.110012
H27   H     H_    0.627505 0.991634 0.757522 0.088123
H28   H     H_    0.073231 0.727242 0.198683 0.085985
H29   H     H_    0.480312 0.015364 0.846630 0.126689
H30   H     H_    0.375378 0.548333 0.299615 0.070964
H31   H     H_    0.493274 0.639259 0.023193 0.072004
H32   H     H_    0.695743 0.363260 0.979419 0.071767
H33   H     H_    0.819435 0.447896 0.701576 0.066234
H34   H     H_    0.960743 0.688433 0.869521 0.078016
H35   H     H_    0.898494 0.398893 0.105433 0.096901
H36   H     H_    0.293905 0.595938 0.895740 0.091021
H37   H     H_    0.334566 0.047488 0.395695 0.105121
H38   H     H_    0.860906 0.944152 0.606491 0.097524
H39   H     H_    0.811074 0.260211 0.541861 0.060108
H40   H     H_    0.282904 0.794026 0.216665 -0.073927
H41   H     H_    0.375782 0.730380 0.458882 0.081576
H42   H     H_    0.023447 0.841976 0.075062 0.144535
H43   H     H_    0.216945 0.927681 0.100877 0.117437
H44   H     H_    0.980703 0.747710 0.706417 0.079739
H45   H     H_    0.850303 0.258243 0.367123 0.000449
H46   H     H_    0.296656 0.981715 0.640913 0.144025
H47   H     H_    0.171764 0.863830 0.588857 0.133070
H48   H     H_    0.361340 0.857045 0.654572 0.114069
H49   H     H_    0.046167 0.930091 0.734675 0.106769
H50   H     H_    0.234023 0.922356 0.798603 0.107498
H51   H     H_    0.063599 0.261607 0.402210 0.086719
H52   H     H_    0.866519 0.093825 0.266910 0.113237
H53   H     H_    0.921198 0.076427 0.386913 0.087552
H54   H     H_    0.080614 0.099296 0.301627 0.140465
O1    O     O_2   0.887370 0.460630 0.272300 -0.464915
O2    O     O_2   0.189185 0.114680 0.561443 -0.486837
O3    O     O_3   0.108441 0.122078 0.737555 -0.609994
O4    O     O_3   0.129410 0.451380 0.388510 -0.495594
O5    O     O_3   0.575400 0.626570 0.547370 -0.495069
O6    O     O_2   0.344320 0.238700 0.455090 -0.463813
O7    O     O_3   0.513168 0.216645 0.300576 -0.649464
O8    O     O_2   0.399209 0.406407 0.835262 -0.498678
O9    O     O_3   0.482779 0.216064 0.824444 -0.593756
O10   O     O_3   0.670210 0.653170 0.329170 -0.479817
O11   O     O_2   0.790098 0.590028 0.166360 -0.489867
O12   O     O_3   0.684111 0.765832 0.695389 -0.656923
O13   O     O_3   0.015211 0.289513 0.262812 -0.639920
O14   O     O_3   0.719149 0.782888 0.174036 -0.591584
O15   O     O_2   0.845380 0.761330 0.544970 -0.469121
O16   O     O_3   0.088930 0.704860 0.376040 -0.481781
O17   O     O_2   0.999347 0.888291 0.434979 -0.487719
O18   O     O_3   0.097632 0.879417 0.262142 -0.601343
O19   O     O_2   0.302330 0.539400 0.727760 -0.464493
O20   O     O_3   0.060300 0.548700 0.611500 -0.474036
O21   O     O_3   0.519500 0.346920 0.670840 -0.476557
O22   O     O_3   0.211356 0.708256 0.730502 -0.613410
O23   O     O_3   0.614310 0.373510 0.452640 -0.482072
O24   O     O_3   0.100780 0.295230 0.623970 -0.484097
P1    P     P_3+3 0.054400 0.427280 0.286870 0.969990
P2    P     P_3+3 0.668300 0.742890 0.573060 0.970563
P3    P     P_3+3 0.131630 0.842246 0.375809 0.954936
P4    P     P_3+3 0.135310 0.572810 0.713130 0.983190
P5    P     P_3+3 0.060121 0.157350 0.625058 0.938099
P6    P     P_3+3 0.657811 0.653292 0.207312 0.960374
P7    P     P_3+3 0.526762 0.241137 0.422458 0.931709
P8    P     P_3+3 0.534839 0.346974 0.792846 0.951990

loop_
_geom_bond_atom_site_label_1
_geom_bond_atom_site_label_2
_ccdc_geom_bond_type
C41   H29   S    
O2    P5    D    
C1    H9    S    
C34   H15   S    
C33   H3    S    
Ba1   O1    S    
Ba1   O10   S    
Ba2   O20   S    
C23   O7    S    
C5    C6    A    
C4    H28   S    
C9    C17   A    
C24   C25   A    
C16   H42   S    
C29   H38   S    
C33   C35   S    
C22   C24   A    
C26   P7    S    
C34   H14   S    
C36   C37   S    
C35   H7    S    
O22   P4    S    
Ba2   O4    S    
C13   C14   A    
C1    H4    S    
C22   P2    S    
O21   P8    S    
C38   H18   S    
C28   C36   S    
Ba1   Ba2   S    
O24   P5    S    
C3    H30   S    
O12   P2    S    
C38   O3    S    
C7    C17   A    
C27   P5    S    
C12   H8    S    
C14   C15   A    
C10   C15   A    
C15   H32   S    
C31   O13   S    
C5    P6    S    
C14   P8    S    
O19   P4    D    
Ba1   O5    S    
C37   H46   S    
C21   P3    S    
C1    H16   S    
C32   H53   S    
C40   H24   S    
C17   H36   S    
Ba1   O15   S    
O9    P8    S    
O5    P2    S    
C31   H51   S    
C37   H47   S    
Ba2   O19   S    
C12   H1    S    
C18   C27   A    
Ba2   O24   S    
C4    C16   S    
C19   H41   S    
C4    H40   S    
C8    C42   A    
C20   H37   S    
C23   H10   S    
C34   H13   S    
O23   P7    S    
C3    C5    A    
O16   P3    S    
C6    C7    A    
C39   H21   S    
C18   C26   A    
O13   P1    S    
C6    H31   S    
C2    P1    S    
C12   O14   S    
Ba1   P1    S    
O3    P5    S    
C31   H45   S    
C35   H5    S    
O11   P6    D    
Ba2   O6    S    
C9    C10   A    
C36   H50   S    
C31   C32   S    
O10   P6    S    
C38   H19   S    
C4    O18   S    
C33   O12   S    
C30   H23   S    
C11   P4    S    
Ba2   P4    S    
C38   C39   S    
C41   H26   S    
O18   P3    S    
C19   C21   A    
C40   O9    S    
C18   H39   S    
C40   C41   S    
C28   H44   S    
O4    P1    S    
C37   H48   S    
O1    P1    D    
C7    C8    A    
Ba2   O23   S    
O8    P8    D    
C41   H27   S    
C42   H35   S    
C23   H11   S    
C32   H52   S    
C2    C3    A    
O7    P7    S    
Ba2   O21   S    
C16   H17   S    
C39   H22   S    
C1    C12   S    
C16   H43   S    
O17   P3    D    
C20   C25   A    
C11   C13   A    
Ba1   P2    S    
C10   C42   A    
C28   C30   S    
C35   H6    S    
C9    C11   A    
C13   H33   S    
O15   P2    D    
C28   O22   S    
Ba2   O5    S    
C36   H49   S    
C32   H54   S    
Ba1   O20   S    
C40   H25   S    
O6    P7    D    
Ba1   O23   S    
O14   P6    S    
C23   C34   S    
C30   H34   S    
C24   C29   A    
C27   C29   A    
Ba1   O16   S    
C19   C22   A    
C25   C26   A    
C20   C21   A    
O20   P4    S    
C39   H20   S    
C33   H2    S    
C2    C8    A    
Ba1   O4    S    
C30   H12   S    
