data_mof_unit_66241.cif
_audit_creation_date              2012-12-10T20:00:00-0500
_audit_creation_method            fapswitch 2.2
_symmetry_space_group_name_H-M    P1
_symmetry_Int_Tables_number       1
_space_group_crystal_system       triclinic
_cell_length_a                    18.504912
_cell_length_b                    18.523256
_cell_length_c                    36.166837
_cell_angle_alpha                 89.773796
_cell_angle_beta                  90.125553
_cell_angle_gamma                 90.053974
_cell_volume                      12396.8191449

loop_
_atom_site_label
_atom_site_type_symbol
_atom_type_description
_atom_site_fract_x
_atom_site_fract_y
_atom_site_fract_z
_atom_type_partial_charge
C1    C     C_R   0.499933 0.999979 0.901189 0.811989
C2    C     C_R   0.434220 0.001935 0.730745 0.371907
C3    C     C_R   0.231849 0.822183 0.517332 0.413928
C4    C     C_3   0.179173 0.761632 0.933832 0.626089
C5    C     C_3   0.232288 0.174258 0.935927 0.634648
C6    C     C_3   0.859631 0.200587 0.959036 0.642547
C7    C     C_3   0.765054 0.826421 0.935177 0.635123
C8    C     C_3   0.175093 0.235583 0.934930 0.639089
C9    C     C_3   0.237955 0.821640 0.933988 0.631191
C10   C     C_3   0.826648 0.769422 0.935923 0.630871
C11   C     C_3   0.800554 0.140726 0.959177 0.634122
C12   C     C_3   0.666246 0.274701 0.440210 0.636989
C13   C     C_R   0.996806 0.434195 0.731096 0.371462
C14   C     C_3   0.729612 0.674399 0.436423 0.634736
C15   C     C_3   0.352970 0.707453 0.455348 0.651596
C16   C     C_3   0.269712 0.330905 0.437142 0.639182
C17   C     C_3   0.672011 0.735194 0.436333 0.637204
C18   C     C_3   0.727304 0.331834 0.438904 0.645047
C19   C     C_3   0.328305 0.271113 0.436742 0.634978
C20   C     C_3   0.293712 0.648347 0.455162 0.640672
C21   C     C_R   0.996837 0.434786 0.769713 -0.186827
C22   C     C_R   0.565407 0.997862 0.769601 -0.186435
C23   C     C_R   0.003325 0.565512 0.769252 -0.188529
C24   C     C_R   0.565848 0.997864 0.730980 0.371756
C25   C     C_R   0.434463 0.001908 0.769368 -0.188810
C26   C     C_R   0.497230 0.934752 0.269712 -0.187167
C27   C     C_R   0.065265 0.495101 0.269607 -0.186621
C28   C     C_R   0.502843 0.065518 0.269251 -0.187891
C29   C     C_R   0.934622 0.504773 0.269363 -0.188333
C30   C     C_R   0.000085 0.500269 0.788776 0.005439
C31   C     C_R   0.499886 0.999882 0.788778 0.005544
C32   C     C_R   0.500041 0.000254 0.288775 0.005429
C33   C     C_R   0.999894 0.499932 0.288786 0.005736
C34   C     C_R   0.500020 0.999765 0.211345 -0.080315
C35   C     C_R   0.000092 0.499962 0.211340 -0.080387
C36   C     C_R   0.000056 0.499776 0.711346 -0.080396
C37   C     C_R   0.500084 0.999913 0.711345 -0.080461
C38   C     C_1   0.000075 0.500447 0.828439 0.029733
C39   C     C_1   0.499802 0.999905 0.828419 0.029868
C40   C     C_1   0.500040 0.000434 0.328438 0.029900
C41   C     C_R   0.000018 0.500128 0.901207 0.810082
C42   C     C_1   0.999810 0.499942 0.328389 0.029986
C43   C     C_1   0.500006 0.999575 0.171558 0.139212
C44   C     C_1   0.000180 0.499982 0.171603 0.139141
C45   C     C_1   0.000029 0.499584 0.671558 0.139746
C46   C     C_1   0.500174 0.999946 0.671578 0.139648
C47   C     C_1   0.499999 0.999605 0.138337 -0.023187
C48   C     C_1   0.000186 0.499995 0.138301 -0.023790
C49   C     C_1   0.000011 0.499609 0.638337 -0.022945
C50   C     C_1   0.500184 0.999974 0.638328 -0.023391
C51   C     C_1   0.000052 0.500404 0.861665 -0.078611
C52   C     C_R   0.999934 0.499984 0.401173 0.809996
C53   C     C_1   0.499805 0.999937 0.861674 -0.079228
C54   C     C_1   0.500030 0.000397 0.361665 -0.079049
C55   C     C_1   0.999810 0.499960 0.361701 -0.078815
C56   C     C_R   0.499995 0.999873 0.098785 0.824133
C57   C     C_R   0.000066 0.500006 0.098819 0.824422
C58   C     C_R   0.999996 0.499874 0.598785 0.825850
C59   C     C_R   0.500065 0.000002 0.598804 0.826675
C60   C     C_R   0.639119 0.859214 0.999776 0.906810
C61   C     C_R   0.140739 0.639201 0.999731 0.902413
C62   C     C_R   0.360495 0.140553 0.999856 0.895772
C63   C     C_R   0.500012 0.000127 0.401207 0.809423
C64   C     C_R   0.858796 0.361386 0.999436 0.879663
C65   C     C_R   0.638811 0.141050 0.999530 0.881143
C66   C     C_R   0.141102 0.361224 0.999609 0.904435
C67   C     C_R   0.360798 0.859243 0.999754 0.902601
C68   C     C_R   0.858781 0.638809 0.999388 0.890603
C69   C     C_R   0.139074 0.359122 0.499725 0.904150
C70   C     C_R   0.641413 0.138756 0.499532 0.901455
C71   C     C_R   0.860100 0.640218 0.500059 0.897810
C72   C     C_R   0.358445 0.861475 0.499322 0.894142
C73   C     C_R   0.138789 0.641451 0.499401 0.897919
C74   C     C_R   0.502846 0.065612 0.230631 0.371564
C75   C     C_R   0.639925 0.860092 0.500331 0.909725
C76   C     C_R   0.861593 0.358312 0.499305 0.897809
C77   C     C_R   0.358934 0.139017 0.499538 0.895582
C78   C     C_R   0.257861 0.793959 0.971612 -0.059693
C79   C     C_R   0.205461 0.258009 0.971542 -0.053933
C80   C     C_R   0.755238 0.193433 0.979724 -0.060937
C81   C     C_R   0.794936 0.744153 0.971812 -0.056934
C82   C     C_R   0.256391 0.205491 0.971868 -0.063371
C83   C     C_R   0.206197 0.742048 0.971549 -0.058246
C84   C     C_R   0.742744 0.795489 0.971735 -0.054338
C85   C     C_R   0.934380 0.504815 0.230738 0.371294
C86   C     C_R   0.806635 0.245229 0.979626 -0.061403
C87   C     C_R   0.761044 0.290855 0.469802 -0.068784
C88   C     C_R   0.701988 0.755104 0.473223 -0.057158
C89   C     C_R   0.244689 0.703538 0.471239 -0.063606
C90   C     C_R   0.294805 0.243910 0.471644 -0.057680
C91   C     C_R   0.753289 0.702939 0.473207 -0.054473
C92   C     C_R   0.708456 0.239892 0.470305 -0.067284
C93   C     C_R   0.243424 0.296032 0.471915 -0.054405
C94   C     C_R   0.297100 0.755745 0.471366 -0.066857
C95   C     C_R   0.307666 0.801251 0.000034 -0.235745
C96   C     C_R   0.497204 0.934163 0.231095 0.371668
C97   C     C_R   0.199742 0.308912 0.999395 -0.238450
C98   C     C_R   0.690099 0.200752 0.998140 -0.253286
C99   C     C_R   0.799802 0.691126 0.998971 -0.243576
C100  C     C_R   0.307305 0.198593 0.999928 -0.233584
C101  C     C_R   0.198745 0.692292 0.000051 -0.235132
C102  C     C_R   0.691569 0.800728 0.999571 -0.236892
C103  C     C_R   0.798983 0.310241 0.997981 -0.255336
C104  C     C_R   0.812725 0.296406 0.497408 -0.253926
C105  C     C_R   0.695681 0.805004 0.501493 -0.227954
C106  C     C_R   0.187871 0.703630 0.496385 -0.267826
C107  C     C_R   0.065704 0.495090 0.230984 0.371752
C108  C     C_R   0.299925 0.191197 0.498962 -0.242855
C109  C     C_R   0.804731 0.696187 0.501105 -0.231202
C110  C     C_R   0.703024 0.188051 0.497853 -0.249703
C111  C     C_R   0.191244 0.300365 0.499292 -0.241926
C112  C     C_R   0.296244 0.812770 0.496250 -0.270471
C113  C     C_R   0.304619 0.749055 0.029262 0.385684
C114  C     C_R   0.253254 0.306713 0.027881 0.389887
C115  C     C_R   0.677533 0.268081 0.016220 0.410913
C116  C     C_R   0.744404 0.690530 0.026521 0.390187
C117  C     C_R   0.305833 0.251808 0.028294 0.387929
C118  C     C_R   0.003325 0.565605 0.730631 0.372213
C119  C     C_R   0.250677 0.695449 0.029349 0.385943
C120  C     C_R   0.692600 0.746037 0.027520 0.390024
C121  C     C_R   0.731518 0.322475 0.016099 0.410946
C122  C     C_R   0.815527 0.238402 0.523537 0.402893
C123  C     C_R   0.745673 0.799196 0.531311 0.383172
C124  C     C_R   0.178426 0.767689 0.517716 0.412085
C125  C     C_R   0.244784 0.190805 0.526466 0.391360
C126  C     C_R   0.800345 0.746311 0.530839 0.383549
C127  C     C_R   0.761377 0.184755 0.523672 0.401880
C128  C     C_R   0.191220 0.244667 0.526658 0.391387
Cl1   Cl    Cl    0.087222 0.792148 0.934779 -0.413097
Cl2   Cl    Cl    0.694632 0.585025 0.439995 -0.412744
Cl3   Cl    Cl    0.427723 0.691818 0.486220 -0.436037
Cl4   Cl    Cl    0.301342 0.421114 0.444311 -0.451939
Cl5   Cl    Cl    0.579230 0.707160 0.438503 -0.455195
Cl6   Cl    Cl    0.702230 0.420579 0.452524 -0.413485
Cl7   Cl    Cl    0.418504 0.301119 0.443838 -0.421107
Cl8   Cl    Cl    0.308697 0.573696 0.486144 -0.437662
Cl9   Cl    Cl    0.493604 0.850434 0.208217 -0.480671
Cl10  Cl    Cl    0.149265 0.488909 0.207957 -0.481099
Cl11  Cl    Cl    0.506419 0.149055 0.207157 -0.484638
Cl12  Cl    Cl    0.197590 0.084701 0.942154 -0.407178
Cl13  Cl    Cl    0.850929 0.511017 0.207410 -0.483725
Cl14  Cl    Cl    0.992647 0.350490 0.708219 -0.479941
Cl15  Cl    Cl    0.649599 0.995281 0.707948 -0.480850
Cl16  Cl    Cl    0.007454 0.649021 0.707157 -0.482085
Cl17  Cl    Cl    0.350579 0.004536 0.707423 -0.481054
Cl18  Cl    Cl    0.938688 0.183165 0.986338 -0.427221
Cl19  Cl    Cl    0.792431 0.919212 0.937713 -0.454568
Cl20  Cl    Cl    0.082440 0.207907 0.937378 -0.451348
Cl21  Cl    Cl    0.205308 0.912961 0.935666 -0.409922
Cl22  Cl    Cl    0.916520 0.804387 0.942522 -0.402674
Cl23  Cl    Cl    0.819415 0.062383 0.987048 -0.429585
Cl24  Cl    Cl    0.581812 0.306219 0.457408 -0.415803
H1    H     H_    0.994326 0.384245 0.784864 0.201182
H2    H     H_    0.266302 0.404345 0.043278 0.345370
H3    H     H_    0.574160 0.273235 0.016504 0.330417
H4    H     H_    0.730351 0.590682 0.038161 0.346603
H5    H     H_    0.402056 0.265024 0.045873 0.354033
H6    H     H_    0.264010 0.599330 0.047274 0.347247
H7    H     H_    0.595889 0.733193 0.044511 0.346330
H8    H     H_    0.727081 0.425908 0.016320 0.329682
H9    H     H_    0.915877 0.230001 0.535414 0.341411
H10   H     H_    0.757018 0.891929 0.553240 0.353175
H11   H     H_    0.075983 0.773072 0.523692 0.334358
H12   H     H_    0.616088 0.996293 0.784657 0.200966
H13   H     H_    0.231913 0.092261 0.540633 0.347482
H14   H     H_    0.895370 0.760378 0.549933 0.352181
H15   H     H_    0.770205 0.084607 0.535662 0.341821
H16   H     H_    0.092840 0.233006 0.541401 0.345523
H17   H     H_    0.226895 0.925029 0.521878 0.331526
H18   H     H_    0.161096 0.715847 0.886409 0.367012
H19   H     H_    0.275920 0.143145 0.889675 0.369603
H20   H     H_    0.911306 0.200897 0.912803 0.384713
H21   H     H_    0.725543 0.843063 0.886057 0.367293
H22   H     H_    0.156391 0.276596 0.886401 0.368393
H23   H     H_    0.005842 0.616242 0.784041 0.199720
H24   H     H_    0.281781 0.841365 0.886043 0.364637
H25   H     H_    0.856539 0.729362 0.888527 0.368451
H26   H     H_    0.798150 0.085404 0.914107 0.387518
H27   H     H_    0.618345 0.245272 0.394863 0.373255
H28   H     H_    0.771994 0.648407 0.389222 0.367526
H29   H     H_    0.416067 0.704260 0.412779 0.391863
H30   H     H_    0.234563 0.359251 0.388767 0.366550
H31   H     H_    0.653415 0.778986 0.388518 0.367277
H32   H     H_    0.750471 0.365372 0.389406 0.370610
H33   H     H_    0.356636 0.234762 0.388632 0.367206
H34   H     H_    0.383711 0.003473 0.784250 0.199704
H35   H     H_    0.292806 0.582744 0.413482 0.390427
H36   H     H_    0.495059 0.884195 0.284863 0.201355
H37   H     H_    0.115830 0.491352 0.284666 0.200539
H38   H     H_    0.505020 0.116263 0.284040 0.199254
H39   H     H_    0.883985 0.508517 0.284240 0.199354
H40   H     H_    0.401125 0.735588 0.046654 0.346659
O1    O     O_3   0.500000 0.000000 0.000000 -0.546052
O2    O     O_R   0.500000 0.939300 0.418540 -0.616001
O3    O     O_R   0.060700 0.500000 0.418540 -0.619143
O4    O     O_R   0.500000 0.060700 0.418540 -0.621512
O5    O     O_R   0.500000 0.939270 0.081460 -0.603091
O6    O     O_R   0.060730 0.500000 0.081460 -0.602342
O7    O     O_R   0.500000 0.060730 0.081460 -0.602102
O8    O     O_R   0.939270 0.500000 0.081460 -0.601826
O9    O     O_R   0.000000 0.439270 0.581460 -0.602247
O10   O     O_R   0.560730 0.000000 0.581460 -0.603378
O11   O     O_R   0.000000 0.560730 0.581460 -0.601130
O12   O     O_3   1.000000 0.500000 0.000000 -0.546396
O13   O     O_R   0.439270 0.000000 0.581460 -0.600804
O14   O     O_R   0.646180 0.914510 0.978640 -0.576305
O15   O     O_R   0.085490 0.646180 0.978640 -0.582204
O16   O     O_R   0.353820 0.085490 0.978640 -0.584610
O17   O     O_R   0.914510 0.353820 0.978640 -0.573776
O18   O     O_R   0.646180 0.085490 0.978640 -0.575696
O19   O     O_R   0.085490 0.353820 0.978640 -0.575556
O20   O     O_R   0.353820 0.914510 0.978640 -0.582075
O21   O     O_R   0.914510 0.646180 0.978640 -0.582833
O22   O     O_R   0.146180 0.414510 0.478640 -0.576411
O23   O     O_3   0.000000 0.500000 0.500000 -0.545222
O24   O     O_R   0.585490 0.146180 0.478640 -0.579769
O25   O     O_R   0.853820 0.585490 0.478640 -0.581781
O26   O     O_R   0.414510 0.853820 0.478640 -0.576367
O27   O     O_R   0.146180 0.585490 0.478640 -0.579243
O28   O     O_R   0.585490 0.853820 0.478640 -0.575500
O29   O     O_R   0.853820 0.414510 0.478640 -0.578100
O30   O     O_R   0.414510 0.146180 0.478640 -0.581076
O31   O     O_R   0.414550 0.146120 0.021350 -0.643809
O32   O     O_R   0.853880 0.414550 0.021350 -0.637819
O33   O     O_R   0.585450 0.853880 0.021350 -0.647034
O34   O     O_3   0.500000 0.000000 0.500000 -0.545235
O35   O     O_R   0.146120 0.585450 0.021350 -0.647277
O36   O     O_R   0.414550 0.853880 0.021350 -0.646917
O37   O     O_R   0.853880 0.585450 0.021350 -0.641078
O38   O     O_R   0.585450 0.146120 0.021350 -0.636497
O39   O     O_R   0.146120 0.414550 0.021350 -0.646930
O40   O     O_R   0.914550 0.646120 0.521350 -0.647727
O41   O     O_R   0.353880 0.914550 0.521350 -0.638591
O42   O     O_R   0.085450 0.353880 0.521350 -0.648077
O43   O     O_R   0.646120 0.085450 0.521350 -0.644559
O44   O     O_R   0.914550 0.353880 0.521350 -0.644870
O45   O     O_R   0.439300 0.000000 0.918540 -0.617375
O46   O     O_R   0.353880 0.085450 0.521350 -0.643828
O47   O     O_R   0.085450 0.646120 0.521350 -0.637787
O48   O     O_R   0.646120 0.914550 0.521350 -0.654026
O49   O     O_3   0.353823 0.748299 0.058039 -0.639780
O50   O     O_3   0.256240 0.357381 0.055605 -0.641311
O51   O     O_3   0.613758 0.283635 0.034176 -0.645320
O52   O     O_3   0.738047 0.636011 0.052456 -0.634082
O53   O     O_3   0.354843 0.251794 0.056985 -0.636460
O54   O     O_3   0.250789 0.646720 0.058368 -0.639753
O55   O     O_3   0.643482 0.744721 0.056140 -0.636041
O56   O     O_R   0.000000 0.439300 0.918540 -0.616127
O57   O     O_3   0.715326 0.386315 0.033801 -0.645072
O58   O     O_3   0.869870 0.232104 0.549391 -0.639999
O59   O     O_3   0.741674 0.843348 0.561762 -0.642400
O60   O     O_3   0.118939 0.778836 0.539820 -0.642122
O61   O     O_3   0.241164 0.138552 0.553574 -0.634226
O62   O     O_3   0.848090 0.744695 0.560068 -0.641613
O63   O     O_3   0.767397 0.130517 0.549623 -0.641909
O64   O     O_3   0.139792 0.240943 0.554041 -0.637773
O65   O     O_3   0.219140 0.882801 0.538364 -0.642764
O66   O     O_3   0.192280 0.706006 0.908243 -0.728334
O67   O     O_R   0.560700 0.000000 0.918540 -0.615771
O68   O     O_3   0.286294 0.180464 0.908684 -0.727390
O69   O     O_3   0.873127 0.231047 0.924165 -0.696786
O70   O     O_3   0.712128 0.813386 0.907966 -0.724961
O71   O     O_3   0.188215 0.288233 0.907702 -0.725607
O72   O     O_3   0.293887 0.810730 0.908208 -0.723143
O73   O     O_3   0.820859 0.716367 0.908163 -0.726456
O74   O     O_3   0.770146 0.126225 0.924335 -0.698946
O75   O     O_3   0.661918 0.230319 0.408900 -0.720409
O76   O     O_3   0.783613 0.682718 0.409469 -0.729784
O77   O     O_3   0.372767 0.732052 0.420078 -0.693067
O78   O     O_R   0.000000 0.560700 0.918540 -0.617339
O79   O     O_3   0.218869 0.325250 0.408465 -0.725355
O80   O     O_3   0.684849 0.789725 0.410057 -0.729171
O81   O     O_3   0.770422 0.328995 0.407052 -0.715003
O82   O     O_3   0.320762 0.221217 0.407853 -0.728197
O83   O     O_3   0.269718 0.629406 0.419671 -0.699625
O84   O     O_R   0.939300 0.500000 0.418540 -0.618200
Zn1   Zn    Zn3+2 0.500000 0.913220 0.030510 1.036614
Zn2   Zn    Zn3+2 0.000000 0.586770 0.969480 1.070066
Zn3   Zn    Zn3+2 0.413230 0.000000 0.969480 1.070259
Zn4   Zn    Zn3+2 0.000000 0.413230 0.969480 1.074311
Zn5   Zn    Zn3+2 0.086770 0.500000 0.469480 1.069036
Zn6   Zn    Zn3+2 0.500000 0.086770 0.469480 1.065711
Zn7   Zn    Zn3+2 0.913230 0.500000 0.469480 1.070014
Zn8   Zn    Zn3+2 0.500000 0.913230 0.469480 1.073289
Zn9   Zn    Zn3+2 0.086780 0.500000 0.030510 1.036720
Zn10  Zn    Zn3+2 0.500000 0.086780 0.030510 1.038577
Zn11  Zn    Zn3+2 0.913220 0.500000 0.030510 1.040193
Zn12  Zn    Zn3+2 0.000000 0.413220 0.530510 1.038063
Zn13  Zn    Zn3+2 0.586780 0.000000 0.530510 1.035962
Zn14  Zn    Zn3+2 0.000000 0.586780 0.530510 1.038823
Zn15  Zn    Zn3+2 0.413220 0.000000 0.530510 1.040240
Zn16  Zn    Zn3+2 0.586770 0.000000 0.969480 1.074511

loop_
_geom_bond_atom_site_label_1
_geom_bond_atom_site_label_2
_ccdc_geom_bond_type
C64   C103  S    
O2    Zn8   S    
C72   C112  S    
C10   O73   S    
O16   Zn3   S    
C23   C118  A    
C9    Cl21  S    
C61   O35   A    
C65   O38   A    
C50   C59   S    
C66   C97   S    
H19   O68   S    
C119  O54   S    
C34   C96   A    
C73   O47   A    
O4    Zn6   S    
O40   Zn14  S    
H9    O58   S    
C6    Cl18  S    
O25   Zn7   S    
C54   C63   S    
C29   C33   A    
C105  C123  A    
C7    O70   S    
O19   Zn4   S    
C89   C94   A    
C80   C86   A    
O1    Zn10  S    
C89   C106  A    
O23   Zn5   S    
C120  O55   S    
H29   O77   S    
C18   O81   S    
H30   O79   S    
C75   O48   A    
O18   Zn16  S    
C62   O16   A    
O1    Zn1   S    
C15   C20   S    
H15   O63   S    
C28   C32   A    
C6    C11   S    
C123  C126  A    
C81   C99   A    
C5    O68   S    
O34   Zn6   S    
H25   O73   S    
C42   C55   T    
C3    C112  A    
C13   C21   A    
O28   Zn8   S    
C13   Cl14  S    
C68   O21   A    
O23   Zn14  S    
C75   C105  S    
C17   Cl5   S    
C77   O46   A    
C103  C121  A    
C16   O79   S    
C90   C93   A    
C14   Cl2   S    
H32   O81   S    
O21   Zn2   S    
H40   O49   S    
C79   C97   A    
C69   O22   A    
C5    C8    S    
C72   O26   A    
C107  Cl10  S    
C5    C82   S    
O47   Zn14  S    
C70   O43   A    
C35   C107  A    
C106  C124  A    
C21   H1    S    
C63   O4    A    
C100  C117  A    
C43   C47   T    
C41   C51   S    
C44   C48   T    
O1    Zn3   S    
C116  O52   S    
C26   C32   A    
C115  C121  A    
C84   C102  A    
C12   Cl24  S    
C15   C94   S    
C48   C57   S    
C27   C33   A    
C73   O27   A    
O11   Zn14  S    
C127  O63   S    
C33   C42   S    
H11   O60   S    
O45   Zn3   S    
O35   Zn9   S    
C104  C122  A    
C24   Cl15  S    
O26   Zn8   S    
H16   O64   S    
C122  C127  A    
C1    C53   S    
C70   C110  S    
C26   H36   S    
H24   O72   S    
C29   H39   S    
C29   C85   A    
O5    Zn1   S    
C67   C95   S    
C14   C17   S    
C60   C102  S    
H28   O76   S    
C24   C37   A    
C7    Cl19  S    
C26   C96   A    
C36   C45   S    
C76   O44   A    
C25   H34   S    
C85   Cl13  S    
C38   C51   T    
C1    O45   A    
C3    O65   S    
C66   O39   A    
C116  C120  A    
O24   Zn6   S    
O13   Zn15  S    
C61   C101  S    
O14   Zn16  S    
H10   O59   S    
C122  O58   S    
C22   H12   S    
C88   C91   A    
O34   Zn15  S    
H21   O70   S    
C63   O2    A    
C126  O62   S    
C20   Cl8   S    
C65   O18   A    
C11   Cl23  S    
C114  O50   S    
O22   Zn5   S    
C40   C54   T    
C41   O56   A    
C83   C101  A    
H8    O57   S    
C12   C92   S    
C77   C108  S    
C34   C43   S    
O43   Zn13  S    
C79   C82   A    
H26   O74   S    
C76   O29   A    
C20   C89   S    
C6    C86   S    
C66   O19   A    
C90   C108  A    
C124  O60   S    
C19   C90   S    
H33   O82   S    
C88   C105  A    
C35   C85   A    
C59   O10   A    
C60   O14   A    
C98   C115  A    
O67   Zn16  S    
C94   C112  A    
C128  O64   S    
C11   O74   S    
C18   Cl6   S    
H13   O61   S    
C14   C91   S    
O56   Zn4   S    
C114  C117  A    
C109  C126  A    
O32   Zn11  S    
C15   Cl3   S    
C111  C128  A    
O33   Zn1   S    
C4    C9    S    
H5    O53   S    
C47   C56   S    
H3    O51   S    
C76   C104  S    
C7    C10   S    
C25   C31   A    
O30   Zn6   S    
C28   C74   A    
C52   O84   A    
C2    Cl17  S    
O48   Zn13  S    
O8    Zn11  S    
C65   C98   S    
C19   O82   S    
C23   H23   S    
C19   Cl7   S    
C9    O72   S    
O34   Zn13  S    
C72   O41   A    
C64   O32   A    
H20   O69   S    
H22   O71   S    
C113  C119  A    
C78   C83   A    
C8    C79   S    
O41   Zn15  S    
C36   C118  A    
C52   C55   S    
C59   O13   A    
C87   C92   A    
C8    Cl20  S    
C52   O3    A    
O12   Zn9   S    
O29   Zn7   S    
C61   O15   A    
O31   Zn10  S    
C27   C107  A    
C78   C95   A    
C67   O20   A    
C8    O71   S    
C34   C74   A    
O15   Zn2   S    
C62   C100  S    
C58   O11   A    
C22   C24   A    
C64   O17   A    
C99   C116  A    
C102  C120  A    
C3    C124  A    
C56   O5    A    
O7    Zn10  S    
C80   C98   A    
C28   H38   S    
C4    Cl1   S    
C117  O53   S    
C21   C30   A    
C10   C81   S    
C71   O25   A    
O78   Zn2   S    
C20   O83   S    
C10   Cl22  S    
C91   C109  A    
C39   C53   T    
C4    C83   S    
C75   O28   A    
C16   C19   S    
O42   Zn12  S    
C2    C25   A    
C9    C78   S    
C16   Cl4   S    
C12   O75   S    
C11   C80   S    
C87   C104  A    
O20   Zn3   S    
O39   Zn9   S    
C37   C46   S    
C1    O67   A    
H27   O75   S    
H2    O50   S    
O12   Zn11  S    
C57   O6    A    
C17   C88   S    
C92   C110  A    
C16   C93   S    
C118  Cl16  S    
O12   Zn4   S    
O23   Zn12  S    
C60   O33   A    
C58   O9    A    
O10   Zn13  S    
C71   O40   A    
O44   Zn12  S    
O12   Zn2   S    
C108  C125  A    
H4    O52   S    
C110  C127  A    
O6    Zn9   S    
C7    C84   S    
H17   O65   S    
C17   O80   S    
C86   C103  A    
O1    Zn16  S    
C14   O76   S    
C22   C31   A    
C101  C119  A    
C23   C30   A    
C13   C36   A    
H18   O66   S    
C96   Cl9   S    
C49   C58   S    
C69   O42   A    
C123  O59   S    
C125  C128  A    
C77   O30   A    
C121  O57   S    
O38   Zn10  S    
C45   C49   T    
C41   O78   A    
C62   O31   A    
C125  O61   S    
C35   C44   S    
O9    Zn12  S    
H7    O55   S    
C115  O51   S    
C93   C111  A    
O27   Zn5   S    
C113  O49   S    
C57   O8    A    
O23   Zn7   S    
C81   C84   A    
C68   O37   A    
C5    Cl12  S    
C4    O66   S    
H31   O80   S    
C82   C100  A    
O46   Zn15  S    
O84   Zn7   S    
O36   Zn1   S    
O17   Zn4   S    
H6    O54   S    
C74   Cl11  S    
C46   C50   T    
C18   C87   S    
O3    Zn5   S    
C70   O24   A    
C56   O7    A    
C97   C114  A    
C68   C99   S    
C69   C111  S    
C2    C37   A    
C73   C106  S    
C67   O36   A    
C95   C113  A    
C71   C109  S    
H14   O62   S    
C31   C39   S    
C6    O69   S    
C32   C40   S    
O34   Zn8   S    
O37   Zn11  S    
C12   C18   S    
C27   H37   S    
C30   C38   S    
C15   O77   S    
H35   O83   S    
