data_mof_unit_29230.cif
_audit_creation_date              2013-03-05T15:43:30-0500
_audit_creation_method            fapswitch 2.2
_symmetry_space_group_name_H-M    P1
_symmetry_Int_Tables_number       1
_space_group_crystal_system       triclinic
_cell_length_a                    14.540839
_cell_length_b                    16.054552
_cell_length_c                    6.928103
_cell_angle_alpha                 89.998968
_cell_angle_beta                  80.790932
_cell_angle_gamma                 90.000341
_cell_volume                      1596.49646655

loop_
_atom_site_label
_atom_site_type_symbol
_atom_site_description
_atom_site_fract_x
_atom_site_fract_y
_atom_site_fract_z
_atom_type_partial_charge
O1    O     O_R   0.337460 0.413110 0.524760 -0.557371
O2    O     O_R   0.662540 0.913110 0.475240 -0.557384
O3    O     O_R   0.348690 0.587910 0.191230 -0.541396
O4    O     O_R   0.651310 0.087910 0.808770 -0.541426
O5    O     O_R   0.166530 0.586890 0.082470 -0.554849
O6    O     O_R   0.833470 0.086890 0.917530 -0.554917
C1    C     C_R   0.369676 0.617607 0.353485 0.767019
C2    C     C_R   0.630326 0.117607 0.646514 0.766944
O7    O     O_R   0.348700 0.413830 0.191250 -0.535917
O8    O     O_R   0.651300 0.913830 0.808750 -0.535904
O9    O     O_R   0.166530 0.411570 0.082490 -0.567188
O10   O     O_R   0.833470 0.911570 0.917510 -0.567212
C3    C     C_R   0.372401 0.387115 0.352400 0.835607
C4    C     C_R   0.627601 0.887113 0.647602 0.835677
O11   O     O_R   0.337460 0.588430 0.524740 -0.562782
O12   O     O_R   0.662540 0.088430 0.475260 -0.562804
O13   O     O_3   0.192230 0.499460 0.407330 -0.296873
O14   O     O_3   0.807770 0.999460 0.592670 -0.296850
V1    V     V_3+5 0.263080 0.500100 0.108540 1.180344
V2    V     V_3+5 0.736920 0.000100 0.891460 1.180352
O15   O     O_R   0.155290 0.412090 0.756570 -0.565727
O16   O     O_R   0.844710 0.912090 0.243430 -0.565661
C5    C     C_R   0.133280 0.382566 0.933179 0.803375
C6    C     C_R   0.866725 0.882571 0.066821 0.803505
O17   O     O_R   0.155290 0.586170 0.756550 -0.596427
O18   O     O_R   0.844710 0.086170 0.243450 -0.596337
C7    C     C_R   0.132206 0.615164 0.932247 0.785672
C8    C     C_R   0.867780 0.115174 0.067752 0.785829
V3    V     V_3+5 0.240910 0.499900 0.616030 1.140173
V4    V     V_3+5 0.759090 0.999900 0.383970 1.140280
O19   O     O_3   0.311760 0.500540 0.867100 -0.246168
O20   O     O_3   0.688240 0.000540 0.132900 -0.246203
C9    C     C_3   0.106130 0.766453 0.030505 -0.146058
C10   C     C_3   0.893833 0.266494 0.969652 -0.146190
H1    H     H_    0.133289 0.753744 0.168667 0.106067
H2    H     H_    0.866674 0.253844 0.831459 0.106124
H3    H     H_    0.167601 0.785280 0.923031 0.134783
H4    H     H_    0.832361 0.285281 0.077169 0.134610
C11   C     C_3   0.034929 0.839390 0.065006 -0.170427
C12   C     C_3   0.965037 0.339438 0.935318 -0.170457
H5    H     H_    0.059680 0.891943 0.965393 0.113528
H6    H     H_    0.940334 0.391918 0.035188 0.113544
H7    H     H_    0.030987 0.862686 0.217406 0.117854
H8    H     H_    0.968907 0.362856 0.783034 0.117765
H9    H     H_    0.007221 0.652344 0.266862 0.061263
H10   H     H_    0.992603 0.152491 0.733004 0.060755
H11   H     H_    0.898158 0.755310 0.320862 0.086250
H12   H     H_    0.101660 0.255437 0.678955 0.086012
C13   C     C_3   0.979075 0.663893 0.129373 -0.153051
C14   C     C_3   0.020835 0.163954 0.870416 -0.152695
C15   C     C_3   0.017470 0.707154 0.769493 -0.051953
C16   C     C_3   0.982551 0.207125 0.230452 -0.052035
C17   C     C_3   0.060408 0.686156 0.961844 -0.095095
C18   C     C_3   0.939572 0.186170 0.038130 -0.094692
C19   C     C_3   0.936933 0.811145 0.029603 -0.078868
C20   C     C_3   0.063069 0.311141 0.970396 -0.078487
C21   C     C_3   0.906384 0.735653 0.164971 -0.157462
C22   C     C_3   0.093531 0.235708 0.834787 -0.157593
C23   C     C_3   0.945517 0.780462 0.814323 -0.127050
C24   C     C_3   0.054623 0.280331 0.185561 -0.127348
H13   H     H_    0.964793 0.834256 0.714754 0.123693
H14   H     H_    0.035557 0.334075 0.285384 0.123857
H15   H     H_    0.875148 0.762363 0.785316 0.118196
H16   H     H_    0.125009 0.262053 0.214151 0.117648
H17   H     H_    0.944516 0.605016 0.096793 0.122759
H18   H     H_    0.055391 0.105038 0.902695 0.123375
H19   H     H_    0.837386 0.712536 0.138287 0.113338
H20   H     H_    0.162558 0.212558 0.861208 0.113171
H21   H     H_    0.596667 0.771668 0.400832 0.129413
H22   H     H_    0.403345 0.271678 0.599184 0.129396
C25   C     C_2   0.441879 0.683754 0.343187 -0.232171
C26   C     C_2   0.558125 0.183755 0.656817 -0.232151
C27   C     C_2   0.449949 0.731542 0.503822 -0.036647
C28   C     C_2   0.550062 0.231553 0.496193 -0.036602
H23   H     H_    0.493515 0.839363 0.788015 0.149839
H24   H     H_    0.506487 0.339365 0.211979 0.149878
C29   C     C_2   0.547297 0.831331 0.662192 -0.168979
C30   C     C_2   0.452708 0.331337 0.337811 -0.169038
C31   C     C_2   0.537234 0.779073 0.515790 -0.066358
C32   C     C_2   0.462777 0.279083 0.484221 -0.066461
C33   C     C_2   0.370019 0.737300 0.667917 0.535779
H25   H     H_    0.299795 0.743681 0.635617 0.015185
O21   O     O_2   0.381191 0.730027 0.837914 -0.580725
C34   C     C_2   0.630003 0.237326 0.332122 0.535898
H26   H     H_    0.700223 0.243710 0.364450 0.014742
O22   O     O_2   0.618845 0.230061 0.162115 -0.580748
C35   C     C_2   0.507888 0.689902 0.155658 0.548868
H27   H     H_    0.521837 0.635328 0.063118 0.022507
O23   O     O_2   0.542671 0.756263 0.097087 -0.572475
C36   C     C_2   0.492113 0.189895 0.844343 0.548796
H28   H     H_    0.478158 0.135316 0.936869 0.022455
O24   O     O_2   0.457336 0.256255 0.902930 -0.572507
C37   C     C_2   0.969046 0.630333 0.701280 0.389311
H29   H     H_    0.007251 0.587432 0.596670 0.031903
O25   O     O_2   0.888154 0.613356 0.767092 -0.578251
C38   C     C_2   0.030898 0.130288 0.298768 0.390247
H30   H     H_    0.992894 0.087795 0.404613 0.031324
O26   O     O_2   0.111466 0.112814 0.231616 -0.578472
C39   C     C_2   0.093553 0.732749 0.600692 0.383638
H31   H     H_    0.122756 0.687455 0.491489 0.022231
O27   O     O_2   0.125541 0.803281 0.587397 -0.597995
C40   C     C_2   0.906483 0.232821 0.399204 0.383103
H32   H     H_    0.877069 0.187536 0.508233 0.022433
O28   O     O_2   0.874736 0.303436 0.412640 -0.597879

loop_
_geom_bond_atom_site_label_1
_geom_bond_atom_site_label_2
_geom_bond_distance
_ccdc_geom_bond_type
C35   H27   1.085464 S    
C37   H29   1.086001 S    
C19   C23   1.556662 S    
O13   V3    1.708597 S    
O4    C2    1.301476 A    
V1    O19   1.708834 S    
C33   H25   1.084622 S    
C5    C20   1.529502 S    
C11   H5    1.112716 S    
C6    C19   1.529503 S    
C16   C40   1.531871 S    
C9    C11   1.555968 S    
C13   H17   1.110535 S    
C10   C12   1.556010 S    
H24   C30   1.081618 S    
O3    C1    1.301490 A    
C1    C25   1.486999 S    
C30   C32   1.342243 D    
O12   V4    2.026566 S    
C13   C21   1.556246 S    
O17   V3    2.007036 S    
C24   H14   1.112792 S    
C4    C29   1.462163 S    
O7    C3    1.293198 A    
C16   C24   1.572246 S    
O13   V1    2.159622 S    
O5    C7    1.305596 A    
O7    V1    2.006234 S    
O6    C8    1.305554 A    
O8    V2    2.006239 S    
C12   C20   1.551866 S    
C38   O26   1.221961 D    
O3    V1    2.023238 S    
O14   V4    1.708596 S    
C10   H2    1.111246 S    
C12   H6    1.112705 S    
C37   O25   1.222310 D    
C28   C32   1.494563 S    
C9    C17   1.559297 S    
C21   H19   1.112601 S    
C27   C33   1.492958 S    
C33   O21   1.219985 D    
C16   C18   1.595513 S    
O11   V3    2.026537 S    
C29   C31   1.342245 D    
C15   C39   1.531767 S    
C11   C19   1.551804 S    
C2    C26   1.486987 S    
C23   H13   1.112827 S    
H22   C32   1.083981 S    
C14   C22   1.556213 S    
C34   H26   1.084638 S    
C26   C28   1.372119 D    
O8    C4    1.293197 A    
C25   C27   1.372132 D    
C8    C18   1.537016 S    
C11   H7    1.112934 S    
C1    O11   1.291764 A    
O15   V3    2.024194 S    
C9    H3    1.109817 S    
C20   C24   1.556688 S    
C15   C17   1.595516 S    
H11   C21   1.113116 S    
H23   C29   1.081620 S    
C36   O24   1.220585 D    
C39   H31   1.085678 S    
H9    C13   1.110843 S    
O9    V1    2.026020 S    
C38   H30   1.085727 S    
O10   V2    2.026026 S    
O1    V3    2.007044 S    
C27   C31   1.494555 S    
C14   C18   1.560178 S    
C40   O28   1.222001 D    
C14   H18   1.110464 S    
C15   C37   1.531903 S    
C25   C35   1.489912 S    
C22   H20   1.112597 S    
C39   O27   1.222017 D    
O18   V4    2.007000 S    
O15   C5    1.303401 A    
O16   C6    1.303399 A    
H21   C31   1.083982 S    
O1    C3    1.289994 A    
C26   C36   1.489915 S    
V2    O20   1.708835 S    
O10   C6    1.296439 A    
C3    C30   1.462175 S    
O16   V4    2.024229 S    
C10   H4    1.109825 S    
O18   C8    1.296283 A    
C28   C34   1.492960 S    
C7    C17   1.537048 S    
H12   C22   1.113115 S    
O5    V1    2.006558 S    
O17   C7    1.296256 A    
O6    V2    2.006551 S    
H10   C14   1.110767 S    
C23   H15   1.112477 S    
C24   H16   1.112520 S    
O2    V4    2.007018 S    
C19   C21   1.553195 S    
V3    O19   2.158859 S    
V4    O20   2.158861 S    
C10   C18   1.559291 S    
C36   H28   1.085464 S    
C13   C17   1.560175 S    
O9    C5    1.296438 A    
C9    H1    1.111214 S    
C20   C22   1.553180 S    
C16   C38   1.531805 S    
O14   V2    2.159620 S    
C40   H32   1.085654 S    
O2    C4    1.289990 A    
O4    V2    2.023234 S    
C12   H8    1.112924 S    
C15   C23   1.572350 S    
C2    O12   1.291773 A    
C35   O23   1.220585 D    
C34   O22   1.219985 D    
