data_mof_unit_6882.cif
_audit_creation_date              2012-12-11T16:34:10-0500
_audit_creation_method            fapswitch 2.2
_symmetry_space_group_name_H-M    P1
_symmetry_Int_Tables_number       1
_space_group_crystal_system       triclinic
_cell_length_a                    8.362634
_cell_length_b                    17.340285
_cell_length_c                    26.90263
_cell_angle_alpha                 95.541455
_cell_angle_beta                  92.35545
_cell_angle_gamma                 83.80961
_cell_volume                      3858.43321922

loop_
_atom_site_label
_atom_site_type_symbol
_atom_type_description
_atom_site_fract_x
_atom_site_fract_y
_atom_site_fract_z
_atom_type_partial_charge
Ba1   Ba    Ba6+2 0.856110 0.463800 0.523550 1.665523
Ba2   Ba    Ba6+2 0.333710 0.536130 0.476450 1.669742
C1    C     C_3   0.637689 0.183189 0.652896 -0.363485
C2    C     C_3   0.640450 0.262883 0.634064 0.348752
C3    C     C_3   0.522562 0.644503 0.630871 0.280445
C4    C     C_3   0.430540 0.673179 0.678449 -0.075716
C5    C     C_3   0.026089 0.706293 0.340373 0.295519
C6    C     C_3   0.043051 0.726673 0.287330 -0.338933
C7    C     C_3   0.532421 0.734393 0.364486 0.338099
C8    C     C_3   0.537227 0.813665 0.345313 -0.347876
C9    C     C_R   0.034374 0.436446 0.181099 0.594184
C10   C     C_R   0.870596 0.557080 0.172997 0.582571
C11   C     C_2   0.741090 0.519621 0.270129 -0.072181
C12   C     C_3   0.136762 0.290943 0.658917 0.299037
C13   C     C_3   0.701033 0.517254 0.324471 -0.061514
C14   C     C_1   0.985481 0.488849 0.343089 0.035627
C15   C     C_2   0.024690 0.487505 0.295472 -0.103760
C16   C     C_2   0.896174 0.503441 0.255503 0.194044
C17   C     C_R   0.999513 0.487776 0.099298 -0.081862
C18   C     C_R   0.070040 0.430812 0.129705 -0.032433
C19   C     C_R   0.173221 0.368672 0.107959 -0.056888
C20   C     C_R   0.897280 0.550585 0.121021 -0.045163
C21   C     C_2   0.847769 0.525754 0.358238 -0.283989
C22   C     C_2   0.348367 0.473089 0.639869 -0.295736
C23   C     C_3   0.104822 0.267718 0.710337 -0.319123
C24   C     C_R   0.165601 0.412694 0.973225 0.018837
C25   C     C_R   0.014030 0.541250 0.967636 0.008561
C26   C     C_R   0.110978 0.476081 0.945106 0.056474
C27   C     C_R   0.251661 0.346593 0.948032 -0.103064
C28   C     C_R   0.288374 0.344587 0.897707 -0.056648
C29   C     C_R   0.243788 0.408893 0.870392 -0.026935
C30   C     C_R   0.156355 0.475138 0.894302 -0.084678
C31   C     C_R   0.117009 0.541119 0.867825 -0.045714
C32   C     C_R   0.163579 0.539678 0.817742 0.646370
C33   C     C_R   0.285000 0.408314 0.819726 0.572315
C34   C     C_3   0.196010 0.299831 0.418152 0.310743
C35   C     C_2   0.441708 0.454938 0.727773 -0.036780
C36   C     C_3   0.489638 0.472437 0.676732 -0.000763
C37   C     C_1   0.207831 0.506751 0.655175 0.035821
C38   C     C_2   0.165519 0.499470 0.701837 -0.111327
C39   C     C_2   0.287180 0.473086 0.741330 0.209844
C40   C     C_R   0.135082 0.418312 0.025484 0.020835
C41   C     C_R   0.031423 0.482099 0.047152 0.039238
C42   C     C_R   0.957295 0.539592 0.016927 0.007561
C43   C     C_R   0.205785 0.362692 0.057193 -0.101778
C44   C     C_R   0.814971 0.603019 0.089916 -0.064527
C45   C     C_3   0.199599 0.211911 0.406617 -0.021938
C46   C     C_R   0.988961 0.608693 0.941652 -0.129256
C47   C     C_R   0.036980 0.608323 0.892605 -0.036338
C48   C     C_R   0.829457 0.592662 0.037784 0.017261
C49   C     C_R   0.413086 0.279656 0.521641 -0.299404
C50   C     C_R   0.553321 0.255109 0.495807 0.070940
C51   C     C_R   0.607604 0.175464 0.489151 -0.094738
C52   C     C_R   0.520087 0.120382 0.507819 -0.002361
C53   C     C_R   0.375837 0.145652 0.532546 -0.131085
C54   C     C_R   0.321448 0.225473 0.538689 0.005190
C55   C     C_R   0.584100 0.834324 0.507302 -0.119691
C56   C     C_3   0.992331 0.715828 0.652955 0.441401
C57   C     C_R   0.640550 0.755115 0.505475 0.022190
C58   C     C_R   0.872812 0.778310 0.459978 0.007890
C59   C     C_R   0.817045 0.858133 0.461734 -0.136966
C60   C     C_R   0.672148 0.886387 0.485623 -0.000054
C61   C     C_1   0.619923 0.969149 0.492251 0.007323
C62   C     C_1   0.574439 0.038021 0.499208 0.013976
C63   C     C_R   0.782335 0.727427 0.481054 -0.259225
C64   C     C_3   0.095956 0.772099 0.684588 -0.341482
C65   C     C_3   0.700155 0.357597 0.372928 0.313481
C66   C     C_3   0.742755 0.322179 0.320490 -0.333879
H1    H     H_    0.727312 0.257254 0.603351 0.079658
H2    H     H_    0.237916 0.182114 0.440314 0.026305
H3    H     H_    0.077402 0.196530 0.394648 0.098052
H4    H     H_    0.163327 0.744163 0.715542 0.156875
H5    H     H_    0.018072 0.820731 0.704010 0.110588
H6    H     H_    0.180850 0.796975 0.661606 0.101590
H7    H     H_    0.810068 0.377516 0.392063 0.008898
H8    H     H_    0.605577 0.407195 0.370800 0.028569
H9    H     H_    0.759157 0.162258 0.667594 0.131412
H10   H     H_    0.827996 0.268785 0.322712 0.153748
H11   H     H_    0.801053 0.363508 0.300155 0.065830
H12   H     H_    0.632242 0.306742 0.299219 0.144263
H13   H     H_    0.517681 0.282082 0.619776 -0.056069
H14   H     H_    0.601939 0.140935 0.621808 0.069758
H15   H     H_    0.452913 0.602108 0.607865 0.009759
H16   H     H_    0.641312 0.614523 0.640238 0.084404
H17   H     H_    0.419805 0.737743 0.683367 0.133618
H18   H     H_    0.312132 0.651267 0.673829 0.073053
H19   H     H_    0.549674 0.186679 0.683101 0.131328
H20   H     H_    0.121845 0.316997 0.738877 0.114611
H21   H     H_    0.088061 0.646898 0.343268 0.075219
H22   H     H_    0.896020 0.706741 0.347459 -0.028059
H23   H     H_    0.989738 0.682989 0.260618 0.123546
H24   H     H_    0.979682 0.785264 0.282498 0.128406
H25   H     H_    0.172239 0.726431 0.279207 0.141640
H26   H     H_    0.643618 0.721442 0.387318 -0.043300
H27   H     H_    0.425354 0.737205 0.387940 0.100258
H28   H     H_    0.543333 0.858863 0.377335 0.085424
H29   H     H_    0.427071 0.828371 0.322204 0.143240
H30   H     H_    0.064614 0.347391 0.654238 0.089899
H31   H     H_    0.644815 0.813127 0.322367 0.124941
H32   H     H_    0.149486 0.475254 0.285281 0.141189
H33   H     H_    0.230728 0.324218 0.130346 0.128800
H34   H     H_    0.534972 0.439518 0.755434 0.122459
H35   H     H_    0.354187 0.292328 0.880358 0.122974
H36   H     H_    0.289829 0.294520 0.966023 0.073057
H37   H     H_    0.290102 0.314339 0.044057 0.072935
H38   H     H_    0.643266 0.527207 0.242675 0.110810
H39   H     H_    0.728013 0.648622 0.105811 0.121880
H40   H     H_    0.936625 0.663537 0.959596 0.080116
H41   H     H_    0.266802 0.297972 0.656960 -0.029899
H42   H     H_    0.011725 0.661389 0.874208 0.142171
H43   H     H_    0.041015 0.508212 0.711692 0.161067
H44   H     H_    0.840435 0.560709 0.393966 0.064705
H45   H     H_    0.359369 0.442639 0.602759 0.069450
H46   H     H_    0.476345 0.855758 0.527462 0.080490
H47   H     H_    0.304044 0.103621 0.545481 0.081262
H48   H     H_    0.888423 0.898038 0.446284 0.087847
H49   H     H_    0.714536 0.156343 0.468022 0.093560
H50   H     H_    0.368963 0.340848 0.525338 0.066330
H51   H     H_    0.978883 0.253217 0.711716 0.147923
H52   H     H_    0.827207 0.666485 0.480805 0.073270
H53   H     H_    0.188864 0.216196 0.718956 0.122569
H54   H     H_    0.319720 0.315335 0.426371 0.009378
H55   H     H_    0.120895 0.317375 0.451253 0.031488
N1    N     N_R   0.935824 0.499423 0.202586 -0.424374
N2    N     N_R   0.242626 0.473015 0.793475 -0.426384
O1    O     O_2   0.910880 0.540430 0.617910 -0.467888
O2    O     O_3   0.639696 0.300636 0.397678 -0.607482
O3    O     O_3   0.091149 0.233045 0.622594 -0.597448
O4    O     O_2   0.278810 0.459550 0.382060 -0.458164
O5    O     O_3   0.046820 0.459570 0.442260 -0.493565
O6    O     O_3   0.514050 0.597710 0.411540 -0.483041
O7    O     O_3   0.131382 0.335639 0.376377 -0.612709
O8    O     O_3   0.627090 0.591350 0.524530 -0.473603
O9    O     O_3   0.103080 0.636600 0.435820 -0.480582
O10   O     O_2   0.207659 0.774169 0.465689 -0.481473
O11   O     O_3   0.097018 0.760905 0.373863 -0.598334
O12   O     O_3   0.142880 0.540370 0.557740 -0.447841
O13   O     O_3   0.562610 0.408580 0.475460 -0.486949
O14   O     O_2   0.365880 0.685750 0.523280 -0.420325
O15   O     O_3   0.540956 0.710272 0.605511 -0.663438
O16   O     O_2   0.365028 0.557667 0.325568 -0.493833
O17   O     O_3   0.523247 0.677755 0.323800 -0.588410
O18   O     O_2   0.088946 0.384323 0.206407 -0.586552
O19   O     O_2   0.358491 0.350060 0.799053 -0.606501
O20   O     O_2   0.788871 0.614291 0.191849 -0.598879
O21   O     O_2   0.136595 0.598625 0.796094 -0.542678
O22   O     O_3   0.675650 0.402220 0.588450 -0.488571
O23   O     O_2   0.823534 0.442851 0.673733 -0.483393
O24   O     O_3   0.084897 0.666509 0.616418 -0.627384
O25   O     O_3   0.688163 0.315420 0.673472 -0.598825
O26   O     O_2   0.823810 0.314230 0.476690 -0.468513
O27   O     O_3   0.086630 0.363340 0.564170 -0.496098
O28   O     O_2   0.990454 0.225446 0.529902 -0.485315
P1    P     P_3+3 0.078810 0.562990 0.610370 1.035260
P2    P     P_3+3 0.645380 0.325580 0.462150 1.004832
P3    P     P_3+3 0.122775 0.261531 0.563450 0.936576
P4    P     P_3+3 0.110900 0.436950 0.389630 1.010989
P5    P     P_3+3 0.069696 0.738204 0.434686 0.959538
P6    P     P_3+3 0.668314 0.409094 0.653241 0.968999
P7    P     P_3+3 0.546605 0.687452 0.540655 0.962603
P8    P     P_3+3 0.525776 0.586070 0.346332 0.971730
I1    I     I_    0.364238 0.169977 0.348968 -0.402353
I2    I     I_    0.887973 0.663115 0.710323 -0.413059
C67   C     C_3   0.863202 0.765235 0.624139 -0.139149
C68   C     C_3   0.927700 0.828183 0.595423 -0.224658
C69   C     C_3   0.885859 0.911195 0.619225 -0.426543
H56   H     H_    0.753111 0.924685 0.621154 0.138245
H57   H     H_    0.941319 0.919758 0.657147 0.140695
H58   H     H_    0.931725 0.952808 0.595769 0.135587
H59   H     H_    0.871665 0.826124 0.557942 0.109093
H60   H     H_    0.058689 0.816499 0.589067 0.144049
H61   H     H_    0.813594 0.723534 0.595844 0.083580
H62   H     H_    0.765246 0.791571 0.649107 0.125817
I3    I     I_    0.508046 0.641628 0.751278 -0.425530
C70   C     C_3   0.691949 0.629849 0.006210 -0.214555
C71   C     C_3   0.527143 0.608362 0.020611 -0.210784
C72   C     C_3   0.393031 0.638780 0.985180 -0.402241
H63   H     H_    0.392875 0.702561 0.983585 0.145392
H64   H     H_    0.408156 0.608645 0.947040 0.147359
H65   H     H_    0.275595 0.627567 0.999118 0.132010
H66   H     H_    0.529522 0.543941 0.019441 0.131917
H67   H     H_    0.497973 0.633870 0.059035 0.127989
H68   H     H_    0.692874 0.694202 0.010762 0.109609
H69   H     H_    0.703622 0.609135 0.966145 0.129761

loop_
_geom_bond_atom_site_label_1
_geom_bond_atom_site_label_2
_ccdc_geom_bond_type
C25   C46   A    
C66   H12   S    
C12   H41   S    
C53   C54   A    
C68   H60   S    
C68   C69   S    
C32   O21   D    
C17   C18   A    
C54   P3    S    
C56   C67   S    
Ba2   O4    S    
O17   P8    S    
O4    P4    D    
C55   C60   A    
C46   H40   S    
C51   C52   A    
C50   P2    S    
C71   H67   S    
C21   H44   S    
C47   H42   S    
C60   C61   S    
C4    H17   S    
C52   C62   S    
C11   C16   D    
Ba1   O27   S    
O5    P4    S    
Ba2   O14   S    
C67   C68   S    
C35   C36   S    
C58   P5    S    
C36   P6    S    
Ba1   Ba2   S    
C65   O2    S    
C34   O7    S    
C28   C29   A    
C3    H15   S    
C51   H49   S    
C55   C57   A    
O6    P8    S    
C31   C47   A    
C5    H21   S    
C10   C20   A    
C22   C37   D    
C12   O3    S    
C34   C45   S    
Ba1   P2    S    
C49   C54   A    
C33   N2    Am   
Ba2   P4    S    
C45   I1    S    
C25   C42   A    
C56   C64   S    
C64   H4    S    
C2    H13   S    
C9    N1    Am   
C17   C41   A    
C14   C15   D    
C72   H64   S    
C28   H35   S    
C22   C36   S    
C6    H24   S    
O26   P2    D    
C7    C8    S    
C7    H27   S    
C59   C60   A    
C56   O24   S    
C33   O19   D    
O11   P5    S    
C66   H11   S    
C13   C21   S    
O22   P6    S    
C22   H45   S    
O10   P5    D    
C69   H57   S    
C8    H31   S    
C59   H48   S    
Ba1   O8    S    
C56   I2    S    
C23   H51   S    
C2    H1    S    
C43   H37   S    
C12   H30   S    
C38   H43   S    
C19   C43   A    
C9    O18   D    
C66   H10   S    
C71   H66   S    
C9    C18   A    
Ba2   O8    S    
Ba2   O6    S    
O25   P6    S    
C37   P1    S    
C1    H19   S    
C65   C66   S    
Ba2   O13   S    
O27   P3    S    
C26   C30   A    
C34   H55   S    
Ba1   O1    S    
Ba1   O5    S    
O2    P2    S    
C37   C38   D    
C3    H16   S    
C4    I3    S    
C61   C62   T    
C5    H22   S    
C23   H20   S    
C35   H34   S    
C49   C50   A    
C27   H36   S    
C48   C70   S    
O23   P6    D    
C10   O20   D    
C8    H29   S    
C34   H54   S    
O24   P1    S    
C45   H2    S    
C27   C28   A    
C39   N2    S    
C57   P7    S    
C70   C71   S    
C10   N1    Am   
C8    H28   S    
C72   H65   S    
C44   H39   S    
C17   C20   A    
C1    H14   S    
C15   C16   S    
C67   H62   S    
C6    H23   S    
Ba2   O9    S    
O28   P3    D    
C45   H3    S    
C24   C27   A    
O1    P1    D    
C71   C72   S    
O9    P5    S    
C58   C63   A    
C67   H61   S    
C14   C21   D    
C11   C13   S    
C41   C42   A    
C69   H56   S    
C29   C33   A    
Ba1   O22   S    
C65   H7    S    
C40   C41   A    
C1    C2    S    
C1    H9    S    
Ba1   O12   S    
C50   C51   A    
C24   C40   A    
C3    O15   S    
C70   H68   S    
C42   C48   A    
C68   H59   S    
O13   P2    S    
C52   C53   A    
C46   C47   A    
C20   C44   A    
C14   P4    S    
Ba2   O12   S    
C13   P8    S    
C29   C30   A    
C6    H25   S    
C11   H38   S    
O16   P8    D    
O14   P7    D    
C7    O17   S    
C55   H46   S    
C2    O25   S    
C44   C48   A    
C24   C26   A    
O7    P4    S    
C4    H18   S    
O8    P7    S    
C30   C31   A    
C19   H33   S    
C5    O11   S    
C57   C63   A    
C64   H5    S    
C3    C4    S    
C53   H47   S    
C32   N2    Am   
Ba2   O5    S    
C63   H52   S    
C31   C32   A    
O12   P1    S    
Ba1   O26   S    
C12   C23   S    
C35   C39   D    
Ba1   P1    S    
C15   H32   S    
C5    C6    S    
O3    P3    S    
C49   H50   S    
C18   C19   A    
C69   H58   S    
C72   H63   S    
C25   C26   A    
C58   C59   A    
C38   C39   S    
C65   H8    S    
C23   H53   S    
C7    H26   S    
C40   C43   A    
O15   P7    S    
Ba1   O13   S    
C16   N1    S    
C70   H69   S    
C64   H6    S    
