data_mof_unit_27921.cif
_audit_creation_date              2013-03-05T16:31:13-0500
_audit_creation_method            fapswitch 2.2
_symmetry_space_group_name_H-M    P1
_symmetry_Int_Tables_number       1
_space_group_crystal_system       triclinic
_cell_length_a                    15.077313
_cell_length_b                    14.21686
_cell_length_c                    10.494217
_cell_angle_alpha                 90.557273
_cell_angle_beta                  90.805968
_cell_angle_gamma                 89.359934
_cell_volume                      2248.9910033

loop_
_atom_site_label
_atom_site_type_symbol
_atom_site_description
_atom_site_fract_x
_atom_site_fract_y
_atom_site_fract_z
_atom_type_partial_charge
O1    O     O_R   0.369060 0.579480 0.500010 -0.610968
O2    O     O_R   0.630940 0.420520 0.499990 -0.625702
O3    O     O_R   0.630940 0.579480 0.499990 -0.604435
O4    O     O_R   0.369060 0.420520 0.500010 -0.615472
C1    C     C_R   0.326640 0.501250 0.500515 0.909271
C2    C     C_R   0.673650 0.499373 0.501198 0.919225
O5    O     O_R   0.499990 0.579480 0.316780 -0.581308
O6    O     O_R   0.500010 0.420520 0.683220 -0.577279
O7    O     O_R   0.500010 0.579480 0.683220 -0.589180
O8    O     O_R   0.499990 0.420520 0.316780 -0.581824
C3    C     C_R   0.514219 0.499548 0.259958 0.908566
C4    C     C_R   0.486558 0.500736 0.740347 0.895296
Zn1   Zn    Zn3+2 0.500000 0.606140 0.500000 1.030008
Zn2   Zn    Zn3+2 0.500000 0.393860 0.500000 1.059357
C5    C     C_R   0.568685 0.670167 0.103837 -0.137753
C6    C     C_R   0.430665 0.333220 0.899802 -0.150944
C7    C     C_R   0.443296 0.675431 0.903001 -0.141627
C8    C     C_R   0.563508 0.327382 0.092599 -0.135397
C9    C     C_R   0.540655 0.757262 0.052942 0.334688
C10   C     C_R   0.458622 0.246328 0.951832 0.416572
C11   C     C_R   0.475141 0.759936 0.956838 0.348380
C12   C     C_R   0.532801 0.243294 0.034558 0.436092
C13   C     C_R   0.479158 0.588149 0.945016 0.035385
C14   C     C_R   0.524337 0.414054 0.054658 -0.045130
C15   C     C_R   0.528892 0.585862 0.058212 0.036005
C16   C     C_R   0.472965 0.416511 0.943045 -0.042482
C17   C     C_R   0.467439 0.502485 0.877624 -0.114346
C18   C     C_R   0.534915 0.499211 0.123072 -0.114480
C19   C     C_R   0.089104 0.591624 0.517273 0.427379
C20   C     C_R   0.909380 0.415186 0.581766 0.437369
C21   C     C_R   0.903299 0.581372 0.590166 0.428274
C22   C     C_R   0.085759 0.430724 0.453361 0.411739
C23   C     C_R   0.180976 0.590670 0.529619 -0.105761
C24   C     C_R   0.818329 0.411686 0.550537 -0.168841
C25   C     C_R   0.817549 0.584865 0.540571 -0.132222
C26   C     C_R   0.178657 0.428560 0.447580 -0.172060
C27   C     C_R   0.228338 0.505857 0.496948 -0.268504
C28   C     C_R   0.771517 0.498112 0.522431 -0.288148
C29   C     C_R   0.043826 0.506509 0.515858 -0.100407
C30   C     C_R   0.953102 0.500403 0.569569 -0.101011
C31   C     C_R   0.469997 0.103544 0.393735 0.340142
C32   C     C_R   0.575506 0.892877 0.541089 0.329924
C33   C     C_R   0.532051 0.105066 0.606625 0.336080
C34   C     C_R   0.424846 0.894695 0.460890 0.326697
C35   C     C_R   0.463210 0.202576 0.400234 0.348282
C36   C     C_R   0.567050 0.795537 0.559295 0.309146
C37   C     C_R   0.538547 0.203880 0.599139 0.360671
C38   C     C_R   0.432530 0.796794 0.442154 0.301655
N1    N     N_R   0.500000 0.252470 0.500000 -0.200041
N2    N     N_R   0.500000 0.747530 0.500000 -0.230490
C39   C     C_R   0.500771 0.052549 0.500579 -0.112409
C40   C     C_R   0.500404 0.945993 0.500951 -0.086298
Cl1   Cl    Cl    0.587726 0.134375 0.059161 -0.238277
Cl2   Cl    Cl    0.433419 0.870095 0.904679 -0.350889
Cl3   Cl    Cl    0.399738 0.141615 0.920402 -0.258322
Cl4   Cl    Cl    0.586138 0.864256 0.109836 -0.366170
C41   C     C_2   0.645843 0.667649 0.193211 0.512383
H1    H     H_    0.665283 0.730580 0.244716 0.106719
O9    O     O_2   0.690761 0.596296 0.206389 -0.612048
C42   C     C_2   0.354562 0.339903 0.807878 0.575939
H2    H     H_    0.318696 0.406065 0.797543 0.071500
O10   O     O_2   0.333051 0.273731 0.739692 -0.504606
C43   C     C_2   0.365300 0.678570 0.815658 0.530790
H3    H     H_    0.350792 0.740976 0.760490 0.104822
O11   O     O_2   0.314609 0.612291 0.808067 -0.599423
C44   C     C_2   0.639594 0.327327 0.184770 0.554787
H4    H     H_    0.675670 0.391730 0.203531 0.067419
O12   O     O_2   0.661511 0.256892 0.243247 -0.515383
Cl5   Cl    Cl    0.038662 0.693726 0.450378 -0.359885
Cl6   Cl    Cl    0.968617 0.317597 0.646104 -0.356256
Cl7   Cl    Cl    0.938707 0.663894 0.707250 -0.310226
Cl8   Cl    Cl    0.022794 0.348849 0.361569 -0.413682
C45   C     C_2   0.220445 0.679530 0.580578 0.649323
H5    H     H_    0.286317 0.701804 0.560284 0.086929
O13   O     O_2   0.177120 0.731643 0.649908 -0.429569
C46   C     C_2   0.778002 0.317516 0.533361 0.671322
H6    H     H_    0.737332 0.302525 0.450230 0.100925
O14   O     O_2   0.790989 0.255018 0.610540 -0.395137
C47   C     C_2   0.786060 0.677240 0.490429 0.677138
H7    H     H_    0.732320 0.681622 0.422795 0.055478
O15   O     O_2   0.822983 0.750593 0.519328 -0.389319
C48   C     C_2   0.221116 0.345356 0.388680 0.675633
H8    H     H_    0.259472 0.296790 0.447087 0.116858
O16   O     O_2   0.211547 0.329658 0.274729 -0.422652
Cl9   Cl    Cl    0.442903 0.045414 0.248559 -0.285976
Cl10  Cl    Cl    0.681793 0.943207 0.557753 -0.298937
Cl11  Cl    Cl    0.560262 0.049399 0.751831 -0.284982
Cl12  Cl    Cl    0.318999 0.948487 0.444757 -0.333217
Cl13  Cl    Cl    0.403340 0.259751 0.279113 -0.495645
Cl14  Cl    Cl    0.635533 0.739609 0.672809 -0.456979
Cl15  Cl    Cl    0.602965 0.262181 0.715469 -0.471635
Cl16  Cl    Cl    0.359079 0.740541 0.335092 -0.460433

loop_
_geom_bond_atom_site_label_1
_geom_bond_atom_site_label_2
_geom_bond_distance
_ccdc_geom_bond_type
C9    Cl4   1.770498 S    
C44   O12   1.219575 D    
C43   O11   1.221184 D    
C1    C27   1.482815 S    
C45   O13   1.223526 D    
C45   H5    1.070666 S    
O3    C2    1.302118 A    
C37   N1    1.373091 A    
C15   C18   1.414644 A    
O5    C3    1.295354 A    
C16   C17   1.408787 A    
C7    C13   1.419683 A    
O1    C1    1.289237 A    
C22   C26   1.402799 A    
C26   C27   1.426019 A    
C9    C11   1.402208 A    
C14   C16   1.395616 A    
C6    C42   1.491457 S    
C11   Cl2   1.770032 S    
C41   O9    1.221293 D    
Zn2   N1    2.010122 S    
C19   C23   1.389344 A    
C21   C30   1.384218 A    
C42   O10   1.220421 D    
C32   C36   1.406275 A    
C22   C29   1.404790 A    
O7    Zn1   1.963362 S    
C26   C48   1.473469 S    
C2    C28   1.489138 S    
C32   Cl10  1.768027 S    
C13   C17   1.413913 A    
C35   Cl13  1.750023 S    
O3    Zn1   2.006116 S    
C6    C10   1.413112 A    
C34   C40   1.416167 A    
C38   N2    1.367051 A    
C44   H4    1.085161 S    
C24   C28   1.441075 A    
C5    C41   1.484371 S    
O2    C2    1.298921 A    
C10   Cl3   1.767749 S    
C20   Cl6   1.775396 S    
C12   Cl1   1.767298 S    
C19   Cl5   1.777188 S    
C6    C16   1.418842 A    
C20   C24   1.408194 A    
C4    C17   1.473067 S    
C39   C40   1.515005 S    
C25   C28   1.431765 A    
C46   H6    1.080167 S    
C8    C14   1.418562 A    
C22   Cl8   1.777988 S    
O8    Zn2   1.963363 S    
C29   C30   1.490509 S    
C47   O15   1.221266 D    
C43   H3    1.082713 S    
C23   C27   1.435604 A    
Zn1   N2    2.010122 S    
C42   H2    1.085319 S    
C5    C9    1.411339 A    
C35   N1    1.372952 A    
O6    C4    1.298476 A    
C19   C29   1.395830 A    
C20   C30   1.393546 A    
C23   C45   1.493582 S    
C10   C12   1.406674 A    
C48   O16   1.221188 D    
C21   C25   1.387437 A    
O1    Zn1   2.014433 S    
O6    Zn2   1.956129 S    
C8    C12   1.415895 A    
C37   Cl15  1.756590 S    
C14   C18   1.410958 A    
C46   O14   1.220442 D    
O4    C1    1.307648 A    
C36   Cl14  1.755815 S    
C8    C44   1.490089 S    
C31   Cl9   1.771004 S    
C36   N2    1.365458 A    
C33   Cl11  1.768329 S    
C7    C43   1.481326 S    
C33   C39   1.412555 A    
C41   H1    1.081900 S    
C3    C18   1.474251 S    
C25   C47   1.489798 S    
C13   C15   1.396281 A    
O4    Zn2   2.006116 S    
O2    Zn2   2.014433 S    
O7    C4    1.294356 A    
C7    C11   1.408940 A    
C5    C15   1.422159 A    
O8    C3    1.298430 A    
C47   H7    1.071319 S    
O5    Zn1   1.956130 S    
C48   H8    1.084526 S    
C38   Cl16  1.759448 S    
C24   C46   1.484911 S    
C31   C35   1.411557 A    
C34   Cl12  1.768611 S    
C33   C37   1.412349 A    
C31   C39   1.411289 A    
C34   C38   1.407502 A    
C32   C40   1.415461 A    
C21   Cl7   1.771619 S    
