data_mof_unit_66424.cif
_audit_creation_date              2013-03-05T15:54:13-0500
_audit_creation_method            fapswitch 2.2
_symmetry_space_group_name_H-M    P1
_symmetry_Int_Tables_number       1
_space_group_crystal_system       triclinic
_cell_length_a                    24.351016
_cell_length_b                    24.350337
_cell_length_c                    27.690171
_cell_angle_alpha                 90.000255
_cell_angle_beta                  90.000133
_cell_angle_gamma                 90.000137
_cell_volume                      16419.0376919

loop_
_atom_site_label
_atom_site_type_symbol
_atom_site_description
_atom_site_fract_x
_atom_site_fract_y
_atom_site_fract_z
_atom_type_partial_charge
Zn1   Zn    Zn3+2 0.000000 0.565500 0.710070 1.120062
Zn2   Zn    Zn3+2 1.000000 0.434500 0.289930 1.120061
Zn3   Zn    Zn3+2 0.565500 1.000000 0.710070 1.120052
Zn4   Zn    Zn3+2 0.434500 0.000000 0.289930 1.120046
Zn5   Zn    Zn3+2 1.000000 0.434500 0.710070 1.120046
Zn6   Zn    Zn3+2 1.000000 0.565500 0.289930 1.120100
Zn7   Zn    Zn3+2 0.434500 1.000000 0.710070 1.120057
Zn8   Zn    Zn3+2 0.565500 0.000000 0.289930 1.120024
Zn9   Zn    Zn3+2 0.500000 0.065500 0.210070 1.120044
Zn10  Zn    Zn3+2 0.500000 0.934500 0.789930 1.120080
Zn11  Zn    Zn3+2 0.065500 0.500000 0.210070 1.120070
Zn12  Zn    Zn3+2 0.934500 0.500000 0.789930 1.120028
Zn13  Zn    Zn3+2 0.500000 0.934500 0.210070 1.120065
Zn14  Zn    Zn3+2 0.500000 0.065500 0.789930 1.120082
Zn15  Zn    Zn3+2 0.934500 0.500000 0.210070 1.120037
Zn16  Zn    Zn3+2 0.065500 0.500000 0.789930 1.120043
O1    O     O_3   1.000000 0.500000 0.750000 -0.552045
O2    O     O_3   1.000000 0.500000 0.250000 -0.552062
O3    O     O_3   0.500000 1.000000 0.750000 -0.552061
O4    O     O_3   0.500000 0.000000 0.250000 -0.552045
O5    O     O_R   0.954240 0.500000 0.856130 -0.620047
O6    O     O_R   0.045760 0.500000 0.143870 -0.619995
O7    O     O_R   0.500000 0.045760 0.856130 -0.620011
O8    O     O_R   0.500000 0.954240 0.143870 -0.620020
O9    O     O_R   0.045760 0.500000 0.856130 -0.620025
O10   O     O_R   0.954240 0.500000 0.143870 -0.620043
O11   O     O_R   0.500000 0.954240 0.856130 -0.620011
O12   O     O_R   0.500000 0.045760 0.143870 -0.620049
O13   O     O_R   0.454240 0.000000 0.356130 -0.620020
O14   O     O_R   0.545760 0.000000 0.643870 -0.620021
O15   O     O_R   1.000000 0.545760 0.356130 -0.619985
O16   O     O_R   1.000000 0.454240 0.643870 -0.620046
O17   O     O_R   0.545760 0.000000 0.356130 -0.620052
O18   O     O_R   0.454240 0.000000 0.643870 -0.620016
O19   O     O_R   0.000000 0.454240 0.356130 -0.620038
O20   O     O_R   0.000000 0.545760 0.643870 -0.620023
O21   O     O_R   0.110440 0.564520 0.777740 -0.610956
O22   O     O_R   0.889560 0.435480 0.222260 -0.610865
O23   O     O_R   0.564520 0.889560 0.777740 -0.610739
O24   O     O_R   0.435480 0.110440 0.222260 -0.610704
O25   O     O_R   0.889560 0.435480 0.777740 -0.610960
O26   O     O_R   0.110440 0.564520 0.222260 -0.610850
O27   O     O_R   0.435480 0.110440 0.777740 -0.610737
O28   O     O_R   0.564520 0.889560 0.222260 -0.610717
O29   O     O_R   0.110440 0.435480 0.222260 -0.610752
O30   O     O_R   0.889560 0.564520 0.777740 -0.610647
O31   O     O_R   0.564520 0.110440 0.222260 -0.610870
O32   O     O_R   0.435480 0.889560 0.777740 -0.610857
O33   O     O_R   0.889560 0.564520 0.222260 -0.610734
O34   O     O_R   0.110440 0.435480 0.777740 -0.610654
O35   O     O_R   0.435480 0.889560 0.222260 -0.610861
O36   O     O_R   0.564520 0.110440 0.777740 -0.610856
O37   O     O_R   0.610440 0.064520 0.277740 -0.610988
O38   O     O_R   0.389560 0.935480 0.722260 -0.610832
O39   O     O_R   0.064520 0.389560 0.277740 -0.610704
O40   O     O_R   0.935480 0.610440 0.722260 -0.610740
O41   O     O_R   0.389560 0.935480 0.277740 -0.610974
O42   O     O_R   0.610440 0.064520 0.722260 -0.610834
O43   O     O_R   0.935480 0.610440 0.277740 -0.610721
O44   O     O_R   0.064520 0.389560 0.722260 -0.610734
O45   O     O_R   0.610440 0.935480 0.722260 -0.610768
O46   O     O_R   0.389560 0.064520 0.277740 -0.610630
O47   O     O_R   0.064520 0.610440 0.722260 -0.610838
O48   O     O_R   0.935480 0.389560 0.277740 -0.610889
O49   O     O_R   0.389560 0.064520 0.722260 -0.610769
O50   O     O_R   0.610440 0.935480 0.277740 -0.610618
O51   O     O_R   0.935480 0.389560 0.722260 -0.610846
O52   O     O_R   0.064520 0.610440 0.277740 -0.610872
C1    C     C_1   0.000000 0.500000 0.569087 -0.066471
C2    C     C_1   0.000000 0.500000 0.430913 -0.066447
C3    C     C_1   0.500000 1.000000 0.569087 -0.066444
C4    C     C_1   0.500000 1.000000 0.430913 -0.066476
C5    C     C_1   0.500000 1.000000 0.069087 -0.066471
C6    C     C_1   0.500000 0.000000 0.930913 -0.066446
C7    C     C_1   1.000000 0.500000 0.069087 -0.066445
C8    C     C_1   0.000000 0.500000 0.930913 -0.066476
C9    C     C_1   0.000000 0.500000 0.525520 0.068925
C10   C     C_1   0.000000 0.500000 0.474480 0.068935
C11   C     C_1   0.500000 1.000000 0.525520 0.068925
C12   C     C_1   0.500000 1.000000 0.474480 0.068918
C13   C     C_1   0.500000 1.000000 0.025520 0.068925
C14   C     C_1   0.500000 0.000000 0.974480 0.068935
C15   C     C_1   1.000000 0.500000 0.025520 0.068924
C16   C     C_1   0.000000 0.500000 0.974480 0.068918
C17   C     C_R   1.000000 0.500000 0.879042 0.868013
C18   C     C_R   0.000000 0.500000 0.120958 0.868081
C19   C     C_R   0.500000 0.000000 0.879042 0.868119
C20   C     C_R   0.500000 1.000000 0.120958 0.868058
C21   C     C_R   0.500000 1.000000 0.379042 0.868010
C22   C     C_R   0.500000 0.000000 0.620958 0.868084
C23   C     C_R   1.000000 0.500000 0.379042 0.868116
C24   C     C_R   1.000000 0.500000 0.620958 0.868061
C25   C     C_R   0.105823 0.605822 0.749999 0.973134
C26   C     C_R   0.894182 0.394172 0.249995 0.973076
C27   C     C_R   0.605820 0.894179 0.749999 0.973386
C28   C     C_R   0.394178 0.105820 0.249998 0.973510
C29   C     C_R   0.894177 0.394177 0.749999 0.973117
C30   C     C_R   0.105817 0.605828 0.249995 0.973133
C31   C     C_R   0.394180 0.105822 0.749999 0.973390
C32   C     C_R   0.605822 0.894180 0.249998 0.973513
C33   C     C_R   0.105820 0.394179 0.249999 0.973441
C34   C     C_R   0.894178 0.605820 0.749998 0.973456
C35   C     C_R   0.605823 0.105822 0.249999 0.973043
C36   C     C_R   0.394183 0.894172 0.749995 0.973166
C37   C     C_R   0.894180 0.605822 0.249999 0.973444
C38   C     C_R   0.105822 0.394180 0.749998 0.973459
C39   C     C_R   0.394177 0.894177 0.249998 0.973094
C40   C     C_R   0.605817 0.105828 0.749995 0.973158
C41   C     C_R   0.695631 0.859219 0.777915 0.232591
C42   C     C_R   0.304465 0.140899 0.221971 0.232519
C43   C     C_R   0.859357 0.304171 0.777599 0.232483
C44   C     C_R   0.140613 0.695802 0.222329 0.232614
C45   C     C_R   0.304371 0.140783 0.777917 0.232593
C46   C     C_R   0.695533 0.859100 0.221967 0.232513
C47   C     C_R   0.140658 0.695812 0.777623 0.232481
C48   C     C_R   0.859426 0.304157 0.222391 0.232597
C49   C     C_R   0.695888 0.140526 0.222468 0.232585
C50   C     C_R   0.304268 0.859284 0.777726 0.232579
C51   C     C_R   0.859141 0.695575 0.222031 0.232526
C52   C     C_R   0.140827 0.304415 0.777983 0.232637
C53   C     C_R   0.304142 0.859442 0.222420 0.232593
C54   C     C_R   0.695735 0.140713 0.777723 0.232596
C55   C     C_R   0.140864 0.304428 0.222027 0.232522
C56   C     C_R   0.859175 0.695587 0.777982 0.232639
C57   C     C_R   0.195599 0.359188 0.277963 0.232594
C58   C     C_R   0.804433 0.640867 0.722019 0.232516
C59   C     C_R   0.359369 0.804159 0.277581 0.232491
C60   C     C_R   0.640626 0.195790 0.722310 0.232607
C61   C     C_R   0.804407 0.640818 0.277970 0.232589
C62   C     C_R   0.195569 0.359135 0.722021 0.232515
C63   C     C_R   0.640602 0.195870 0.277534 0.232478
C64   C     C_R   0.359369 0.804215 0.722302 0.232599
C65   C     C_R   0.195830 0.640583 0.722379 0.232585
C66   C     C_R   0.804210 0.359341 0.277638 0.232576
C67   C     C_R   0.359172 0.195607 0.722079 0.232522
C68   C     C_R   0.640858 0.804447 0.278031 0.232640
C69   C     C_R   0.804155 0.359430 0.722401 0.232586
C70   C     C_R   0.195748 0.640701 0.277704 0.232602
C71   C     C_R   0.640829 0.804392 0.722081 0.232525
C72   C     C_R   0.359140 0.195551 0.278035 0.232637
C73   C     C_R   0.648138 0.851876 0.750004 -0.267614
C74   C     C_R   0.351873 0.148139 0.250004 -0.267529
C75   C     C_R   0.851855 0.351871 0.749990 -0.267855
C76   C     C_R   0.148121 0.648155 0.249998 -0.267708
C77   C     C_R   0.351862 0.148124 0.750004 -0.267612
C78   C     C_R   0.648126 0.851860 0.250002 -0.267530
C79   C     C_R   0.148145 0.648127 0.749991 -0.267835
C80   C     C_R   0.851879 0.351846 0.249996 -0.267736
C81   C     C_R   0.648145 0.148127 0.249991 -0.267869
C82   C     C_R   0.351879 0.851846 0.749996 -0.267702
C83   C     C_R   0.851863 0.648125 0.250005 -0.267592
C84   C     C_R   0.148127 0.351861 0.750003 -0.267550
C85   C     C_R   0.351856 0.851872 0.249990 -0.267864
C86   C     C_R   0.648121 0.148155 0.749998 -0.267699
C87   C     C_R   0.148139 0.351877 0.250003 -0.267594
C88   C     C_R   0.851874 0.648140 0.750003 -0.267549
C89   C     C_R   0.684750 0.766800 0.717267 -0.082821
C90   C     C_R   0.315254 0.233199 0.282792 -0.082828
C91   C     C_R   0.766486 0.315572 0.717567 -0.082817
C92   C     C_R   0.233371 0.684590 0.282535 -0.082884
C93   C     C_R   0.315251 0.233201 0.717267 -0.082819
C94   C     C_R   0.684745 0.766801 0.282790 -0.082824
C95   C     C_R   0.233498 0.684442 0.717549 -0.082814
C96   C     C_R   0.766585 0.315455 0.282481 -0.082882
C97   C     C_R   0.684510 0.233457 0.282426 -0.082788
C98   C     C_R   0.315523 0.766530 0.717511 -0.082819
C99   C     C_R   0.766781 0.684718 0.282758 -0.082794
C100  C     C_R   0.233173 0.315220 0.717236 -0.082819
C101  C     C_R   0.315454 0.766578 0.282469 -0.082778
C102  C     C_R   0.684468 0.233479 0.717523 -0.082829
C103  C     C_R   0.233224 0.315288 0.282753 -0.082787
C104  C     C_R   0.766830 0.684782 0.717234 -0.082822
C105  C     C_R   0.184790 0.266840 0.217221 -0.082816
C106  C     C_R   0.815294 0.733239 0.782746 -0.082832
C107  C     C_R   0.266472 0.815586 0.217583 -0.082819
C108  C     C_R   0.733357 0.184604 0.782551 -0.082882
C109  C     C_R   0.815214 0.733163 0.217225 -0.082810
C110  C     C_R   0.184709 0.266764 0.782748 -0.082834
C111  C     C_R   0.733565 0.184376 0.217627 -0.082827
C112  C     C_R   0.266651 0.815388 0.782558 -0.082869
C113  C     C_R   0.184576 0.733391 0.782503 -0.082774
C114  C     C_R   0.815590 0.266463 0.217589 -0.082832
C115  C     C_R   0.266742 0.184678 0.782712 -0.082798
C116  C     C_R   0.733133 0.815180 0.217190 -0.082814
C117  C     C_R   0.815441 0.266592 0.782484 -0.082774
C118  C     C_R   0.184454 0.733493 0.217539 -0.082832
C119  C     C_R   0.733261 0.815325 0.782710 -0.082797
C120  C     C_R   0.266867 0.184819 0.217192 -0.082812
C121  C     C_R   0.729535 0.770538 0.749989 -0.035257
C122  C     C_R   0.270539 0.229536 0.249991 -0.035205
C123  C     C_R   0.770433 0.270559 0.750030 -0.035360
C124  C     C_R   0.229432 0.729563 0.250034 -0.035282
C125  C     C_R   0.270466 0.229464 0.749990 -0.035257
C126  C     C_R   0.729462 0.770465 0.249991 -0.035205
C127  C     C_R   0.229567 0.729439 0.750029 -0.035355
C128  C     C_R   0.770568 0.270437 0.250032 -0.035296
C129  C     C_R   0.729568 0.229439 0.250030 -0.035364
C130  C     C_R   0.270568 0.770437 0.750032 -0.035287
C131  C     C_R   0.770467 0.729464 0.249991 -0.035249
C132  C     C_R   0.229463 0.270465 0.749992 -0.035212
C133  C     C_R   0.270433 0.770559 0.250030 -0.035363
C134  C     C_R   0.729432 0.229563 0.750034 -0.035279
C135  C     C_R   0.229536 0.270539 0.249989 -0.035250
C136  C     C_R   0.770539 0.729537 0.749990 -0.035212
C137  C     C_R   0.686527 0.727360 0.679622 0.253825
C138  C     C_R   0.313447 0.272636 0.320444 0.253773
C139  C     C_R   0.726765 0.314080 0.680140 0.253662
C140  C     C_R   0.273053 0.686139 0.319988 0.253855
C141  C     C_R   0.313474 0.272641 0.679623 0.253823
C142  C     C_R   0.686553 0.727368 0.320443 0.253775
C143  C     C_R   0.273206 0.685949 0.680111 0.253678
C144  C     C_R   0.726858 0.313953 0.319899 0.253838
C145  C     C_R   0.686005 0.273157 0.319860 0.253889
C146  C     C_R   0.313999 0.726816 0.680075 0.253705
C147  C     C_R   0.727360 0.686515 0.320418 0.253778
C148  C     C_R   0.272611 0.313433 0.679591 0.253885
C149  C     C_R   0.313915 0.726927 0.319940 0.253896
C150  C     C_R   0.685979 0.273207 0.680096 0.253707
C151  C     C_R   0.272644 0.313493 0.320413 0.253780
C152  C     C_R   0.727390 0.686570 0.679590 0.253885
C153  C     C_R   0.186611 0.227442 0.179543 0.253842
C154  C     C_R   0.813530 0.772717 0.820365 0.253758
C155  C     C_R   0.226736 0.814109 0.180168 0.253653
C156  C     C_R   0.773025 0.186167 0.820016 0.253862
C157  C     C_R   0.813394 0.772560 0.179547 0.253843
C158  C     C_R   0.186474 0.227287 0.820368 0.253756
C159  C     C_R   0.773348 0.185807 0.180248 0.253648
C160  C     C_R   0.227000 0.813812 0.820035 0.253868
C161  C     C_R   0.186146 0.773016 0.819996 0.253918
C162  C     C_R   0.814141 0.226674 0.180212 0.253676
C163  C     C_R   0.227279 0.186432 0.820339 0.253761
C164  C     C_R   0.772530 0.813349 0.179513 0.253900
C165  C     C_R   0.813887 0.226955 0.819968 0.253904
C166  C     C_R   0.185950 0.773235 0.180124 0.253700
C167  C     C_R   0.772726 0.813572 0.820336 0.253760
C168  C     C_R   0.227472 0.186650 0.179513 0.253904
Br1   Br    Br    0.640611 0.734244 0.622598 -0.186968
Br2   Br    Br    0.359206 0.265670 0.377557 -0.187027
Br3   Br    Br    0.733221 0.360435 0.623351 -0.186655
Br4   Br    Br    0.266439 0.640020 0.376901 -0.186936
Br5   Br    Br    0.359387 0.265756 0.622598 -0.186976
Br6   Br    Br    0.640787 0.734333 0.377553 -0.187022
Br7   Br    Br    0.266718 0.639633 0.623301 -0.186643
Br8   Br    Br    0.733399 0.360156 0.376766 -0.186883
Br9   Br    Br    0.639691 0.266604 0.376659 -0.186996
Br10  Br    Br    0.360166 0.733387 0.623179 -0.186791
Br11  Br    Br    0.734295 0.640651 0.377471 -0.187012
Br12  Br    Br    0.265613 0.359196 0.622483 -0.187189
Br13  Br    Br    0.360175 0.733544 0.376768 -0.187056
Br14  Br    Br    0.639806 0.266649 0.623203 -0.186815
Br15  Br    Br    0.265714 0.359369 0.377459 -0.186995
Br16  Br    Br    0.734390 0.640808 0.622480 -0.187194
Br17  Br    Br    0.140764 0.234392 0.122483 -0.187091
Br18  Br    Br    0.859358 0.765817 0.877442 -0.186906
Br19  Br    Br    0.233170 0.860486 0.123392 -0.186558
Br20  Br    Br    0.766391 0.140070 0.876940 -0.187033
Br21  Br    Br    0.859247 0.765611 0.122490 -0.187082
Br22  Br    Br    0.140647 0.234189 0.877445 -0.186917
Br23  Br    Br    0.766973 0.139377 0.123500 -0.186504
Br24  Br    Br    0.233653 0.859901 0.876963 -0.187022
Br25  Br    Br    0.139946 0.766349 0.876857 -0.187137
Br26  Br    Br    0.860422 0.233131 0.123378 -0.186651
Br27  Br    Br    0.234149 0.140499 0.877356 -0.186890
Br28  Br    Br    0.765466 0.859044 0.122368 -0.187311
Br29  Br    Br    0.860124 0.233594 0.876808 -0.187153
Br30  Br    Br    0.139755 0.766699 0.123243 -0.186717
Br31  Br    Br    0.765860 0.859510 0.877351 -0.186890
Br32  Br    Br    0.234535 0.140949 0.122372 -0.187300
N1    N     N_R   0.707419 0.912536 0.797627 0.236290
O53   O     O_R   0.753332 0.936943 0.786792 -0.249494
O54   O     O_R   0.671930 0.937547 0.825045 -0.326313
N2    N     N_R   0.292701 0.087642 0.202121 0.236294
O55   O     O_R   0.246723 0.063250 0.212769 -0.249099
O56   O     O_R   0.328260 0.062678 0.174739 -0.326383
N3    N     N_R   0.912818 0.292127 0.796881 0.236449
O57   O     O_R   0.936913 0.246116 0.785820 -0.250319
O58   O     O_R   0.938218 0.327419 0.824221 -0.325871
N4    N     N_R   0.087200 0.707655 0.202859 0.236250
O59   O     O_R   0.062781 0.753463 0.214013 -0.250169
O60   O     O_R   0.062110 0.672301 0.175358 -0.326122
N5    N     N_R   0.292584 0.087468 0.797632 0.236288
O61   O     O_R   0.246672 0.063058 0.786797 -0.249500
O62   O     O_R   0.328074 0.062459 0.825051 -0.326309
N6    N     N_R   0.707293 0.912354 0.202112 0.236304
O63   O     O_R   0.753268 0.936752 0.212758 -0.249025
O64   O     O_R   0.671733 0.937308 0.174723 -0.326378
N7    N     N_R   0.087209 0.707847 0.796934 0.236437
O65   O     O_R   0.063105 0.753862 0.785901 -0.250286
O66   O     O_R   0.061824 0.672540 0.824270 -0.325897
N8    N     N_R   0.912867 0.292273 0.202995 0.236283
O67   O     O_R   0.937264 0.246476 0.214224 -0.250265
O68   O     O_R   0.938000 0.327584 0.175483 -0.326030
N9    N     N_R   0.707830 0.087040 0.203182 0.236366
O69   O     O_R   0.753638 0.062711 0.214487 -0.250460
O70   O     O_R   0.672572 0.061809 0.175692 -0.325898
N10   N     N_R   0.292368 0.912676 0.797234 0.236320
O71   O     O_R   0.246459 0.936989 0.786216 -0.249996
O72   O     O_R   0.327736 0.937824 0.824670 -0.326076
N11   N     N_R   0.912428 0.707379 0.202265 0.236302
O73   O     O_R   0.936791 0.753347 0.213005 -0.249314
O74   O     O_R   0.937452 0.671864 0.174882 -0.326339
N12   N     N_R   0.087556 0.292709 0.797821 0.236233
O75   O     O_R   0.063032 0.246845 0.787027 -0.249215
O76   O     O_R   0.062696 0.328239 0.825303 -0.326358
N13   N     N_R   0.292215 0.912910 0.203088 0.236350
O77   O     O_R   0.246391 0.937243 0.214337 -0.250394
O78   O     O_R   0.327501 0.938123 0.175614 -0.325955
N14   N     N_R   0.707628 0.087321 0.797229 0.236308
O79   O     O_R   0.753522 0.062990 0.786195 -0.249999
O80   O     O_R   0.672264 0.062186 0.824680 -0.326080
N15   N     N_R   0.087581 0.292630 0.202252 0.236314
O81   O     O_R   0.063211 0.246664 0.212986 -0.249211
O82   O     O_R   0.062570 0.328145 0.174860 -0.326325
N16   N     N_R   0.912447 0.707295 0.797817 0.236226
O83   O     O_R   0.936969 0.753159 0.787022 -0.249252
O84   O     O_R   0.937312 0.671764 0.825296 -0.326364
N17   N     N_R   0.207368 0.412484 0.297729 0.236281
O85   O     O_R   0.253294 0.436900 0.286953 -0.249399
O86   O     O_R   0.171848 0.437471 0.325133 -0.326375
N18   N     N_R   0.792649 0.587590 0.702222 0.236303
O87   O     O_R   0.746685 0.563206 0.712930 -0.249193
O88   O     O_R   0.828178 0.562602 0.674826 -0.326319
N19   N     N_R   0.412838 0.792105 0.296840 0.236441
O89   O     O_R   0.436926 0.746097 0.285757 -0.250421
O90   O     O_R   0.438253 0.827387 0.324180 -0.325855
N20   N     N_R   0.587221 0.207632 0.702818 0.236258
O91   O     O_R   0.562795 0.253444 0.713949 -0.250066
O92   O     O_R   0.562146 0.172268 0.675316 -0.326140
N21   N     N_R   0.792647 0.587528 0.297749 0.236292
O93   O     O_R   0.746724 0.563101 0.286979 -0.249292
O94   O     O_R   0.828169 0.562559 0.325164 -0.326363
N22   N     N_R   0.207355 0.412414 0.702228 0.236300
O95   O     O_R   0.253320 0.436795 0.712940 -0.249234
O96   O     O_R   0.171827 0.437408 0.674836 -0.326322
N23   N     N_R   0.587114 0.207942 0.296745 0.236454
O97   O     O_R   0.563031 0.253933 0.285602 -0.250491
O98   O     O_R   0.561679 0.172690 0.324101 -0.325794
N24   N     N_R   0.412772 0.792368 0.702806 0.236266
O99   O     O_R   0.437188 0.746547 0.713925 -0.250059
O100  O     O_R   0.437855 0.827736 0.675314 -0.326134
N25   N     N_R   0.207735 0.587135 0.702993 0.236349
O101  O     O_R   0.253567 0.562786 0.714189 -0.250254
O102  O     O_R   0.172421 0.561954 0.675523 -0.326002
N26   N     N_R   0.792273 0.412770 0.297046 0.236337
O103  O     O_R   0.746387 0.437064 0.285919 -0.250200
O104  O     O_R   0.827585 0.437970 0.324501 -0.325972
N27   N     N_R   0.412479 0.207430 0.702366 0.236312
O105  O     O_R   0.436835 0.253384 0.713166 -0.249408
O106  O     O_R   0.437528 0.171946 0.674970 -0.326277
N28   N     N_R   0.587607 0.792760 0.297921 0.236224
O107  O     O_R   0.563075 0.746883 0.287186 -0.249122
O108  O     O_R   0.562771 0.828321 0.325389 -0.326421
N29   N     N_R   0.792237 0.412889 0.703047 0.236357
O109  O     O_R   0.746410 0.437229 0.714273 -0.250290
O110  O     O_R   0.827534 0.438087 0.675572 -0.325972
N30   N     N_R   0.207650 0.587300 0.297188 0.236300
O111  O     O_R   0.253542 0.562977 0.286132 -0.250101
O112  O     O_R   0.172297 0.562150 0.324638 -0.326062
N31   N     N_R   0.587520 0.792567 0.702369 0.236309
O113  O     O_R   0.563167 0.746612 0.713169 -0.249420
O114  O     O_R   0.562470 0.828050 0.674973 -0.326270
N32   N     N_R   0.412387 0.207232 0.297933 0.236229
O115  O     O_R   0.436926 0.253107 0.287204 -0.249043
O116  O     O_R   0.437211 0.171670 0.325409 -0.326420

loop_
_geom_bond_atom_site_label_1
_geom_bond_atom_site_label_2
_geom_bond_distance
_ccdc_geom_bond_type
C117  C165  1.417837 A    
C137  C152  1.405963 A    
C147  Br11  1.942058 S    
C64   C82   1.402348 A    
C106  C154  1.418112 A    
Zn5   O51   1.944192 S    
O13   C21   1.282256 A    
C68   C94   1.414151 A    
N6    O63   1.301248 A    
Zn1   O40   1.944193 S    
O27   C31   1.270486 A    
Zn2   O39   1.944191 S    
C33   C87   1.457044 S    
C140  C149  1.405880 A    
C36   C82   1.457187 S    
C41   N1    1.437310 S    
Zn13  O35   1.944191 S    
Zn14  O36   1.944189 S    
C47   N7    1.437307 S    
N2    O55   1.301250 A    
N7    O66   1.301618 A    
Zn3   O3    1.940750 S    
N20   O91   1.301232 A    
C1    C24   1.436317 S    
C60   C86   1.402334 A    
C127  C130  1.411887 A    
C167  Br31  1.942058 S    
C150  Br14  1.942034 S    
C8    C16   1.206380 T    
C65   C95   1.414166 A    
C5    C13   1.206378 T    
C160  C161  1.405887 A    
N29   O110  1.301536 A    
N12   O76   1.301576 A    
C154  Br18  1.942031 S    
C37   C83   1.457041 S    
C38   C84   1.457103 S    
N19   O89   1.301280 A    
C58   C104  1.414041 A    
C89   C137  1.418029 A    
C142  Br6   1.942032 S    
N23   O98   1.301617 A    
C94   C142  1.418110 A    
N16   O83   1.301226 A    
C49   N9    1.437362 S    
C156  C165  1.405877 A    
C98   C130  1.420685 A    
C5    C20   1.436317 S    
C7    C18   1.436317 S    
C65   N25   1.437372 S    
C138  Br2   1.942037 S    
C107  C133  1.420797 A    
N10   O71   1.301285 A    
Zn7   O3    1.940745 S    
N1    O54   1.301597 A    
C153  C168  1.405962 A    
C62   C84   1.402269 A    
C63   C81   1.402470 A    
C156  Br20  1.941816 S    
C106  C136  1.420737 A    
Zn16  O9    1.895071 S    
C53   N13   1.437356 S    
Zn13  O4    1.940709 S    
C30   C76   1.457216 S    
Zn14  O3    1.940705 S    
O15   C23   1.282236 A    
C72   C74   1.402366 A    
C128  C129  1.411878 A    
C91   C139  1.418078 A    
C138  C151  1.406059 A    
C148  Br12  1.942028 S    
C105  C135  1.420772 A    
O48   C26   1.270479 A    
C42   N2    1.437316 S    
C53   C107  1.414152 A    
C96   C144  1.417987 A    
C54   C108  1.414006 A    
C48   N8    1.437251 S    
Zn15  O33   1.944172 S    
N28   O107  1.301223 A    
C57   C103  1.414120 A    
C44   N4    1.437248 S    
C102  C134  1.420694 A    
C112  C130  1.420694 A    
N23   O97   1.301279 A    
Zn4   O4    1.940750 S    
C70   C92   1.414005 A    
C144  C145  1.405883 A    
C71   C89   1.414070 A    
O35   C39   1.270498 A    
N31   O113  1.301268 A    
C107  C155  1.418076 A    
C49   C81   1.402383 A    
C51   C109  1.414073 A    
C8    C17   1.436317 S    
Zn13  O28   1.944192 S    
C68   C78   1.402365 A    
C49   C111  1.414161 A    
Zn9   O12   1.895064 S    
Zn14  O27   1.944193 S    
C50   C112  1.414013 A    
Zn10  O11   1.895064 S    
Zn15  O2    1.940747 S    
Zn11  O2    1.940750 S    
Zn4   O46   1.944174 S    
C1    C9    1.206378 T    
C2    C23   1.436317 S    
C146  Br10  1.942039 S    
C99   C147  1.418040 A    
C3    C11   1.206380 T    
O16   C24   1.282236 A    
C41   C119  1.414116 A    
C42   C120  1.414044 A    
C50   N10   1.437353 S    
C90   C122  1.420737 A    
C56   C106  1.414148 A    
N32   O115  1.301225 A    
C142  C147  1.406060 A    
C120  C122  1.420747 A    
O50   C32   1.270477 A    
C72   C90   1.414152 A    
C114  C162  1.418146 A    
N13   O78   1.301537 A    
C48   C114  1.414073 A    
C65   C79   1.402383 A    
C59   N19   1.437297 S    
C6    C19   1.436317 S    
C104  C152  1.418018 A    
C43   C75   1.402487 A    
C31   C77   1.457041 S    
C54   N14   1.437329 S    
N21   O94   1.301598 A    
O22   C26   1.270533 A    
C149  Br13  1.941909 S    
O9    C17   1.282261 A    
N14   O80   1.301509 A    
O52   C30   1.270477 A    
N25   O102  1.301541 A    
C26   C80   1.457194 S    
C153  Br17  1.942025 S    
C157  C164  1.405964 A    
C93   C125  1.420773 A    
C108  C134  1.420703 A    
C66   N26   1.437345 S    
N22   O95   1.301248 A    
Zn12  O30   1.944174 S    
C115  C163  1.418034 A    
C116  C164  1.418020 A    
C141  Br5   1.942026 S    
O51   C29   1.270498 A    
N19   O90   1.301617 A    
N18   O88   1.301617 A    
O11   C19   1.282233 A    
N9    O69   1.301246 A    
O17   C21   1.282261 A    
C92   C140  1.418005 A    
C15   C16   1.413292 S    
N30   O112  1.301507 A    
O21   C25   1.270513 A    
C145  Br9   1.941916 S    
O23   C27   1.270491 A    
C39   C85   1.457159 S    
C97   C145  1.417844 A    
N24   O100  1.301644 A    
N15   O82   1.301594 A    
O25   C29   1.270513 A    
C34   C88   1.457106 S    
O44   C38   1.270478 A    
O34   C38   1.270473 A    
C163  Br27  1.942060 S    
C164  Br28  1.942031 S    
Zn5   O44   1.944193 S    
Zn6   O43   1.944193 S    
C51   N11   1.437338 S    
Zn8   O37   1.944170 S    
C96   C128  1.420688 A    
C161  Br25  1.941914 S    
C59   C101  1.413961 A    
Zn1   O1    1.940715 S    
C100  C148  1.418017 A    
N6    O64   1.301615 A    
O40   C34   1.270479 A    
C4    C12   1.206380 T    
C70   C76   1.402348 A    
C70   N30   1.437338 S    
C71   C73   1.402299 A    
C45   C115  1.414116 A    
C3    C22   1.436317 S    
C104  C136  1.420741 A    
C116  C126  1.420749 A    
C111  C159  1.418082 A    
C109  C157  1.418032 A    
C62   C100  1.414042 A    
C143  C146  1.406066 A    
C40   C86   1.457218 S    
N26   O103  1.301285 A    
C63   C97   1.413966 A    
N2    O56   1.301615 A    
C109  C131  1.420779 A    
C99   C131  1.420735 A    
N4    O59   1.301233 A    
C55   N15   1.437317 S    
C103  C151  1.418037 A    
Zn1   O20   1.895064 S    
C118  C166  1.418166 A    
Zn2   O19   1.895064 S    
C101  C149  1.417836 A    
C162  Br26  1.942041 S    
O46   C28   1.270473 A    
N3    O57   1.301278 A    
O14   C22   1.282256 A    
C105  C153  1.418034 A    
C158  Br22  1.942031 S    
N29   O109  1.301258 A    
C55   C87   1.402298 A    
C9    C10   1.413287 S    
Zn8   O50   1.944174 S    
O43   C37   1.270479 A    
C53   C85   1.402397 A    
C137  Br1   1.942026 S    
O38   C36   1.270531 A    
C2    C10   1.206378 T    
Zn16  O34   1.944174 S    
C61   C83   1.402403 A    
O26   C30   1.270529 A    
Zn5   O1    1.940707 S    
N16   O84   1.301578 A    
C47   C79   1.402473 A    
Zn11  O26   1.944167 S    
N8    O67   1.301233 A    
C45   C77   1.402407 A    
C50   C82   1.402348 A    
C52   C110  1.414149 A    
C57   N17   1.437318 S    
Zn16  O1    1.940744 S    
C67   C77   1.402297 A    
Zn12  O1    1.940750 S    
C124  C133  1.411854 A    
C108  C156  1.418005 A    
Zn4   O13   1.895068 S    
C139  Br3   1.942047 S    
Zn16  O21   1.944170 S    
Zn5   O16   1.895068 S    
O20   C24   1.282233 A    
N10   O72   1.301511 A    
Zn6   O15   1.895068 S    
C151  Br15  1.942060 S    
N1    O53   1.301246 A    
C140  Br4   1.941814 S    
O24   C28   1.270483 A    
C52   N12   1.437277 S    
C55   C105  1.414073 A    
N17   O86   1.301599 A    
C117  C123  1.420604 A    
C121  C136  1.412014 A    
O5    C17   1.282256 A    
C154  C167  1.406059 A    
O31   C35   1.270496 A    
C69   C91   1.414152 A    
C90   C138  1.418115 A    
C91   C123  1.420799 A    
C92   C124  1.420697 A    
N27   O105  1.301265 A    
C48   C80   1.402350 A    
O33   C37   1.270461 A    
C93   C141  1.418033 A    
C112  C160  1.417987 A    
Zn9   O24   1.944193 S    
Zn10  O23   1.944191 S    
N11   O73   1.301266 A    
Zn12  O25   1.944169 S    
C155  C166  1.406061 A    
C97   C129  1.420599 A    
Zn7   O49   1.944174 S    
Zn9   O4    1.940715 S    
N7    O65   1.301282 A    
C95   C127  1.420770 A    
Zn10  O3    1.940715 S    
C160  Br24  1.941821 S    
N28   O108  1.301577 A    
O8    C20   1.282236 A    
O49   C31   1.270458 A    
O29   C33   1.270453 A    
C27   C73   1.457044 S    
Zn10  O32   1.944188 S    
Zn7   O18   1.895070 S    
C60   N20   1.437243 S    
Zn11  O29   1.944176 S    
N5    O62   1.301597 A    
C68   N28   1.437285 S    
C110  C132  1.420734 A    
C139  C150  1.406058 A    
C100  C132  1.420748 A    
C41   C73   1.402406 A    
C64   C98   1.414078 A    
O45   C27   1.270461 A    
C125  C132  1.412016 A    
O47   C25   1.270494 A    
C67   N27   1.437331 S    
C67   C93   1.414071 A    
C58   N18   1.437306 S    
C7    C15   1.206380 T    
N32   O116  1.301579 A    
O37   C35   1.270515 A    
C115  C125  1.420736 A    
C66   C96   1.414007 A    
O42   C40   1.270529 A    
O6    C18   1.282256 A    
C103  C135  1.420736 A    
C113  C127  1.420602 A    
C35   C81   1.457156 S    
C101  C133  1.420602 A    
Zn3   O42   1.944167 S    
N9    O70   1.301538 A    
N13   O77   1.301257 A    
C168  Br32  1.942027 S    
C69   N29   1.437350 S    
Zn7   O38   1.944174 S    
C45   N5    1.437312 S    
N15   O81   1.301265 A    
C60   C102  1.414073 A    
Zn2   O2    1.940715 S    
O28   C32   1.270470 A    
N21   O93   1.301242 A    
C61   N21   1.437308 S    
C59   C85   1.402494 A    
C13   C14   1.413287 S    
N25   O101  1.301243 A    
C72   N32   1.437267 S    
O30   C34   1.270479 A    
Zn8   O4    1.940744 S    
N3    O58   1.301617 A    
N22   O96   1.301614 A    
C44   C118  1.414076 A    
C46   C116  1.414047 A    
C122  C135  1.412019 A    
C166  Br30  1.942033 S    
C158  C163  1.406060 A    
O32   C36   1.270478 A    
C64   N24   1.437259 S    
C42   C74   1.402266 A    
C29   C75   1.457163 S    
C71   N31   1.437322 S    
C32   C78   1.457103 S    
Zn4   O41   1.944169 S    
O12   C20   1.282233 A    
C123  C134  1.411857 A    
C43   N3    1.437293 S    
C120  C168  1.418016 A    
C159  Br23  1.942046 S    
C63   N23   1.437299 S    
Zn6   O52   1.944189 S    
C69   C75   1.402391 A    
O7    C19   1.282236 A    
C54   C86   1.402342 A    
Zn1   O47   1.944186 S    
C47   C113  1.413970 A    
Zn2   O48   1.944188 S    
Zn3   O45   1.944176 S    
C51   C83   1.402293 A    
Zn6   O2    1.940705 S    
C43   C117  1.413960 A    
C141  C148  1.405964 A    
C119  C121  1.420732 A    
C61   C99   1.414119 A    
C46   C78   1.402267 A    
C113  C161  1.417844 A    
C95   C143  1.418087 A    
Zn15  O10   1.895071 S    
C111  C129  1.420769 A    
N5    O61   1.301246 A    
C165  Br29  1.941917 S    
Zn12  O5    1.895068 S    
Zn13  O8    1.895068 S    
Zn14  O7    1.895068 S    
Zn3   O14   1.895068 S    
C56   N16   1.437275 S    
O18   C22   1.282261 A    
Zn15  O22   1.944172 S    
N27   O106  1.301593 A    
C126  C131  1.412021 A    
O10   C18   1.282261 A    
C94   C126  1.420738 A    
C143  Br7   1.942045 S    
C62   N22   1.437317 S    
N31   O114  1.301593 A    
N11   O74   1.301592 A    
C98   C146  1.418148 A    
C46   N6    1.437309 S    
O41   C39   1.270515 A    
N26   O104  1.301508 A    
C52   C84   1.402369 A    
C56   C88   1.402367 A    
N4    O60   1.301647 A    
C114  C128  1.420678 A    
N14   O79   1.301279 A    
C6    C14   1.206378 T    
N12   O75   1.301224 A    
N20   O92   1.301645 A    
Zn9   O31   1.944186 S    
C66   C80   1.402347 A    
O39   C33   1.270495 A    
Zn11  O6    1.895068 S    
N18   O87   1.301247 A    
C44   C76   1.402338 A    
C152  Br16  1.942028 S    
C157  Br21  1.942025 S    
C144  Br8   1.941821 S    
C4    C21   1.436317 S    
N30   O111  1.301282 A    
C25   C79   1.457147 S    
N8    O68   1.301641 A    
Zn8   O17   1.895071 S    
C118  C124  1.420695 A    
N17   O85   1.301245 A    
C89   C121  1.420771 A    
C110  C158  1.418113 A    
C28   C74   1.457103 S    
C11   C12   1.413292 S    
C155  Br19  1.942042 S    
C159  C162  1.406066 A    
O36   C40   1.270477 A    
N24   O99   1.301235 A    
C119  C167  1.418039 A    
C57   C87   1.402398 A    
O19   C23   1.282233 A    
C102  C150  1.418169 A    
C58   C88   1.402271 A    
