data_mof_unit_14782.cif
_audit_creation_date              2012-12-11T14:49:47-0500
_audit_creation_method            fapswitch 2.2
_symmetry_space_group_name_H-M    P1
_symmetry_Int_Tables_number       1
_space_group_crystal_system       monoclinic
_cell_length_a                    11.254811
_cell_length_b                    11.254812
_cell_length_c                    18.99124
_cell_angle_alpha                 90.0
_cell_angle_beta                  90.0
_cell_angle_gamma                 120.000183
_cell_volume                      2083.33737106

loop_
_atom_site_label
_atom_site_type_symbol
_atom_type_description
_atom_site_fract_x
_atom_site_fract_y
_atom_site_fract_z
_atom_type_partial_charge
C1    C     C_R   0.530676 0.465938 0.645930 0.569708
C2    C     C_R   0.465938 0.530676 0.354070 0.569708
C3    C     C_R   0.469324 0.935261 0.145930 0.569707
C4    C     C_R   0.064739 0.534062 0.354070 0.569708
C5    C     C_R   0.388822 0.015894 0.536018 0.219986
C6    C     C_R   0.627073 0.611178 0.963982 0.219987
C7    C     C_R   0.984106 0.372928 0.536018 0.219985
C8    C     C_R   0.388822 0.015895 0.963982 0.219986
C9    C     C_R   0.627073 0.611178 0.536018 0.219986
C10   C     C_R   0.984105 0.372927 0.963982 0.219986
C11   C     C_R   0.015894 0.388822 0.036018 0.219985
C12   C     C_R   0.935261 0.469324 0.854070 0.569707
C13   C     C_R   0.611178 0.627073 0.463982 0.219987
C14   C     C_R   0.372928 0.984106 0.036018 0.219985
C15   C     C_R   0.015895 0.388822 0.463983 0.219987
C16   C     C_R   0.611179 0.627073 0.036018 0.219986
C17   C     C_R   0.372927 0.984105 0.463982 0.219986
C18   C     C_R   0.483424 0.988025 0.426277 -0.071762
C19   C     C_R   0.504600 0.516576 0.073723 -0.071764
C20   C     C_R   0.011975 0.495399 0.426277 -0.071762
C21   C     C_R   0.483424 0.988024 0.073723 -0.071764
C22   C     C_R   0.504601 0.516575 0.426277 -0.071762
C23   C     C_R   0.534062 0.064739 0.645930 0.569707
C24   C     C_R   0.011976 0.495400 0.073723 -0.071764
C25   C     C_R   0.988025 0.483424 0.926277 -0.071763
C26   C     C_R   0.516576 0.504600 0.573723 -0.071764
C27   C     C_R   0.495399 0.011975 0.926277 -0.071762
C28   C     C_R   0.988024 0.483424 0.573723 -0.071764
C29   C     C_R   0.516576 0.504601 0.926277 -0.071763
C30   C     C_R   0.495400 0.011976 0.573723 -0.071764
C31   C     C_R   0.598580 0.009892 0.464136 0.212260
C32   C     C_R   0.411308 0.401421 0.035863 0.212260
C33   C     C_R   0.990108 0.588688 0.464136 0.212260
C34   C     C_R   0.530676 0.465938 0.854070 0.569708
C35   C     C_R   0.598578 0.009887 0.035863 0.212259
C36   C     C_R   0.411312 0.401419 0.464136 0.212260
C37   C     C_R   0.990112 0.588691 0.035863 0.212260
C38   C     C_R   0.009891 0.598580 0.964137 0.212259
C39   C     C_R   0.401422 0.411308 0.535863 0.212261
C40   C     C_R   0.588688 0.990109 0.964136 0.212260
C41   C     C_R   0.009887 0.598579 0.535863 0.212260
C42   C     C_R   0.401419 0.411311 0.964136 0.212260
C43   C     C_R   0.588691 0.990113 0.535863 0.212261
C44   C     C_R   0.935261 0.469324 0.645930 0.569707
C45   C     C_R   0.534062 0.064739 0.854070 0.569707
C46   C     C_R   0.465938 0.530676 0.145930 0.569708
C47   C     C_R   0.469324 0.935261 0.354070 0.569708
C48   C     C_R   0.064739 0.534062 0.145930 0.569707
Cl1   Cl    Cl    0.276429 0.062706 0.575449 -0.255321
Cl2   Cl    Cl    0.062710 0.276431 0.424552 -0.255321
Cl3   Cl    Cl    0.723572 0.786277 0.075449 -0.255319
Cl4   Cl    Cl    0.213721 0.937290 0.424552 -0.255321
Cl5   Cl    Cl    0.759008 0.077296 0.424228 -0.329429
Cl6   Cl    Cl    0.318284 0.240993 0.075771 -0.329422
Cl7   Cl    Cl    0.922703 0.681711 0.424228 -0.329430
Cl8   Cl    Cl    0.759007 0.077291 0.075771 -0.329424
Cl9   Cl    Cl    0.318287 0.240991 0.424227 -0.329427
Cl10  Cl    Cl    0.922708 0.681714 0.075771 -0.329425
Cl11  Cl    Cl    0.077295 0.759008 0.924228 -0.329427
Cl12  Cl    Cl    0.786279 0.723571 0.924551 -0.255319
Cl13  Cl    Cl    0.240993 0.318284 0.575770 -0.329422
Cl14  Cl    Cl    0.681711 0.922704 0.924228 -0.329429
Cl15  Cl    Cl    0.077291 0.759007 0.575770 -0.329424
Cl16  Cl    Cl    0.240991 0.318287 0.924228 -0.329426
Cl17  Cl    Cl    0.681715 0.922708 0.575771 -0.329424
Cl18  Cl    Cl    0.937294 0.213723 0.575449 -0.255320
Cl19  Cl    Cl    0.276431 0.062709 0.924552 -0.255321
Cl20  Cl    Cl    0.786277 0.723572 0.575449 -0.255319
Cl21  Cl    Cl    0.937291 0.213721 0.924551 -0.255320
Cl22  Cl    Cl    0.062706 0.276429 0.075449 -0.255321
Cl23  Cl    Cl    0.723570 0.786279 0.424552 -0.255319
Cl24  Cl    Cl    0.213723 0.937294 0.075449 -0.255320
Cr1   Cr    Cr6+3 0.776430 0.541680 0.750000 1.217845
Cr2   Cr    Cr6+3 0.765250 0.223570 0.750000 1.217845
Cr3   Cr    Cr6+3 0.458320 0.234750 0.750000 1.217845
Cr4   Cr    Cr6+3 0.541680 0.776430 0.250000 1.217845
Cr5   Cr    Cr6+3 0.223570 0.765250 0.250000 1.217845
Cr6   Cr    Cr6+3 0.234750 0.458320 0.250000 1.217845
O1    O     O_R   0.916700 0.566820 0.669930 -0.427675
O2    O     O_R   0.566820 0.916700 0.330070 -0.427675
O3    O     O_R   0.083300 0.650120 0.169930 -0.427675
O4    O     O_R   0.349880 0.433180 0.330070 -0.427674
O5    O     O_R   0.649840 0.534790 0.674920 -0.463448
O6    O     O_R   0.884950 0.350160 0.825080 -0.463448
O7    O     O_R   0.465210 0.115050 0.674920 -0.463448
O8    O     O_R   0.649840 0.534790 0.825080 -0.463448
O9    O     O_R   0.884950 0.350160 0.674920 -0.463448
O10   O     O_R   0.465210 0.115050 0.825080 -0.463448
O11   O     O_R   0.534790 0.649840 0.174920 -0.463448
O12   O     O_R   0.650120 0.083300 0.830070 -0.427674
O13   O     O_R   0.350160 0.884950 0.325080 -0.463448
O14   O     O_R   0.115050 0.465210 0.174920 -0.463448
O15   O     O_R   0.534790 0.649840 0.325080 -0.463448
O16   O     O_R   0.350160 0.884950 0.174920 -0.463448
O17   O     O_R   0.115050 0.465210 0.325080 -0.463448
O18   O     O_3   0.666667 0.333333 0.750000 -0.379468
O19   O     O_3   0.333333 0.666667 0.250000 -0.379468
O20   O     O_R   0.433180 0.349880 0.669930 -0.427675
O21   O     O_R   0.916700 0.566820 0.830070 -0.427675
O22   O     O_R   0.650120 0.083300 0.669930 -0.427675
O23   O     O_R   0.433180 0.349880 0.830070 -0.427675
O24   O     O_R   0.566820 0.916700 0.169930 -0.427675
O25   O     O_R   0.083300 0.650120 0.330070 -0.427674
O26   O     O_R   0.349880 0.433180 0.169930 -0.427675

loop_
_geom_bond_atom_site_label_1
_geom_bond_atom_site_label_2
_ccdc_geom_bond_type
C33   Cl7   S    
C9    C26   A    
C28   C41   A    
C16   Cl3   S    
C18   C47   S    
C19   C46   S    
C46   O11   A    
C31   C43   A    
C2    O4    A    
C14   C21   A    
Cr4   O15   S    
C26   C39   A    
C5    C17   A    
C4    O25   A    
C11   C24   A    
C40   Cl14  S    
C48   O3    A    
C12   O6    A    
C34   O8    A    
C15   Cl2   S    
C9    C13   A    
C12   O21   A    
Cr3   O7    S    
C2    C22   S    
Cr5   O19   S    
Cr2   O9    S    
C44   O9    A    
C27   C40   A    
C37   Cl10  S    
C2    O15   A    
Cr4   O11   S    
C27   C45   S    
C7    C15   A    
C23   O22   A    
C29   C42   A    
C5    Cl1   S    
C14   Cl24  S    
C47   O2    A    
C19   C32   A    
C17   Cl4   S    
C32   Cl6   S    
Cr3   O18   S    
C24   C37   A    
C36   C39   A    
Cr4   O24   S    
C15   C20   A    
C39   Cl13  S    
C11   Cl22  S    
C34   O23   A    
Cr6   O26   S    
C24   C48   S    
C23   C30   S    
C6    Cl12  S    
C45   O10   A    
C36   Cl9   S    
Cr2   O22   S    
C13   Cl23  S    
Cr6   O14   S    
Cr4   O19   S    
C46   O26   A    
C29   C34   S    
C28   C44   S    
Cr3   O20   S    
C7    C28   A    
C37   C38   A    
Cr2   O18   S    
C25   C38   A    
C4    O17   A    
Cr6   O4    S    
Cr5   O3    S    
Cr6   O17   S    
C43   Cl17  S    
Cr6   O19   S    
C17   C18   A    
Cr1   O1    S    
C31   Cl5   S    
C45   O12   A    
C20   C33   A    
C10   C25   A    
C48   O14   A    
C1    C26   S    
C30   C43   A    
C3    C21   S    
C41   Cl15  S    
C42   Cl16  S    
C3    O24   A    
C5    C30   A    
Cr1   O21   S    
Cr5   O13   S    
C8    C14   A    
C35   Cl8   S    
C47   O13   A    
C44   O1    A    
Cr4   O2    S    
Cr2   O6    S    
C1    O20   A    
C21   C35   A    
C1    O5    A    
C22   C36   A    
C12   C25   S    
C33   C41   A    
Cr2   O12   S    
C35   C40   A    
C9    Cl20  S    
C7    Cl18  S    
C16   C19   A    
C13   C22   A    
C3    O16   A    
Cr1   O8    S    
Cr5   O25   S    
C10   C11   A    
C6    C16   A    
C38   Cl11  S    
C4    C20   S    
C10   Cl21  S    
Cr3   O10   S    
C6    C29   A    
C8    Cl19  S    
C23   O7    A    
Cr3   O23   S    
C8    C27   A    
C32   C42   A    
Cr5   O16   S    
C18   C31   A    
Cr1   O18   S    
Cr1   O5    S    
