data_mof_unit_61048.cif
_audit_creation_date              2012-12-10T19:06:42-0500
_audit_creation_method            fapswitch 2.2
_symmetry_space_group_name_H-M    P1
_symmetry_Int_Tables_number       1
_space_group_crystal_system       triclinic
_cell_length_a                    13.043062
_cell_length_b                    13.62699
_cell_length_c                    16.726491
_cell_angle_alpha                 89.366685
_cell_angle_beta                  92.740649
_cell_angle_gamma                 94.156087
_cell_volume                      2961.6323769

loop_
_atom_site_label
_atom_site_type_symbol
_atom_type_description
_atom_site_fract_x
_atom_site_fract_y
_atom_site_fract_z
_atom_type_partial_charge
Br1   Br    Br    0.657152 0.622055 0.245102 -0.428924
Br2   Br    Br    0.343407 0.324921 0.704708 -0.456003
C1    C     C_R   0.481376 0.314868 0.500840 0.905046
C2    C     C_2   0.964305 0.473236 0.477214 -0.220115
C3    C     C_1   0.853140 0.480487 0.483607 0.192109
C4    C     C_1   0.146856 0.519473 0.516396 0.195241
C5    C     C_R   0.484913 0.501719 0.347082 0.925541
C6    C     C_R   0.514518 0.493924 0.652587 0.917411
C7    C     C_R   0.471856 0.489393 0.261164 -0.177277
C8    C     C_R   0.523691 0.464686 0.736110 -0.172208
C9    C     C_R   0.547068 0.528629 0.210144 0.273217
C10   C     C_R   0.454918 0.390846 0.767111 0.264150
C11   C     C_R   0.541637 0.500638 0.130619 -0.211790
C12   C     C_R   0.518618 0.685135 0.499137 0.901898
C13   C     C_R   0.468766 0.360694 0.846066 -0.216748
C14   C     C_R   0.462452 0.433296 0.101374 0.017529
C15   C     C_R   0.549461 0.403856 0.894856 0.023935
C16   C     C_R   0.383298 0.399784 0.150897 0.438216
C17   C     C_R   0.622135 0.472491 0.862463 0.435581
C18   C     C_R   0.388548 0.427798 0.230755 -0.275387
C19   C     C_R   0.608935 0.502297 0.783087 -0.269659
C20   C     C_2   0.460117 0.404186 0.017592 -0.127274
C21   C     C_2   0.547348 0.390674 0.981426 -0.154293
C22   C     C_1   0.533296 0.788276 0.498365 -0.141449
C23   C     C_1   0.466718 0.211746 0.501998 -0.125945
C24   C     C_2   0.544238 0.979414 0.497819 -0.147175
C25   C     C_2   0.455800 0.020620 0.503254 -0.141938
C26   C     C_1   0.457916 0.124354 0.502825 0.047112
C27   C     C_1   0.542096 0.875676 0.497909 0.041618
C28   C     C_2   0.035688 0.526691 0.522796 -0.225409
Cl1   Cl    Cl    0.280145 0.318336 0.116170 -0.558583
Cl2   Cl    Cl    0.725696 0.528564 0.920937 -0.571159
H1    H     H_    0.663917 0.556548 0.758467 0.196185
H2    H     H_    0.010890 0.577481 0.566297 0.176245
H3    H     H_    0.330222 0.397551 0.269957 0.200022
H4    H     H_    0.619839 0.390347 0.016216 0.208032
H5    H     H_    0.387328 0.406031 0.983358 0.201611
H6    H     H_    0.414277 0.305768 0.870383 0.202046
H7    H     H_    0.599431 0.532011 0.091496 0.217418
H8    H     H_    0.382965 0.977226 0.507807 0.172577
H9    H     H_    0.617060 0.022817 0.493219 0.170976
H10   H     H_    0.989099 0.422446 0.433710 0.178620
N1    N     N_1   0.235630 0.515160 0.512550 -0.075839
N2    N     N_1   0.764370 0.484840 0.487450 -0.078627
O1    O     O_R   0.402910 0.365220 0.504590 -0.584143
O2    O     O_R   0.597090 0.634780 0.495410 -0.594316
O3    O     O_R   0.572660 0.355490 0.496530 -0.611728
O4    O     O_R   0.427340 0.644510 0.503470 -0.607905
O5    O     O_R   0.405090 0.505430 0.388710 -0.620366
O6    O     O_R   0.594910 0.494570 0.611290 -0.617076
O7    O     O_R   0.574840 0.495690 0.380650 -0.572525
O8    O     O_R   0.425160 0.504310 0.619350 -0.570085
Zn1   Zn    Zn3+2 0.386660 0.506500 0.505380 1.027477
Zn2   Zn    Zn3+2 0.613340 0.493500 0.494620 1.024136

loop_
_geom_bond_atom_site_label_1
_geom_bond_atom_site_label_2
_ccdc_geom_bond_type
C12   O4    A    
C13   H6    S    
C20   H5    S    
C6    O6    A    
C9    C11   A    
C6    O8    A    
C7    C18   A    
Br1   C9    S    
C10   C13   A    
C25   H8    S    
O7    Zn2   S    
Br2   C10   S    
C5    C7    S    
O2    Zn2   S    
O1    Zn1   S    
C12   O2    A    
C15   C21   S    
C4    C28   S    
C23   C26   T    
C7    C9    A    
C24   C25   D    
O6    Zn2   S    
C2    H10   S    
O3    Zn2   S    
O5    Zn1   S    
C17   Cl2   S    
C8    C10   A    
C1    O3    A    
C17   C19   A    
C3    N2    T    
N1    Zn1   S    
C16   C18   A    
C4    N1    T    
C8    C19   A    
O4    Zn1   S    
C11   H7    S    
C19   H1    S    
C28   H2    S    
C5    O7    A    
N2    Zn2   S    
C1    C23   S    
O8    Zn1   S    
C5    O5    A    
C24   C27   S    
C14   C16   A    
C21   H4    S    
C11   C14   A    
C12   C22   S    
C25   C26   S    
C13   C15   A    
C22   C27   T    
C14   C20   S    
C16   Cl1   S    
C15   C17   A    
C20   C21   D    
C18   H3    S    
C1    O1    A    
C6    C8    S    
C2    C28   D    
C24   H9    S    
C2    C3    S    
