data_mof_unit_58911.cif
_audit_creation_date              2012-12-10T17:23:13-0500
_audit_creation_method            fapswitch 2.2
_symmetry_space_group_name_H-M    P1
_symmetry_Int_Tables_number       1
_space_group_crystal_system       triclinic
_cell_length_a                    15.855846
_cell_length_b                    10.874634
_cell_length_c                    9.581775
_cell_angle_alpha                 89.158719
_cell_angle_beta                  89.839831
_cell_angle_gamma                 93.181629
_cell_volume                      1649.41692406

loop_
_atom_site_label
_atom_site_type_symbol
_atom_type_description
_atom_site_fract_x
_atom_site_fract_y
_atom_site_fract_z
_atom_type_partial_charge
C1    C     C_R   0.492986 0.261500 0.500416 0.832958
C2    C     C_3   0.082651 0.500965 0.500327 0.195024
C3    C     C_3   0.975084 0.588173 0.586722 -0.159754
C4    C     C_3   0.917376 0.501317 0.499713 0.194690
C5    C     C_3   0.032530 0.612035 0.457043 -0.161046
C6    C     C_3   0.973274 0.525185 0.370038 -0.159710
C7    C     C_1   0.174415 0.500515 0.500539 -0.083217
C8    C     C_1   0.825601 0.501202 0.499484 -0.080026
C9    C     C_R   0.402631 0.117008 0.728199 -0.130121
C10   C     C_R   0.369304 0.050027 0.842276 -0.169926
C11   C     C_R   0.369505 0.922681 0.844026 -0.169322
C12   C     C_R   0.339842 0.499529 0.500158 0.802319
C13   C     C_R   0.402684 0.861772 0.731519 -0.132150
C14   C     C_R   0.440717 0.927864 0.616698 0.053638
C15   C     C_R   0.441974 0.058544 0.616043 0.049068
C16   C     C_R   0.476656 0.125653 0.498475 -0.227557
C17   C     C_R   0.486593 0.062307 0.371262 0.190032
C18   C     C_R   0.474716 0.933774 0.368968 0.187788
C19   C     C_R   0.469253 0.867393 0.496420 -0.222880
C20   C     C_R   0.621788 0.649859 0.141257 -0.138631
C21   C     C_R   0.683413 0.719741 0.067599 -0.236878
C22   C     C_R   0.681712 0.722973 0.923788 -0.208923
C23   C     C_R   0.489076 0.735796 0.499118 0.815289
C24   C     C_R   0.619431 0.654503 0.853016 -0.130709
C25   C     C_R   0.559703 0.574153 0.923702 0.197746
C26   C     C_R   0.560393 0.572737 0.073366 0.194469
C27   C     C_R   0.442682 0.430300 0.075510 -0.054999
C28   C     C_R   0.442556 0.430678 0.927626 -0.069403
C29   C     C_R   0.660132 0.500351 0.499848 0.816621
C30   C     C_3   0.967506 0.390270 0.542995 -0.157666
C31   C     C_3   0.024926 0.414127 0.413325 -0.160714
C32   C     C_1   0.250038 0.500035 0.500498 -0.182070
C33   C     C_1   0.749957 0.500865 0.499508 -0.181977
C34   C     C_3   0.026744 0.477112 0.630001 -0.156989
Cu1   Cu    Cu3+1 0.499990 0.499990 0.640660 0.916747
Cu2   Cu    Cu3+1 0.500010 0.500010 0.359340 0.938499
H1    H     H_    0.046721 0.342666 0.342156 0.125190
H2    H     H_    0.391780 0.763091 0.732949 0.167726
H3    H     H_    0.395721 0.373144 0.131985 0.133270
H4    H     H_    0.621182 0.667276 0.250064 0.201453
H5    H     H_    0.729654 0.777535 0.122770 0.146534
H6    H     H_    0.727236 0.782219 0.866537 0.145515
H7    H     H_    0.620033 0.670522 0.743432 0.197475
H8    H     H_    0.949966 0.544920 0.263331 0.129069
H9    H     H_    0.060577 0.703067 0.421782 0.126274
H10   H     H_    0.953254 0.659613 0.657891 0.125659
H11   H     H_    0.339908 0.096938 0.926971 0.118773
N1    N     N_R   0.500800 0.501210 0.147910 -0.196822
N2    N     N_R   0.500830 0.501290 0.852040 -0.198138
O1    O     O_R   0.499990 0.319640 0.618810 -0.587414
O2    O     O_R   0.500000 0.319660 0.381240 -0.543332
O3    O     O_R   0.379070 0.499980 0.618770 -0.594133
O4    O     O_R   0.379080 0.500000 0.381190 -0.577362
O5    O     O_R   0.500000 0.680340 0.618760 -0.621583
O6    O     O_R   0.500010 0.680360 0.381190 -0.557959
O7    O     O_R   0.620920 0.500000 0.618810 -0.584804
O8    O     O_R   0.620930 0.500020 0.381230 -0.596372
H12   H     H_    0.340427 0.870483 0.930251 0.135858
N3    N     N_2   0.449746 0.873274 0.243117 -0.405770
H13   H     H_    0.387754 0.884623 0.215922 0.231871
C35   C     C_3   0.507214 0.878741 0.125701 -0.611766
H14   H     H_    0.495911 0.794647 0.063573 0.228863
H15   H     H_    0.573723 0.886963 0.161384 0.234927
H16   H     H_    0.494383 0.956296 0.054369 0.215751
H17   H     H_    0.394717 0.375209 0.874044 0.120898
H18   H     H_    0.939472 0.299231 0.578262 0.126308
H19   H     H_    0.050027 0.457389 0.736722 0.126322
N4    N     N_2   0.503933 0.128399 0.243949 -0.398690
H20   H     H_    0.459584 0.122503 0.165618 0.242154
C36   C     C_3   0.591760 0.153913 0.205266 -0.616469
H21   H     H_    0.602981 0.253957 0.183221 0.248761
H22   H     H_    0.606923 0.103991 0.109121 0.200201
H23   H     H_    0.635112 0.126880 0.290023 0.207485
H24   H     H_    0.390925 0.213283 0.725724 0.144057

loop_
_geom_bond_atom_site_label_1
_geom_bond_atom_site_label_2
_ccdc_geom_bond_type
C27   N1    A    
C2    C7    S    
C4    C8    S    
C22   H6    S    
C5    C6    S    
C20   H4    S    
C15   C16   A    
C29   C33   S    
C18   C19   A    
C35   H15   S    
Cu2   O4    S    
Cu1   Cu2   S    
C27   H3    S    
C16   C17   A    
Cu1   N2    S    
C36   H21   S    
C11   H12   S    
C1    O1    A    
C12   O4    A    
C26   N1    A    
C2    C34   S    
C6    C31   S    
N3    H13   S    
C6    H8    S    
C21   C22   A    
C12   C32   S    
Cu1   O5    S    
Cu1   O1    S    
C12   O3    A    
N3    C35   S    
C30   C34   S    
C24   C25   A    
C4    C6    S    
Cu2   O8    S    
N4    H20   S    
C3    C34   S    
C25   C26   A    
C5    H9    S    
C31   H1    S    
C2    C31   S    
C35   H16   S    
C19   C23   S    
C28   N2    A    
C36   H23   S    
C17   C18   A    
C1    C16   S    
C1    O2    A    
C13   H2    S    
C30   H18   S    
Cu2   O2    S    
C21   H5    S    
C29   O8    A    
C22   C24   A    
C2    C5    S    
C9    H24   S    
C3    C4    S    
Cu1   O3    S    
C23   O5    A    
C9    C10   A    
C17   N4    S    
C7    C32   T    
Cu1   O7    S    
C14   C19   A    
C3    C5    S    
C34   H19   S    
C23   O6    A    
C29   O7    A    
C3    H10   S    
C28   H17   S    
C9    C15   A    
Cu2   O6    S    
C11   C13   A    
C30   C31   S    
C20   C26   A    
Cu2   N1    S    
C8    C33   T    
C35   H14   S    
C25   N2    A    
C10   C11   A    
C18   N3    S    
C20   C21   A    
N4    C36   S    
C27   C28   A    
C24   H7    S    
C14   C15   A    
C36   H22   S    
C13   C14   A    
C10   H11   S    
C4    C30   S    
