data_mof_unit_61332.cif
_audit_creation_date              2012-12-10T17:26:36-0500
_audit_creation_method            fapswitch 2.2
_symmetry_space_group_name_H-M    P1
_symmetry_Int_Tables_number       1
_space_group_crystal_system       triclinic
_cell_length_a                    42.555362
_cell_length_b                    29.421927
_cell_length_c                    30.753886
_cell_angle_alpha                 89.99975
_cell_angle_beta                  136.257671
_cell_angle_gamma                 90.000177
_cell_volume                      26623.4933276

loop_
_atom_site_label
_atom_site_type_symbol
_atom_type_description
_atom_site_fract_x
_atom_site_fract_y
_atom_site_fract_z
_atom_type_partial_charge
C1    C     C_R   0.585494 0.500000 0.585936 0.836070
C2    C     C_R   0.085494 1.000000 0.585936 0.836071
C3    C     C_3   0.448287 0.500895 0.170888 0.008591
C4    C     C_3   0.948283 0.000636 0.170885 0.008591
C5    C     C_3   0.449978 0.500863 0.223260 -0.613087
C6    C     C_3   0.949975 0.000613 0.223257 -0.613090
C7    C     C_1   0.499339 0.500028 0.157466 -0.047611
C8    C     C_1   0.999339 0.000020 0.157466 -0.047612
C9    C     C_1   0.500152 0.500004 0.335630 0.035807
C10   C     C_1   0.000153 0.000003 0.335630 0.035808
C11   C     C_1   0.500109 0.500001 0.373885 -0.124284
C12   C     C_1   0.000109 0.000001 0.373885 -0.124285
C13   C     C_1   0.636540 0.500000 0.636895 -0.180281
C14   C     C_1   0.136540 1.000000 0.636895 -0.180281
C15   C     C_1   0.678861 0.500000 0.679146 0.023716
C16   C     C_1   0.178861 1.000000 0.679146 0.023716
C17   C     C_1   0.729025 0.500000 0.729233 0.021471
C18   C     C_1   0.229025 0.000000 0.729233 0.021472
C19   C     C_1   0.771347 0.500000 0.771496 0.018077
C20   C     C_1   0.271347 1.000000 0.771496 0.018077
C21   C     C_1   0.821511 0.500000 0.821599 0.014371
C22   C     C_1   0.321511 1.000000 0.821599 0.014372
C23   C     C_R   0.500050 0.500000 0.418899 0.866147
C24   C     C_R   0.000050 0.000000 0.418899 0.866148
C25   C     C_1   0.863833 0.500000 0.863879 -0.189278
C26   C     C_1   0.363833 1.000000 0.863879 -0.189278
C27   C     C_1   0.499988 0.500000 0.635298 -0.196731
C28   C     C_1   0.999988 1.000000 0.635298 -0.196731
C29   C     C_1   0.500001 0.500000 0.676690 0.018439
C30   C     C_1   0.000001 1.000000 0.676690 0.018439
C31   C     C_1   0.500018 0.500000 0.726131 0.008227
C32   C     C_1   0.000018 1.000000 0.726131 0.008227
C33   C     C_1   0.500031 0.500000 0.767524 0.008283
C34   C     C_1   0.000031 1.000000 0.767524 0.008283
C35   C     C_1   0.500044 0.500000 0.816962 0.018488
C36   C     C_1   0.000044 1.000000 0.816962 0.018488
C37   C     C_1   0.500049 0.500000 0.858346 -0.196224
C38   C     C_1   0.000049 1.000000 0.858346 -0.196223
C39   C     C_1   0.363414 0.500000 0.363762 -0.198193
C40   C     C_1   0.863414 0.000000 0.363762 -0.198193
C41   C     C_1   0.321095 0.500000 0.321369 0.009075
C42   C     C_1   0.821095 1.000000 0.321369 0.009075
C43   C     C_1   0.270933 0.500000 0.271126 0.011305
C44   C     C_1   0.770933 1.000000 0.271126 0.011305
C45   C     C_R   0.414457 0.500000 0.414895 0.818495
C46   C     C_R   0.914458 1.000000 0.414895 0.818495
C47   C     C_1   0.228614 0.500000 0.228743 0.011219
C48   C     C_1   0.728614 0.000000 0.228743 0.011219
C49   C     C_1   0.178452 0.500000 0.178515 0.009910
C50   C     C_1   0.678452 0.000000 0.178515 0.009910
C51   C     C_1   0.136132 0.500000 0.136156 -0.192189
C52   C     C_1   0.636132 1.000000 0.136156 -0.192189
C53   C     C_R   0.500033 0.585446 0.994565 0.824268
C54   C     C_R   0.500033 0.414554 0.994565 0.824205
C55   C     C_R   0.000033 0.085446 0.994565 0.824261
C56   C     C_R   0.000033 0.914553 0.994565 0.824212
C57   C     C_R   0.499999 0.499999 0.074759 0.865049
C58   C     C_R   0.999999 0.999999 0.074759 0.865049
C59   C     C_R   0.500039 0.500000 0.908674 0.808802
C60   C     C_R   0.000039 0.000000 0.908674 0.808802
C61   C     C_R   0.000015 0.414869 0.999130 0.814512
C62   C     C_R   0.000015 0.585131 0.999130 0.814505
C63   C     C_R   0.500015 0.914869 0.999130 0.814509
C64   C     C_R   0.500015 0.085131 0.999130 0.814508
C65   C     C_R   0.914879 0.500000 0.914898 0.815103
C66   C     C_R   0.414879 0.000000 0.914898 0.815103
C67   C     C_R   0.085089 0.500000 0.085106 0.814256
C68   C     C_R   0.585089 0.000000 0.085106 0.814256
C69   C     C_1   0.500046 0.636498 0.995402 -0.195261
C70   C     C_1   0.500046 0.363502 0.995401 -0.195332
C71   C     C_1   0.000046 0.136498 0.995402 -0.195266
C72   C     C_1   0.000046 0.863502 0.995401 -0.195327
C73   C     C_R   0.499975 0.500000 0.584947 0.806484
C74   C     C_R   0.999975 1.000000 0.584947 0.806485
C75   C     C_1   0.500047 0.678821 0.996124 0.012375
C76   C     C_1   0.500047 0.321179 0.996124 0.012317
C77   C     C_1   0.000047 0.178821 0.996124 0.012372
C78   C     C_1   0.000047 0.821179 0.996124 0.012319
C79   C     C_1   0.500044 0.728990 0.996981 0.013548
C80   C     C_1   0.500044 0.271010 0.996981 0.013517
C81   C     C_1   0.000044 0.228990 0.996981 0.013550
C82   C     C_1   0.000044 0.771010 0.996981 0.013514
C83   C     C_1   0.000039 0.271313 0.997677 0.012854
C84   C     C_1   0.000039 0.728687 0.997676 0.012831
C85   C     C_1   0.500039 0.771313 0.997677 0.012849
C86   C     C_1   0.500039 0.228687 0.997676 0.012836
C87   C     C_1   0.000032 0.321483 0.998424 0.011281
C88   C     C_1   0.000032 0.678517 0.998424 0.011264
C89   C     C_1   0.500032 0.821483 0.998424 0.011275
C90   C     C_1   0.500032 0.178516 0.998424 0.011271
C91   C     C_1   0.000025 0.363810 0.998908 -0.191118
C92   C     C_1   0.000025 0.636190 0.998907 -0.191130
C93   C     C_1   0.500025 0.863810 0.998908 -0.191123
C94   C     C_1   0.500025 0.136190 0.998907 -0.191124
C95   C     C_3   0.523827 0.543674 0.295145 0.274644
C96   C     C_3   0.522327 0.455563 0.293641 0.274723
C97   C     C_3   0.023612 0.043788 0.294929 0.274656
C98   C     C_3   0.022546 0.955670 0.293860 0.274712
C99   C     C_3   0.523718 0.457073 0.244960 -0.418629
C100  C     C_3   0.525166 0.542124 0.246411 -0.418494
C101  C     C_3   0.023929 0.957186 0.245172 -0.418609
C102  C     C_3   0.024958 0.042243 0.246203 -0.418514
C103  C     C_1   0.499846 0.500013 0.119680 -0.163335
C104  C     C_1   0.999846 0.000010 0.119680 -0.163334
C105  C     C_3   0.500097 0.500008 0.289110 0.114717
C106  C     C_3   0.000097 0.000006 0.289110 0.114718
C107  C     C_3   0.498476 0.500042 0.203181 0.105024
C108  C     C_3   0.998476 0.000030 0.203181 0.105024
Cu1   Cu    Cu3+1 0.499970 0.542470 0.500570 0.987113
Cu2   Cu    Cu3+1 0.499970 0.457530 0.500570 0.987791
Cu3   Cu    Cu3+1 0.999970 0.042470 0.500570 0.987216
Cu4   Cu    Cu3+1 0.999970 0.957530 0.500570 0.987686
Cu5   Cu    Cu3+1 0.542500 0.500000 0.035600 0.978038
Cu6   Cu    Cu3+1 0.042500 0.000000 0.035600 0.978038
Cu7   Cu    Cu3+1 0.457550 0.500000 0.950640 0.984736
Cu8   Cu    Cu3+1 0.957550 0.000000 0.950640 0.984736
Cu9   Cu    Cu3+1 0.999990 0.500000 0.958110 0.980698
Cu10  Cu    Cu3+1 0.499990 1.000000 0.958110 0.980699
Cu11  Cu    Cu3+1 0.999980 0.500000 0.041890 0.974211
Cu12  Cu    Cu3+1 0.499980 1.000000 0.041890 0.974212
H1    H     H_    0.560910 0.540499 0.270340 0.228218
H2    H     H_    0.559497 0.457482 0.268924 0.228180
H3    H     H_    0.060710 0.040795 0.270139 0.228213
H4    H     H_    0.059705 0.957771 0.269133 0.228185
H5    H     H_    0.500868 0.426156 0.282121 0.113464
H6    H     H_    0.503381 0.573793 0.284642 0.113510
H7    H     H_    0.001231 0.926158 0.282486 0.113470
H8    H     H_    0.003018 0.073806 0.284278 0.113505
H9    H     H_    0.507913 0.425670 0.215790 0.162900
H10   H     H_    0.510437 0.574048 0.218322 0.162903
H11   H     H_    0.008279 0.925705 0.216157 0.162900
H12   H     H_    0.010073 0.074094 0.217956 0.162903
H13   H     H_    0.432513 0.531303 0.219544 0.190288
H14   H     H_    0.431486 0.471033 0.218515 0.190209
H15   H     H_    0.932360 0.030967 0.219390 0.190278
H16   H     H_    0.931630 0.970693 0.218659 0.190220
O1    O     O_R   0.561950 0.535860 0.562460 -0.557503
O2    O     O_R   0.561950 0.464140 0.562460 -0.557285
O3    O     O_R   0.061950 0.035860 0.562460 -0.557471
O4    O     O_R   0.061950 0.964140 0.562460 -0.557317
O5    O     O_R   0.464160 0.500000 0.896130 -0.557833
O6    O     O_R   0.964160 1.000000 0.896130 -0.557833
O7    O     O_R   0.000010 0.438010 0.963800 -0.556213
O8    O     O_R   0.000010 0.561990 0.963800 -0.556225
O9    O     O_R   0.500010 0.938010 0.963800 -0.556215
O10   O     O_R   0.500010 0.061990 0.963800 -0.556224
O11   O     O_R   1.000000 0.438000 0.034540 -0.557666
O12   O     O_R   1.000000 0.562000 0.034540 -0.557659
O13   O     O_R   0.500000 0.938000 0.034540 -0.557668
O14   O     O_R   0.500000 0.062000 0.034540 -0.557657
O15   O     O_R   0.938010 0.500000 0.902650 -0.554418
O16   O     O_R   0.438010 1.000000 0.902650 -0.554418
O17   O     O_R   0.938010 0.500000 0.973390 -0.558616
O18   O     O_R   0.438010 1.000000 0.973390 -0.558616
O19   O     O_R   0.061960 0.500000 0.026610 -0.556848
O20   O     O_R   0.561960 0.000000 0.026610 -0.556848
O21   O     O_R   0.061960 0.500000 0.097350 -0.557608
O22   O     O_R   0.561960 1.000000 0.097350 -0.557608
O23   O     O_R   0.499980 0.535870 0.439370 -0.571468
O24   O     O_R   0.499980 0.464130 0.439370 -0.570722
O25   O     O_R   0.999980 0.035870 0.439370 -0.571360
O26   O     O_R   0.999980 0.964130 0.439370 -0.570831
O27   O     O_R   0.438000 0.535860 0.438500 -0.562000
O28   O     O_R   0.438000 0.464140 0.438500 -0.561958
O29   O     O_R   0.938000 0.035860 0.438500 -0.561991
O30   O     O_R   0.938000 0.964140 0.438500 -0.561967
O31   O     O_R   0.499970 0.535850 0.561590 -0.557953
O32   O     O_R   0.499970 0.464150 0.561590 -0.557947
O33   O     O_R   0.999970 0.035850 0.561590 -0.557950
O34   O     O_R   0.999970 0.964150 0.561590 -0.557950
O35   O     O_R   0.535890 0.561890 0.029840 -0.560488
O36   O     O_R   0.535890 0.438110 0.029840 -0.560454
O37   O     O_R   0.035890 0.061890 0.029840 -0.560483
O38   O     O_R   0.035890 0.938110 0.029840 -0.560459
O39   O     O_R   0.464160 0.561920 0.958100 -0.558762
O40   O     O_R   0.464160 0.438080 0.958100 -0.558806
O41   O     O_R   0.964160 0.061920 0.958100 -0.558765
O42   O     O_R   0.964160 0.938080 0.958100 -0.558802
O43   O     O_R   0.535890 0.500000 0.090110 -0.573883
O44   O     O_R   0.035890 1.000000 0.090110 -0.573883
O45   O     O_R   0.464150 0.500000 0.018360 -0.568670
O46   O     O_R   0.964150 1.000000 0.018360 -0.568670
O47   O     O_R   0.535900 0.500000 0.967880 -0.558393
O48   O     O_R   0.035900 1.000000 0.967880 -0.558393
Cl1   Cl    Cl    0.579585 0.553399 0.372729 -0.525044
Cl2   Cl    Cl    0.577721 0.443941 0.370860 -0.524798
Cl3   Cl    Cl    0.079321 0.053788 0.372464 -0.525007
Cl4   Cl    Cl    0.077996 0.944322 0.371136 -0.524836
C109  C     C_1   0.423648 0.541685 0.130824 0.238972
N1    N     N_1   0.404422 0.573603 0.099534 -0.272006
C110  C     C_1   0.422275 0.460967 0.129447 0.239089
N2    N     N_1   0.401974 0.429724 0.097079 -0.271888
C111  C     C_1   0.923444 0.041305 0.130619 0.238990
N3    N     N_1   0.904061 0.073128 0.099172 -0.271985
C112  C     C_1   0.922468 0.960581 0.129640 0.239072
N4    N     N_1   0.902321 0.929238 0.097428 -0.271910

loop_
_geom_bond_atom_site_label_1
_geom_bond_atom_site_label_2
_ccdc_geom_bond_type
C60   O48   A    
C4    C112  S    
C83   C87   S    
C96   C105  S    
Cu7   O5    S    
C46   O29   A    
C87   C91   T    
C27   C29   T    
C58   O44   A    
C41   C43   S    
Cu4   O4    S    
C24   O25   A    
Cu3   O25   S    
C79   C85   T    
C73   O31   A    
C28   C74   S    
C57   O45   A    
Cu3   O3    S    
C39   C41   T    
C5    C105  S    
C40   C46   S    
C4    C108  S    
C95   Cl1   S    
Cu12  O13   S    
C6    H15   S    
C75   C79   S    
Cu9   O15   S    
C2    O3    A    
C67   O19   A    
C35   C37   T    
C45   O28   A    
C102  H12   S    
Cu8   O42   S    
Cu9   Cu11  S    
C33   C35   S    
C1    O1    A    
C100  H10   S    
C9    C105  S    
C96   C99   S    
Cu1   O1    S    
C100  H1    S    
C54   O40   A    
C55   O37   A    
C74   O33   A    
C6    H16   S    
Cu1   O31   S    
C60   O6    A    
Cu2   O32   S    
C61   O7    A    
Cu6   O37   S    
Cu4   O34   S    
C88   C92   T    
C56   C72   S    
C23   O23   A    
Cu9   O19   S    
C72   C78   T    
C31   C33   T    
Cu10  O20   S    
Cu3   O29   S    
C14   C16   T    
C77   C81   S    
C95   C105  S    
C18   C20   T    
C97   C102  S    
C52   C68   S    
C39   C45   S    
C101  C108  S    
C48   C50   S    
C38   C60   S    
C53   C69   S    
Cu11  O17   S    
C62   O12   A    
Cu8   O41   S    
Cu12  O22   S    
C55   O41   A    
C5    H14   S    
C42   C44   S    
C99   C107  S    
C73   O32   A    
C68   O22   A    
C8    C108  S    
Cu7   O45   S    
C90   C94   T    
Cu5   O36   S    
C61   O11   A    
C4    C111  S    
C57   C103  S    
C101  H4    S    
C99   H9    S    
C110  N2    T    
C26   C66   S    
C96   Cl2   S    
Cu2   O2    S    
Cu9   O8    S    
C25   C65   S    
Cu5   O35   S    
C86   C90   S    
C66   O18   A    
Cu2   O28   S    
C95   C100  S    
C56   O42   A    
C49   C51   T    
Cu11  O12   S    
C89   C93   T    
Cu8   O46   S    
Cu6   Cu8   S    
Cu3   O33   S    
C32   C34   T    
C65   O15   A    
C59   O47   A    
C66   O16   A    
Cu7   O40   S    
C3    C110  S    
C8    C104  T    
C78   C82   S    
C50   C52   T    
C54   C70   S    
Cu10  O10   S    
Cu11  O21   S    
Cu4   O30   S    
C23   O24   A    
Cu12  O18   S    
C6    C106  S    
Cu7   O39   S    
C67   O21   A    
C51   C67   S    
C102  C108  S    
C9    C11   T    
C59   O5    A    
C37   C59   S    
C10   C12   T    
C99   H2    S    
Cu8   O6    S    
C97   C106  S    
C101  H11   S    
C4    C6    S    
C98   H7    S    
Cu5   O43   S    
C20   C22   S    
C82   C84   T    
C13   C15   T    
Cu1   O27   S    
C7    C107  S    
C10   C106  S    
C1    C13   S    
C70   C76   T    
C102  H3    S    
Cu1   O23   S    
C3    C5    S    
C71   C77   T    
Cu2   O24   S    
C53   O39   A    
C54   O36   A    
C65   O17   A    
C109  N1    T    
C15   C17   S    
C21   C25   T    
C100  C107  S    
C85   C89   S    
C46   O30   A    
Cu3   Cu4   S    
C64   O10   A    
Cu5   Cu7   S    
Cu12  O14   S    
Cu10  O9    S    
C24   O26   A    
C76   C80   S    
C62   O8    A    
C40   C42   T    
C68   O20   A    
C81   C83   T    
C57   O43   A    
C5    H13   S    
C47   C49   S    
C98   C101  S    
Cu4   O26   S    
C63   C93   S    
Cu6   O44   S    
C98   C106  S    
C58   O46   A    
C3    C107  S    
C3    C109  S    
C45   O27   A    
Cu11  O11   S    
C2    O4    A    
C28   C30   T    
C29   C31   S    
C27   C73   S    
Cu1   Cu2   S    
Cu10  O16   S    
C36   C38   T    
C30   C32   S    
C95   H6    S    
Cu5   O47   S    
C84   C88   S    
C43   C47   T    
Cu6   O48   S    
C11   C23   S    
C17   C19   T    
C96   H5    S    
C69   C75   T    
C34   C36   S    
C63   O13   A    
C12   C24   S    
C2    C14   S    
Cu10  Cu12  S    
C74   O34   A    
C53   O35   A    
C64   C94   S    
C112  N4    T    
C44   C48   T    
C80   C86   T    
Cu6   O38   S    
C58   C104  S    
C56   O38   A    
Cu9   O7    S    
C16   C18   S    
C111  N3    T    
C22   C26   T    
C64   O14   A    
C7    C103  T    
C97   H8    S    
C97   Cl3   S    
C62   C92   S    
C98   Cl4   S    
C63   O9    A    
C55   C71   S    
C1    O2    A    
C61   C91   S    
C19   C21   S    
