data_mof_unit_31700.cif
_audit_creation_date              2012-12-10T18:19:13-0500
_audit_creation_method            fapswitch 2.2
_symmetry_space_group_name_H-M    P1
_symmetry_Int_Tables_number       1
_space_group_crystal_system       triclinic
_cell_length_a                    14.828314
_cell_length_b                    14.022064
_cell_length_c                    11.544462
_cell_angle_alpha                 90.177551
_cell_angle_beta                  89.662209
_cell_angle_gamma                 90.602432
_cell_volume                      2400.18026341

loop_
_atom_site_label
_atom_site_type_symbol
_atom_type_description
_atom_site_fract_x
_atom_site_fract_y
_atom_site_fract_z
_atom_type_partial_charge
C1    C     C_R   0.326576 0.499339 0.501769 0.984708
C2    C     C_R   0.453693 0.201502 0.584346 -0.015609
C3    C     C_R   0.454480 0.797899 0.585076 -0.028710
C4    C     C_R   0.546178 0.202078 0.415563 -0.049115
C5    C     C_R   0.453053 0.898541 0.586883 0.005543
C6    C     C_R   0.546926 0.101453 0.413234 0.012606
C7    C     C_R   0.546080 0.899162 0.412575 -0.010046
C8    C     C_R   0.452723 0.100876 0.586552 -0.001249
C9    C     C_R   0.499712 0.949423 0.499848 0.096028
C10   C     C_R   0.499808 0.050601 0.499901 0.088686
C11   C     C_R   0.406306 0.949294 0.673169 -0.179395
C12   C     C_R   0.673928 0.500469 0.497318 0.924813
C13   C     C_R   0.593364 0.050691 0.326683 -0.180567
C14   C     C_R   0.592775 0.950440 0.326207 -0.185516
C15   C     C_R   0.406002 0.049552 0.672882 -0.157417
C16   C     C_R   0.499999 0.499881 0.281736 0.913284
C17   C     C_R   0.500477 0.500109 0.718252 0.963160
C18   C     C_1   0.500220 0.499702 0.161378 -0.141263
C19   C     C_1   0.500711 0.500249 0.838605 -0.142729
C20   C     C_1   0.500440 0.499833 0.059266 0.027345
C21   C     C_1   0.500653 0.500107 0.940711 0.019092
C22   C     C_R   0.820129 0.543214 0.403227 0.339716
C23   C     C_R   0.909461 0.513817 0.383626 -0.127947
C24   C     C_R   0.182817 0.451606 0.589810 0.430321
C25   C     C_R   0.771005 0.498470 0.492843 -0.136111
C26   C     C_R   0.230399 0.495352 0.498975 -0.152734
C27   C     C_R   0.812389 0.437134 0.570320 -0.283479
C28   C     C_R   0.189126 0.520892 0.396234 -0.319316
C29   C     C_R   0.904931 0.422666 0.565314 0.063077
C30   C     C_R   0.096572 0.507778 0.382922 0.035149
C31   C     C_R   0.953936 0.464611 0.473048 0.046078
C32   C     C_R   0.047768 0.463367 0.474036 0.018486
C33   C     C_2   0.896613 0.311342 0.736202 0.365368
C34   C     C_R   0.092456 0.424526 0.570836 -0.037094
C35   C     C_2   0.103395 0.575213 0.180717 0.552272
C36   C     C_2   0.091313 0.282420 0.704440 0.533147
C37   C     C_2   0.905405 0.524679 0.167123 0.565383
C38   C     C_R   0.949363 0.366495 0.648744 -0.080830
C39   C     C_R   0.051540 0.536790 0.281177 -0.046471
C40   C     C_R   0.044354 0.362365 0.645960 -0.010742
C41   C     C_R   0.956280 0.531271 0.278619 -0.018364
C42   C     C_R   0.544428 0.798570 0.414152 -0.011340
H1    H     H_    0.771470 0.404568 0.637727 0.157086
H2    H     H_    0.369338 0.086928 0.740259 0.173893
H3    H     H_    0.745001 0.788181 0.408144 0.372785
H4    H     H_    0.305932 0.559345 0.830761 0.377017
H5    H     H_    0.837024 0.271240 0.710408 0.071318
H6    H     H_    0.165615 0.541826 0.153082 0.041240
H7    H     H_    0.065096 0.251221 0.783541 0.124168
H8    H     H_    0.832672 0.516230 0.168331 0.084269
H9    H     H_    0.230290 0.552816 0.328672 0.139894
H10   H     H_    0.578668 0.758794 0.346945 0.190646
H11   H     H_    0.417616 0.241365 0.649947 0.184908
H12   H     H_    0.419051 0.757532 0.651274 0.158156
H13   H     H_    0.582309 0.242425 0.349971 0.141065
H14   H     H_    0.369909 0.911480 0.740799 0.162395
H15   H     H_    0.629991 0.088491 0.259244 0.154497
H16   H     H_    0.629005 0.913029 0.258468 0.168902
N1    N     N_R   0.500000 0.750030 0.500000 -0.107023
N2    N     N_R   0.500000 0.249970 0.500000 -0.111934
O1    O     O_R   0.367850 0.580280 0.500030 -0.602124
O2    O     O_2   0.698922 0.625118 0.262854 -0.350403
O3    O     O_3   0.745463 0.724198 0.444246 -0.527101
O4    O     O_2   0.158551 0.450664 0.823571 -0.276949
O5    O     O_2   0.293752 0.372575 0.746203 -0.296988
O6    O     O_3   0.289213 0.557328 0.747847 -0.582233
O7    O     O_2   0.917538 0.313105 0.838311 -0.525920
O8    O     O_2   0.077947 0.646173 0.129864 -0.473667
O9    O     O_2   0.158667 0.247436 0.661099 -0.552285
O10   O     O_2   0.943416 0.522512 0.073113 -0.491319
O11   O     O_R   0.632150 0.419720 0.499970 -0.647156
O12   O     O_R   0.632150 0.580280 0.499970 -0.528440
O13   O     O_R   0.367850 0.419720 0.500030 -0.600391
O14   O     O_R   0.500010 0.580270 0.334450 -0.603333
O15   O     O_R   0.499990 0.419730 0.665550 -0.608158
O16   O     O_R   0.499990 0.580270 0.665550 -0.616264
O17   O     O_R   0.500010 0.419730 0.334450 -0.631098
O18   O     O_2   0.849258 0.699709 0.267049 -0.282180
S1    S     S_3+6 0.778227 0.649350 0.338243 0.005694
S2    S     S_3+6 0.230697 0.454793 0.731580 0.030887
Zn1   Zn    Zn3+2 0.500000 0.607200 0.500000 1.026137
Zn2   Zn    Zn3+2 0.500000 0.392800 0.500000 0.981793

loop_
_geom_bond_atom_site_label_1
_geom_bond_atom_site_label_2
_ccdc_geom_bond_type
C38   C40   A    
C27   C29   A    
C39   C41   A    
O3    S1    S    
C16   O14   A    
C35   O8    D    
C19   C21   T    
C24   C26   A    
C15   H2    S    
C5    C11   A    
C3    H12   S    
C2    N2    A    
C13   H15   S    
C16   O17   A    
C7    C42   A    
C17   C19   S    
C11   C15   A    
C24   S2    S    
C7    C14   A    
C22   C25   A    
C29   C38   A    
C17   O16   A    
C9    C10   A    
O12   Zn1   S    
O11   Zn2   S    
C12   O12   A    
O5    S2    D    
C13   C14   A    
O4    S2    D    
N2    Zn2   S    
C35   H6    S    
C14   H16   S    
O2    S1    D    
C36   C40   S    
C4    C6    A    
O18   S1    D    
H3    O3    S    
C24   C34   A    
C23   C31   A    
C42   N1    A    
C35   C39   S    
C5    C9    A    
C31   C32   A    
C4    N2    A    
C22   S1    S    
C8    C10   A    
C12   O11   A    
C8    C15   A    
C4    H13   S    
C1    C26   S    
C33   H5    S    
C34   C40   A    
O14   Zn1   S    
O13   Zn2   S    
C36   O9    D    
C33   O7    D    
C7    C9    A    
C2    C8    A    
N1    Zn1   S    
C3    C5    A    
C2    H11   S    
C1    O1    A    
O16   Zn1   S    
C6    C10   A    
O15   Zn2   S    
H4    O6    S    
C25   C27   A    
O6    S2    S    
C26   C28   A    
C33   C38   S    
C23   C41   A    
C12   C25   S    
C1    O13   A    
C28   C30   A    
C29   C31   A    
O1    Zn1   S    
C6    C13   A    
C30   C32   A    
C37   H8    S    
O17   Zn2   S    
C28   H9    S    
C30   C39   A    
C18   C20   T    
C37   C41   S    
C36   H7    S    
C27   H1    S    
C20   C21   S    
C16   C18   S    
C42   H10   S    
C17   O15   A    
C22   C23   A    
C37   O10   D    
C11   H14   S    
C32   C34   A    
C3    N1    A    
