data_mof_unit_12314.cif
_audit_creation_date              2012-12-11T17:01:22-0500
_audit_creation_method            fapswitch 2.2
_symmetry_space_group_name_H-M    P1
_symmetry_Int_Tables_number       1
_space_group_crystal_system       triclinic
_cell_length_a                    19.396475
_cell_length_b                    7.095876
_cell_length_c                    17.630148
_cell_angle_alpha                 89.999931
_cell_angle_beta                  108.643653
_cell_angle_gamma                 90.000058
_cell_volume                      2299.19348815

loop_
_atom_site_label
_atom_site_type_symbol
_atom_type_description
_atom_site_fract_x
_atom_site_fract_y
_atom_site_fract_z
_atom_type_partial_charge
O1    O     O_R   0.413720 0.494330 0.415730 -0.538544
O2    O     O_R   0.586280 0.994330 0.584270 -0.538545
O3    O     O_R   0.560210 0.819300 0.430070 -0.543778
O4    O     O_R   0.439790 0.319300 0.569930 -0.543778
C1    C     C_R   0.581279 0.655385 0.414329 0.719005
C2    C     C_R   0.418721 0.155385 0.585671 0.719006
O5    O     O_R   0.412670 0.823730 0.406310 -0.544265
O6    O     O_R   0.587330 0.323730 0.593690 -0.544263
O7    O     O_R   0.437690 0.998790 0.560340 -0.539054
O8    O     O_R   0.562310 0.498790 0.439660 -0.539054
C3    C     C_R   0.385542 0.655113 0.383115 0.697582
C4    C     C_R   0.614458 0.155113 0.616885 0.697582
O9    O     O_3   0.508380 0.662350 0.550560 -0.383491
O10   O     O_3   0.491620 0.162350 0.449440 -0.383489
V1    V     V_3+5 0.498450 0.935370 0.490620 1.369579
V2    V     V_3+5 0.501550 0.435370 0.509380 1.369582
C5    C     C_R   0.697586 0.993474 0.739960 0.091378
C6    C     C_R   0.302414 0.493474 0.260040 0.091383
C7    C     C_R   0.681678 0.147155 0.687168 -0.146671
C8    C     C_R   0.318321 0.647155 0.312832 -0.146671
C9    C     C_R   0.731338 0.298676 0.705276 -0.138677
C10   C     C_R   0.268661 0.798676 0.294724 -0.138682
H1    H     H_    0.721210 0.421705 0.667187 0.126780
H2    H     H_    0.278789 0.921704 0.332814 0.126778
C11   C     C_R   0.797110 0.287667 0.769467 -0.173650
C12   C     C_R   0.202890 0.787666 0.230533 -0.173647
C13   C     C_R   0.815753 0.123543 0.816813 -0.105601
C14   C     C_R   0.184246 0.623543 0.183187 -0.105599
C15   C     C_R   0.763315 0.981165 0.802290 0.038476
C16   C     C_R   0.236685 0.481166 0.197710 0.038470
C17   C     C_3   0.770347 0.774459 0.791773 -0.398646
C18   C     C_3   0.229654 0.274460 0.208226 -0.398647
C19   C     C_3   0.697963 0.786022 0.724268 0.137842
C20   C     C_3   0.302037 0.286022 0.275731 0.137844
H3    H     H_    0.816855 0.740656 0.770172 0.132765
H4    H     H_    0.183146 0.240654 0.229826 0.132766
C21   C     C_R   0.324524 0.989535 0.630407 -0.224440
C22   C     C_R   0.675475 0.489536 0.369593 -0.224441
C23   C     C_R   0.369166 0.147735 0.634515 -0.086259
C24   C     C_R   0.630834 0.647736 0.365486 -0.086260
C25   C     C_R   0.364671 0.300645 0.683717 -0.226466
C26   C     C_R   0.635330 0.800647 0.316283 -0.226466
C27   C     C_R   0.316527 0.295602 0.728642 0.091485
C28   C     C_R   0.683474 0.795604 0.271359 0.091485
C29   C     C_R   0.271203 0.137233 0.723291 0.071843
C30   C     C_R   0.728797 0.637234 0.276709 0.071844
C31   C     C_R   0.275126 0.984369 0.673620 0.096896
C32   C     C_R   0.724874 0.484369 0.326380 0.096896
C33   C     C_R   0.312751 0.446269 0.778705 -0.191862
C34   C     C_R   0.687251 0.946271 0.221296 -0.191863
C35   C     C_R   0.264548 0.440158 0.823135 -0.170983
C36   C     C_R   0.735454 0.940160 0.176867 -0.170983
C37   C     C_R   0.218966 0.283660 0.818049 0.093307
C38   C     C_R   0.781035 0.783661 0.181952 0.093307
C39   C     C_R   0.221922 0.131713 0.767621 -0.002207
C40   C     C_R   0.778078 0.631713 0.232379 -0.002207
C41   C     C_R   0.175830 0.974375 0.761269 0.054024
C42   C     C_R   0.824169 0.474373 0.238730 0.054025
C43   C     C_R   0.179933 0.824381 0.710358 -0.160294
C44   C     C_R   0.820065 0.324379 0.289640 -0.160297
C45   C     C_R   0.229178 0.829158 0.667469 -0.215281
C46   C     C_R   0.770821 0.329157 0.332531 -0.215282
C47   C     C_R   0.171366 0.276200 0.863416 -0.266382
C48   C     C_R   0.828635 0.776201 0.136585 -0.266379
C49   C     C_R   0.126008 0.119128 0.859585 -0.137085
C50   C     C_R   0.873991 0.619127 0.140414 -0.137089
C51   C     C_R   0.126961 0.968614 0.805972 0.230665
C52   C     C_R   0.873036 0.468609 0.194025 0.230665
H5    H     H_    0.327057 0.871810 0.592164 0.125749
H6    H     H_    0.672942 0.371810 0.407836 0.125749
O11   O     O_R   0.937800 0.775460 0.060470 -0.538925
O12   O     O_R   0.062200 0.275460 0.939530 -0.538925
O13   O     O_R   0.087350 0.441340 0.093710 -0.539050
O14   O     O_R   0.912650 0.941340 0.906290 -0.539049
C53   C     C_R   0.114587 0.610448 0.116562 0.687972
C54   C     C_R   0.885413 0.110449 0.883438 0.687971
O15   O     O_R   0.939820 0.446010 0.069950 -0.539894
O16   O     O_R   0.060180 0.946010 0.930050 -0.539896
O17   O     O_R   0.913690 0.271230 0.915700 -0.537972
O18   O     O_R   0.086310 0.771230 0.084300 -0.537972
C55   C     C_R   0.920388 0.613869 0.087144 0.719345
C56   C     C_R   0.079611 0.113870 0.912855 0.719345
O19   O     O_3   0.991670 0.603050 0.949510 -0.373953
O20   O     O_3   0.008330 0.103050 0.050490 -0.373953
V3    V     V_3+5 0.001550 0.329940 0.009370 1.383654
V4    V     V_3+5 0.998450 0.829940 0.990630 1.383655
H7    H     H_    0.262810 0.558360 0.861411 0.127401
H8    H     H_    0.737193 0.058363 0.138591 0.127402
H9    H     H_    0.170791 0.392174 0.903264 0.136703
H10   H     H_    0.829211 0.892177 0.096739 0.136702
N1    N     N_2   0.078858 0.811614 0.794832 -0.532257
H11   H     H_    0.085906 0.724887 0.843571 0.275100
C57   C     C_3   0.004378 0.846397 0.746129 -0.511538
H12   H     H_    0.977970 0.948331 0.775854 0.182466
H13   H     H_    0.973344 0.712192 0.736641 0.183904
H14   H     H_    0.002721 0.902848 0.686788 0.193502
N2    N     N_2   0.921133 0.311599 0.205158 -0.532258
H15   H     H_    0.914081 0.224880 0.156416 0.275099
C58   C     C_3   0.995614 0.346357 0.253863 -0.511540
H16   H     H_    0.022026 0.448297 0.224144 0.182471
H17   H     H_    0.026643 0.212146 0.263341 0.183906
H18   H     H_    0.997273 0.402789 0.313206 0.193501
H19   H     H_    0.145705 0.700984 0.703962 0.171047
H20   H     H_    0.854292 0.200980 0.296036 0.171049
H21   H     H_    0.231371 0.710729 0.629478 0.133512
H22   H     H_    0.768628 0.210728 0.370522 0.133512
H23   H     H_    0.835084 0.403811 0.779439 0.127547
H24   H     H_    0.164915 0.903810 0.220561 0.127546
H25   H     H_    0.768990 0.692292 0.844930 0.184607
H26   H     H_    0.231012 0.192295 0.155069 0.184610
N3    N     N_2   0.639754 0.680961 0.741082 -0.492387
H27   H     H_    0.599339 0.638861 0.690228 0.282973
C59   C     C_3   0.611608 0.745888 0.803505 -0.516684
H28   H     H_    0.574939 0.636834 0.814652 0.186109
H29   H     H_    0.579909 0.877769 0.784457 0.183710
H30   H     H_    0.656338 0.770560 0.860316 0.198961
N4    N     N_2   0.360246 0.180962 0.258918 -0.492389
H31   H     H_    0.400657 0.138846 0.309771 0.282973
C60   C     C_3   0.388397 0.245899 0.196500 -0.516690
H32   H     H_    0.425061 0.136840 0.185347 0.186111
H33   H     H_    0.420102 0.377766 0.215557 0.183711
H34   H     H_    0.343670 0.270599 0.139690 0.198963
H35   H     H_    0.702668 0.752904 0.664418 0.078349
H36   H     H_    0.297332 0.252902 0.335581 0.078348
H37   H     H_    0.399014 0.423180 0.687519 0.129431
H38   H     H_    0.600987 0.923182 0.312481 0.129432
H39   H     H_    0.347103 0.569072 0.783515 0.132626
H40   H     H_    0.652899 0.069075 0.216487 0.132627

loop_
_geom_bond_atom_site_label_1
_geom_bond_atom_site_label_2
_ccdc_geom_bond_type
C50   C52   A    
C22   H6    S    
C57   H12   S    
C21   H5    S    
C13   C15   A    
C5    C15   A    
N3    H27   S    
O1    C3    A    
C54   O17   A    
C48   H10   S    
O2    C4    A    
C2    O7    A    
C47   C49   A    
N2    H15   S    
C23   C25   A    
O5    C3    A    
C18   H26   S    
C18   H4    S    
C7    C9    A    
O20   V4    S    
N4    C60   S    
C41   C43   A    
C42   C44   A    
C6    C8    A    
C44   C46   A    
O6    V2    S    
C29   C31   A    
C52   N2    S    
O18   V4    S    
C36   C38   A    
C33   C35   A    
C58   H18   S    
C34   C36   A    
C17   C19   S    
C6    C16   A    
C21   C31   A    
C45   H21   S    
C53   O18   A    
C22   C32   A    
C59   H30   S    
O16   V4    S    
C20   N4    S    
O5    V1    S    
O15   V3    S    
C57   H13   S    
C22   C24   A    
C25   C27   A    
C5    C19   S    
C41   C51   A    
N2    C58   S    
C28   C30   A    
O12   V3    S    
C30   C32   A    
C37   C39   A    
C33   H39   S    
C38   C40   A    
C3    C8    S    
C43   C45   A    
C25   H37   S    
C36   H8    S    
O20   V3    S    
O4    C2    A    
C12   H24   S    
N1    H11   S    
C27   C33   A    
C49   C51   A    
C35   C37   A    
C48   C50   A    
O4    V2    S    
N1    C57   S    
O11   V4    S    
C6    C20   S    
O16   C56   A    
C32   C46   A    
C58   H16   S    
O15   C55   A    
O6    C4    A    
C47   H9    S    
C51   N1    S    
C17   H25   S    
N3    C59   S    
O1    V2    S    
O14   V4    S    
O2    V1    S    
C27   C29   A    
O13   V3    S    
C60   H33   S    
O14   C54   A    
C19   N3    S    
C42   C52   A    
O19   V3    S    
C8    C10   A    
C57   H14   S    
C9    H1    S    
C17   H3    S    
C1    C24   S    
C34   H40   S    
O13   C53   A    
C35   H7    S    
C13   C54   S    
O17   V3    S    
O3    V1    S    
C11   H23   S    
C59   H28   S    
C60   H34   S    
C28   C34   A    
C9    C11   A    
C20   H36   S    
C58   H17   S    
O10   V1    S    
C24   C26   A    
O3    C1    A    
C31   C45   A    
C60   H32   S    
C46   H22   S    
C11   C13   A    
C12   C14   A    
C43   H19   S    
C39   C41   A    
O7    V1    S    
C26   C28   A    
C1    O8    A    
C15   C17   S    
O8    V2    S    
N4    H31   S    
C50   C55   S    
C16   C18   S    
C37   C47   A    
C49   C56   S    
C38   C48   A    
C4    C7    S    
C14   C16   A    
C5    C7    A    
C40   C42   A    
C10   H2    S    
C26   H38   S    
O19   V4    S    
C29   C39   A    
C21   C23   A    
C10   C12   A    
O9    V2    S    
C30   C40   A    
C19   H35   S    
C2    C23   S    
C59   H29   S    
C44   H20   S    
C14   C53   S    
O12   C56   A    
C18   C20   S    
O11   C55   A    
