data_mof_unit_27076.cif
_audit_creation_date              2012-12-10T17:10:58-0500
_audit_creation_method            fapswitch 2.2
_symmetry_space_group_name_H-M    P1
_symmetry_Int_Tables_number       1
_space_group_crystal_system       triclinic
_cell_length_a                    11.772841
_cell_length_b                    12.993501
_cell_length_c                    13.31635
_cell_angle_alpha                 94.125031
_cell_angle_beta                  77.024008
_cell_angle_gamma                 99.272334
_cell_volume                      1957.70028493

loop_
_atom_site_label
_atom_site_type_symbol
_atom_type_description
_atom_site_fract_x
_atom_site_fract_y
_atom_site_fract_z
_atom_type_partial_charge
C1    C     C_R   0.521176 0.700291 0.499503 0.823556
C2    C     C_R   0.441234 0.494399 0.978432 -0.070515
C3    C     C_R   0.451042 0.534221 0.880312 -0.066799
C4    C     C_R   0.520784 0.540313 0.040704 -0.063651
C5    C     C_R   0.594337 0.636070 0.012220 -0.005719
C6    C     C_R   0.593664 0.682200 0.918907 0.127835
C7    C     C_R   0.508883 0.637939 0.861247 0.174438
C8    C     C_R   0.533660 0.491190 0.128099 0.629287
C9    C     C_R   0.666745 0.642075 0.171864 0.028598
C10   C     C_R   0.396277 0.471473 0.807144 -0.151247
C11   C     C_R   0.478248 0.187887 0.472333 -0.142749
C12   C     C_R   0.436404 0.490931 0.695750 0.806131
C13   C     C_R   0.534007 0.813667 0.497031 -0.229043
C14   C     C_R   0.584632 0.978358 0.586212 0.072863
C15   C     C_R   0.588446 0.871984 0.570095 0.521525
C16   C     C_R   0.489660 0.862752 0.425693 0.006611
C17   C     C_R   0.489989 0.972697 0.437363 -0.030372
C18   C     C_R   0.532701 0.028918 0.521103 -0.032373
C19   C     C_R   0.524755 0.135332 0.536984 -0.261720
C20   C     C_R   0.441475 0.135326 0.386152 -0.032540
C21   C     C_R   0.449080 0.029004 0.368631 0.581245
C22   C     C_R   0.946582 0.604626 0.593467 0.467801
C23   C     C_R   0.481944 0.300038 0.491297 0.768364
C24   C     C_R   0.828578 0.594915 0.582254 0.656824
C25   C     C_R   0.859327 0.451814 0.462347 0.227956
C26   C     C_R   0.982489 0.471395 0.460284 -0.222706
C27   C     C_R   0.024252 0.540715 0.533652 -0.263594
C28   C     C_R   0.142400 0.542343 0.544624 0.721393
C29   C     C_R   0.179915 0.425835 0.400475 0.729375
C30   C     C_R   0.064612 0.419972 0.388629 -0.334237
C31   C     C_R   0.563246 0.510794 0.304685 0.805707
C32   C     C_R   0.664319 0.685965 0.079804 -0.216408
C33   C     C_R   0.597679 0.544321 0.197497 -0.196703
C34   C     C_R   0.312469 0.381850 0.839640 0.036868
C35   C     C_R   0.282515 0.360704 0.944800 -0.231758
C36   C     C_R   0.345178 0.415727 0.013285 0.673273
Cu1   Cu    Cu3+1 0.386470 0.492430 0.492410 1.025769
Cu2   Cu    Cu3+1 0.613530 0.507570 0.507590 0.995543
H1    H     H_    0.040849 0.375750 0.322416 0.201922
H2    H     H_    0.713182 0.763010 0.064907 0.163320
H3    H     H_    0.211162 0.300361 0.975522 0.181380
H4    H     H_    0.555450 0.180201 0.599744 0.167329
N1    N     N_R   0.215880 0.481050 0.481000 -0.305209
N2    N     N_R   0.784100 0.518950 0.519000 -0.268275
O1    O     O_R   0.419710 0.645650 0.494620 -0.557404
O2    O     O_R   0.611450 0.658430 0.507430 -0.497256
O3    O     O_R   0.357340 0.490460 0.641450 -0.553382
O4    O     O_R   0.549080 0.503250 0.654260 -0.537837
O5    O     O_R   0.388550 0.341570 0.492570 -0.569854
O6    O     O_R   0.580290 0.354350 0.505380 -0.599140
O7    O     O_R   0.450920 0.496750 0.345740 -0.506038
O8    O     O_R   0.642660 0.509540 0.358550 -0.592708
C37   C     C_3   0.740714 0.704256 0.241397 -0.376054
C38   C     C_3   0.859921 0.666965 0.226875 -0.737158
H5    H     H_    0.911707 0.713157 0.279342 0.234392
H6    H     H_    0.848417 0.583537 0.244874 0.257973
H7    H     H_    0.909930 0.677474 0.146054 0.242027
H8    H     H_    0.756663 0.788566 0.224429 0.189715
H9    H     H_    0.694246 0.700102 0.322912 0.208879
C39   C     C_3   0.399226 0.189770 0.307474 -0.244218
C40   C     C_3   0.266277 0.158984 0.317268 -0.635983
H10   H     H_    0.241981 0.073160 0.309019 0.247015
H11   H     H_    0.218058 0.186105 0.393628 0.235859
H12   H     H_    0.238113 0.194870 0.255464 0.283942
H13   H     H_    0.421304 0.275551 0.314025 0.267156
H14   H     H_    0.445756 0.167934 0.228464 0.241183
C41   C     C_3   0.636617 0.034595 0.673799 -0.347153
C42   C     C_3   0.759622 0.093869 0.633329 -0.802249
H15   H     H_    0.820117 0.038517 0.594985 0.274802
H16   H     H_    0.757534 0.152147 0.577254 0.231623
H17   H     H_    0.794480 0.135167 0.698553 0.237277
H18   H     H_    0.577494 0.087310 0.719765 0.179472
H19   H     H_    0.644060 0.978736 0.730535 0.234440
F1    F     F_    0.419839 0.984177 0.280997 -0.714513
F2    F     F_    0.644602 0.824055 0.627579 -0.661377
C43   C     C_3   0.447347 0.797119 0.337080 -0.286382
C44   C     C_3   0.312598 0.776162 0.354911 -0.645228
H20   H     H_    0.286487 0.732359 0.286907 0.219135
H21   H     H_    0.274621 0.728652 0.423710 0.255848
H22   H     H_    0.273607 0.849402 0.367268 0.268093
H23   H     H_    0.488397 0.832249 0.261738 0.243859
H24   H     H_    0.479223 0.720714 0.325349 0.156345
F3    F     F_    0.184253 0.605497 0.617922 -0.608454
F4    F     F_    0.256960 0.378943 0.328612 -0.609998
F5    F     F_    0.985583 0.678888 0.659744 -0.623226
F6    F     F_    0.757121 0.659400 0.638791 -0.598038
C45   C     C_3   0.688435 0.772992 0.876517 -0.449124
C46   C     C_3   0.812591 0.742812 0.853462 -0.589485
H25   H     H_    0.848259 0.743511 0.923660 0.204440
H26   H     H_    0.812074 0.663633 0.816137 0.292855
H27   H     H_    0.873778 0.799821 0.800907 0.281380
H28   H     H_    0.677901 0.797708 0.802006 0.285073
H29   H     H_    0.683032 0.842407 0.930123 0.181323
C47   C     C_3   0.815119 0.342377 0.422451 -0.284016
C48   C     C_3   0.785836 0.337446 0.315753 -0.731419
H30   H     H_    0.809660 0.264460 0.273339 0.210425
H31   H     H_    0.690296 0.334598 0.321486 0.256805
H32   H     H_    0.836360 0.404088 0.269495 0.236608
H33   H     H_    0.748513 0.298212 0.481096 0.200225
H34   H     H_    0.882238 0.290103 0.416826 0.151593
F7    F     F_    0.490898 0.388901 0.144465 -0.641092
C49   C     C_3   0.255811 0.311081 0.761981 -0.324079
C50   C     C_3   0.182026 0.208496 0.802497 -0.857767
H35   H     H_    0.234761 0.163454 0.837658 0.259687
H36   H     H_    0.101336 0.223658 0.859560 0.251795
H37   H     H_    0.153986 0.160531 0.737382 0.251081
H38   H     H_    0.198430 0.354643 0.730692 0.229818
H39   H     H_    0.326926 0.289743 0.697485 0.196229
F8    F     F_    0.301295 0.399585 0.115052 -0.596211
C51   C     C_3   0.460546 0.708598 0.798839 -0.371974
C52   C     C_3   0.327041 0.706170 0.834154 -0.777876
H40   H     H_    0.302975 0.722402 0.918708 0.243405
H41   H     H_    0.299074 0.767007 0.794501 0.266601
H42   H     H_    0.277913 0.629936 0.814846 0.283909
H43   H     H_    0.497153 0.791704 0.808963 0.210285
H44   H     H_    0.483537 0.688446 0.715589 0.254824

loop_
_geom_bond_atom_site_label_1
_geom_bond_atom_site_label_2
_ccdc_geom_bond_type
C15   F2    S    
C45   C46   S    
C14   C18   A    
C35   C36   A    
C31   O8    A    
C12   O4    A    
C37   H9    S    
C48   H32   S    
C44   H20   S    
C11   C19   A    
C26   C27   A    
C34   C49   S    
Cu1   Cu2   S    
C41   H18   S    
C3    C7    A    
C5    C6    A    
Cu1   O7    S    
C1    O2    A    
C23   O5    A    
Cu2   O8    S    
C18   C19   A    
C22   F5    S    
C40   H11   S    
C51   C52   S    
C9    C32   A    
C50   H36   S    
C48   H30   S    
C16   C17   A    
C14   C41   S    
C31   C33   S    
C49   H39   S    
C41   H19   S    
Cu1   O3    S    
C8    F7    S    
Cu2   O4    S    
C40   H10   S    
C19   H4    S    
C4    C8    A    
C5    C32   A    
C39   H14   S    
C25   C47   S    
C45   H28   S    
C29   N1    A    
C28   F3    S    
C9    C33   A    
C52   H42   S    
C49   C50   S    
C12   O3    A    
C25   N2    A    
C44   H21   S    
C38   H6    S    
C11   C20   A    
C41   C42   S    
C43   C44   S    
C29   F4    S    
C52   H41   S    
C43   H24   S    
C42   H15   S    
C23   O6    A    
C25   C26   A    
C37   C38   S    
C21   F1    S    
C17   C21   A    
C6    C45   S    
C39   C40   S    
Cu1   N1    S    
C40   H12   S    
C2    C4    A    
Cu2   N2    S    
C29   C30   A    
Cu1   O5    S    
C46   H27   S    
C47   H34   S    
C34   C35   A    
C17   C18   A    
C49   H38   S    
C10   C34   A    
C20   C21   A    
C10   C12   S    
C46   H26   S    
C39   H13   S    
C26   C30   A    
C22   C27   A    
C13   C15   A    
C24   N2    A    
C22   C24   A    
C1    C13   S    
Cu1   O1    S    
C51   H44   S    
C50   H35   S    
C44   H22   S    
C2    C36   A    
C38   H5    S    
C52   H40   S    
C16   C43   S    
C31   O7    A    
C4    C5    A    
C43   H23   S    
C37   H8    S    
C48   H31   S    
C6    C7    A    
Cu2   O6    S    
C28   N1    A    
C7    C51   S    
C2    C3    A    
C3    C10   A    
C1    O1    A    
C47   H33   S    
C42   H17   S    
C45   H29   S    
C11   C23   S    
C30   H1    S    
C50   H37   S    
C8    C33   A    
C32   H2    S    
C47   C48   S    
C35   H3    S    
Cu2   O2    S    
C9    C37   S    
C46   H25   S    
C42   H16   S    
C13   C16   A    
C36   F8    S    
C14   C15   A    
C20   C39   S    
C24   F6    S    
C51   H43   S    
C27   C28   A    
C38   H7    S    
