data_mof_unit_41366.cif
_audit_creation_date              2012-12-10T18:58:38-0500
_audit_creation_method            fapswitch 2.2
_symmetry_space_group_name_H-M    P1
_symmetry_Int_Tables_number       1
_space_group_crystal_system       triclinic
_cell_length_a                    10.584244
_cell_length_b                    9.92211
_cell_length_c                    17.527953
_cell_angle_alpha                 90.225447
_cell_angle_beta                  90.804929
_cell_angle_gamma                 88.588022
_cell_volume                      1839.99877623

loop_
_atom_site_label
_atom_site_type_symbol
_atom_type_description
_atom_site_fract_x
_atom_site_fract_y
_atom_site_fract_z
_atom_type_partial_charge
C1    C     C_R   0.260233 0.502036 0.508889 0.896757
C2    C     C_R   0.739767 0.497964 0.491111 0.896766
C3    C     C_1   0.501012 0.490863 0.966449 0.155008
C4    C     C_1   0.498942 0.509101 0.033549 0.154979
C5    C     C_R   0.063080 0.384658 0.529984 -0.015589
C6    C     C_R   0.936918 0.615342 0.470013 -0.015581
C7    C     C_R   0.943087 0.372883 0.497351 -0.060706
C8    C     C_R   0.056912 0.627118 0.502645 -0.060710
C9    C     C_R   0.500840 0.499860 0.354126 0.903449
C10   C     C_R   0.499160 0.500140 0.645874 0.903437
C11   C     C_R   0.874954 0.492947 0.479584 -0.217089
C12   C     C_R   0.125045 0.507054 0.520413 -0.217104
C13   C     C_R   0.618415 0.476425 0.847554 -0.028781
C14   C     C_R   0.381554 0.523526 0.152451 -0.028790
C15   C     C_R   0.614615 0.527331 0.153823 -0.093523
C16   C     C_R   0.385351 0.472670 0.846170 -0.093540
C17   C     C_R   0.617099 0.493562 0.767803 -0.115479
C18   C     C_R   0.382882 0.506408 0.232203 -0.115486
C19   C     C_R   0.615700 0.510724 0.233165 -0.065618
C20   C     C_R   0.384280 0.489289 0.766829 -0.065618
C21   C     C_R   0.499957 0.498824 0.728418 -0.089057
C22   C     C_R   0.500031 0.501174 0.271582 -0.089070
C23   C     C_R   0.577425 0.070587 0.549093 -0.002164
C24   C     C_R   0.422576 0.929413 0.450907 -0.002172
C25   C     C_R   0.418578 0.073549 0.453150 -0.003144
C26   C     C_R   0.581422 0.926451 0.546850 -0.003139
C27   C     C_R   0.502027 0.472728 0.885903 0.061009
C28   C     C_R   0.497935 0.527241 0.114096 0.061000
N1    N     N_R   0.500000 0.857200 0.500000 -0.189339
N2    N     N_R   0.500000 0.142800 0.500000 -0.189339
O1    O     O_R   0.316770 0.614620 0.500000 -0.665491
O2    O     O_R   0.683230 0.385380 0.500000 -0.665497
O3    O     O_R   0.683230 0.614620 0.500000 -0.659549
O4    O     O_R   0.316770 0.385380 0.500000 -0.659549
O5    O     O_R   0.500010 0.614710 0.389120 -0.646136
O6    O     O_R   0.499990 0.385290 0.610880 -0.646134
O7    O     O_R   0.499990 0.614710 0.610880 -0.611235
O8    O     O_R   0.500010 0.385290 0.389120 -0.611252
Zn1   Zn    Zn3+2 0.500000 0.653120 0.500000 0.940666
Zn2   Zn    Zn3+2 0.500000 0.346880 0.500000 0.940660
C29   C     C_2   0.740151 0.454922 0.890346 0.514494
H1    H     H_    0.825806 0.502512 0.872854 0.140042
O9    O     O_2   0.746678 0.379522 0.945231 -0.538784
C30   C     C_2   0.259811 0.544988 0.109662 0.514482
H2    H     H_    0.174178 0.497345 0.127145 0.140056
O10   O     O_2   0.253252 0.620411 0.054787 -0.538758
C31   C     C_2   0.736150 0.540518 0.112596 0.469443
H3    H     H_    0.821476 0.488942 0.133166 0.090310
O11   O     O_2   0.742888 0.612688 0.056610 -0.527715
C32   C     C_2   0.263809 0.459500 0.887390 0.469428
H4    H     H_    0.178493 0.511096 0.866818 0.090323
O12   O     O_2   0.257050 0.387320 0.943371 -0.527717
C33   C     C_2   0.736179 0.502071 0.723792 0.374633
H5    H     H_    0.746602 0.446571 0.670709 0.068453
O13   O     O_2   0.820171 0.577080 0.743795 -0.550016
C34   C     C_2   0.263809 0.497896 0.276221 0.374662
H6    H     H_    0.253394 0.553397 0.329304 0.068444
O14   O     O_2   0.179815 0.422885 0.256223 -0.550023
C35   C     C_2   0.738273 0.503409 0.275522 0.337945
H7    H     H_    0.813169 0.571609 0.261770 0.082636
O15   O     O_2   0.758383 0.416852 0.323650 -0.582360
C36   C     C_2   0.261714 0.496632 0.724466 0.337940
H8    H     H_    0.186805 0.428443 0.738210 0.082627
O16   O     O_2   0.241624 0.583200 0.676342 -0.582347
C37   C     C_2   0.648890 0.142282 0.609342 0.558353
H9    H     H_    0.703830 0.228775 0.596560 0.080314
O17   O     O_2   0.646213 0.104317 0.675476 -0.544949
C38   C     C_2   0.351111 0.857718 0.390657 0.558346
H10   H     H_    0.296178 0.771219 0.403437 0.080318
O18   O     O_2   0.353784 0.895689 0.324523 -0.544940
C39   C     C_2   0.318290 0.147791 0.409430 0.542975
H11   H     H_    0.336394 0.240089 0.380309 0.114787
O19   O     O_2   0.210962 0.105617 0.406120 -0.491774
C40   C     C_2   0.681709 0.852209 0.590570 0.542962
H12   H     H_    0.663606 0.759911 0.619691 0.114792
O20   O     O_2   0.789037 0.894384 0.593881 -0.491782
C41   C     C_2   0.116375 0.280372 0.583659 0.532575
H13   H     H_    0.213775 0.282842 0.603279 0.066008
O21   O     O_2   0.049054 0.196548 0.612138 -0.493798
C42   C     C_2   0.883623 0.719628 0.416338 0.532597
H14   H     H_    0.786221 0.717160 0.396721 0.066013
O22   O     O_2   0.950944 0.803449 0.387856 -0.493803
C43   C     C_2   0.898785 0.239514 0.468350 0.561260
H15   H     H_    0.812474 0.232577 0.434858 0.115688
O23   O     O_2   0.962558 0.136264 0.475853 -0.414473
C44   C     C_2   0.101214 0.760489 0.531644 0.561253
H16   H     H_    0.187527 0.767430 0.565133 0.115707
O24   O     O_2   0.037438 0.863738 0.524141 -0.414475

loop_
_geom_bond_atom_site_label_1
_geom_bond_atom_site_label_2
_ccdc_geom_bond_type
C7    C43   S    
C29   H1    S    
C14   C18   A    
C15   C31   S    
C13   C29   S    
C31   O11   D    
C33   H5    S    
C15   C19   A    
O3    Zn1   S    
C40   O20   D    
C10   O7    A    
O4    Zn2   S    
C16   C20   A    
C16   C32   S    
C44   O24   D    
C9    C22   S    
C1    O1    A    
C34   H6    S    
C2    O2    A    
C23   C26   A    
C24   N1    A    
C36   O16   D    
C43   H15   S    
O1    Zn1   S    
C38   H10   S    
C37   O17   D    
C32   O12   D    
C25   C39   S    
C18   C34   S    
C16   C27   A    
C41   O21   D    
C35   H7    S    
C29   O9    D    
C1    C12   S    
C2    C11   S    
C4    C28   S    
C30   O10   D    
C1    O4    A    
C7    C11   A    
C5    C7    A    
C33   O13   D    
C10   C21   S    
C35   O15   D    
C40   H12   S    
C23   N2    A    
O6    Zn2   S    
C19   C22   A    
C24   C25   A    
C5    C12   A    
C42   O22   D    
C6    C11   A    
C39   O19   D    
C44   H16   S    
C6    C8    A    
C19   C35   S    
C41   H13   S    
C17   C21   A    
O5    Zn1   S    
C36   H8    S    
C6    C42   S    
C31   H3    S    
C8    C12   A    
N1    Zn1   S    
C32   H4    S    
N2    Zn2   S    
C2    O3    A    
C43   O23   D    
C5    C41   S    
C3    C4    T    
C17   C33   S    
C30   H2    S    
C14   C30   S    
C25   N2    A    
C18   C22   A    
C42   H14   S    
C13   C17   A    
C23   C37   S    
C3    C27   S    
C39   H11   S    
O7    Zn1   S    
O8    Zn2   S    
C15   C28   A    
C9    O8    A    
C26   C40   S    
C34   O14   D    
C8    C44   S    
O2    Zn2   S    
C20   C36   S    
C24   C38   S    
C20   C21   A    
C26   N1    A    
C38   O18   D    
C37   H9    S    
C9    O5    A    
C13   C27   A    
C10   O6    A    
C14   C28   A    
