data_mof_unit_14932.cif
_audit_creation_date              2012-12-11T15:08:30-0500
_audit_creation_method            fapswitch 2.2
_symmetry_space_group_name_H-M    P1
_symmetry_Int_Tables_number       1
_space_group_crystal_system       triclinic
_cell_length_a                    27.217715
_cell_length_b                    7.171221
_cell_length_c                    11.96098
_cell_angle_alpha                 90.00012
_cell_angle_beta                  103.610295
_cell_angle_gamma                 89.999633
_cell_volume                      2269.03652301

loop_
_atom_site_label
_atom_site_type_symbol
_atom_type_description
_atom_site_fract_x
_atom_site_fract_y
_atom_site_fract_z
_atom_type_partial_charge
O1    O     O_R   0.437360 0.505910 0.042120 -0.533623
O2    O     O_R   0.562640 0.005910 0.957880 -0.533624
O3    O     O_R   0.542480 0.176660 0.157100 -0.549537
O4    O     O_R   0.457520 0.676660 0.842900 -0.549537
C1    C     C_R   0.558298 0.344111 0.195180 0.707870
C2    C     C_R   0.441704 0.844113 0.804818 0.707860
O5    O     O_R   0.436520 0.176250 0.054800 -0.546999
O6    O     O_R   0.563480 0.676250 0.945200 -0.546995
O7    O     O_R   0.455920 0.005040 0.854840 -0.545642
O8    O     O_R   0.544080 0.505040 0.145160 -0.545641
C3    C     C_R   0.416354 0.343103 0.055179 0.673294
C4    C     C_R   0.583646 0.843100 0.944819 0.673278
O9    O     O_3   0.506490 0.338900 0.934520 -0.374105
O10   O     O_3   0.493510 0.838900 0.065480 -0.374114
V1    V     V_3+5 0.498800 0.064400 0.012150 1.409206
V2    V     V_3+5 0.501200 0.564400 0.987850 1.409217
C5    C     C_R   0.676737 0.791421 0.763852 -0.162656
C6    C     C_R   0.323267 0.291642 0.236169 -0.162628
H1    H     H_    0.598432 0.733969 0.746419 0.126139
H2    H     H_    0.401570 0.234145 0.253613 0.126085
H3    H     H_    0.761575 0.810417 0.709765 0.130226
H4    H     H_    0.238429 0.310668 0.290252 0.130217
H5    H     H_    0.675119 0.758019 0.674735 0.121393
H6    H     H_    0.324887 0.258345 0.325302 0.121361
C7    C     C_R   0.631958 0.844533 0.911448 -0.015542
C8    C     C_R   0.368042 0.344556 0.088547 -0.015535
C9    C     C_R   0.866745 0.891683 0.198262 -0.151724
C10   C     C_R   0.133252 0.391643 0.801730 -0.151733
C11   C     C_R   0.822591 0.907433 0.235160 -0.140609
C12   C     C_R   0.177405 0.407378 0.764827 -0.140598
C13   C     C_R   0.776331 0.900857 0.156714 -0.191138
C14   C     C_R   0.223666 0.400822 0.843273 -0.191120
C15   C     C_R   0.772774 0.879774 0.037335 0.069524
C16   C     C_R   0.227224 0.379777 0.962657 0.069526
C17   C     C_R   0.818646 0.867321 0.996605 -0.014715
C18   C     C_R   0.181353 0.367339 0.003390 -0.014719
C19   C     C_R   0.724607 0.865711 0.958383 0.073960
C20   C     C_R   0.275393 0.365750 0.041611 0.073959
C21   C     C_R   0.722729 0.830967 0.841324 0.100393
C22   C     C_R   0.277273 0.331114 0.158684 0.100406
C23   C     C_R   0.766359 0.830764 0.801034 -0.185232
C24   C     C_R   0.233644 0.330934 0.198975 -0.185248
C25   C     C_R   0.814469 0.853386 0.874123 0.007013
C26   C     C_R   0.185530 0.353458 0.125876 0.007019
C27   C     C_R   0.677690 0.879720 0.991109 -0.253421
C28   C     C_R   0.322309 0.379699 0.008877 -0.253416
C29   C     C_R   0.632550 0.786003 0.801610 -0.119201
C30   C     C_R   0.367453 0.286145 0.198407 -0.119199
C31   C     C_R   0.866095 0.869780 0.081689 -0.086975
C32   C     C_R   0.133903 0.369771 0.918307 -0.086972
H7    H     H_    0.675114 0.913273 0.077100 0.097733
H8    H     H_    0.324885 0.413171 0.922874 0.097713
H9    H     H_    0.902106 0.900835 0.262042 0.154526
H10   H     H_    0.097890 0.400780 0.737950 0.154514
H11   H     H_    0.743973 0.909184 0.193524 0.111051
H12   H     H_    0.256023 0.409150 0.806458 0.111055
H13   H     H_    0.824210 0.924337 0.325948 0.132776
H14   H     H_    0.175785 0.424260 0.674036 0.132773
C33   C     C_R   0.089358 0.860690 0.315037 -0.067160
C34   C     C_R   0.910641 0.360688 0.684969 -0.067156
C35   C     C_R   0.404931 0.854115 0.692352 -0.074194
C36   C     C_R   0.595069 0.354104 0.307648 -0.074205
C37   C     C_R   0.102694 0.884958 0.521949 -0.237985
C38   C     C_R   0.897302 0.384919 0.478056 -0.237986
C39   C     C_R   0.069745 0.862496 0.413726 -0.001604
C40   C     C_R   0.930252 0.362449 0.586277 -0.001608
C41   C     C_R   0.141539 0.866656 0.327180 -0.257551
C42   C     C_R   0.858459 0.366687 0.672832 -0.257542
C43   C     C_R   0.175854 0.880207 0.436641 0.046710
C44   C     C_R   0.824143 0.380153 0.563369 0.046708
C45   C     C_R   0.155688 0.892797 0.536822 0.125115
C46   C     C_R   0.844308 0.392764 0.463187 0.125116
C47   C     C_R   0.229625 0.882810 0.448619 0.053066
C48   C     C_R   0.770373 0.382677 0.551391 0.053066
C49   C     C_R   0.262820 0.897945 0.559337 0.054545
C50   C     C_R   0.737177 0.397901 0.440681 0.054550
C51   C     C_R   0.240984 0.945727 0.649647 -0.278887
C52   C     C_R   0.759012 0.445748 0.350382 -0.278879
C53   C     C_R   0.189700 0.920934 0.646273 0.071048
C54   C     C_R   0.810294 0.420934 0.353743 0.071035
C55   C     C_R   0.251354 0.879650 0.353218 -0.222151
C56   C     C_R   0.748644 0.379283 0.646784 -0.222184
C57   C     C_R   0.303014 0.889937 0.366102 -0.165268
C58   C     C_R   0.696985 0.389604 0.633912 -0.165374
C59   C     C_R   0.336930 0.885169 0.474806 0.053812
C60   C     C_R   0.663068 0.385022 0.525208 0.053788
C61   C     C_R   0.317037 0.878828 0.575306 0.038677
C62   C     C_R   0.682961 0.378770 0.424707 0.038702
C63   C     C_R   0.390055 0.882594 0.483867 -0.028686
C64   C     C_R   0.609941 0.382494 0.516140 -0.028672
C65   C     C_R   0.423715 0.861910 0.592974 -0.008989
C66   C     C_R   0.576283 0.361860 0.407025 -0.008976
C67   C     C_R   0.352069 0.849268 0.685539 -0.006028
C68   C     C_R   0.647930 0.349264 0.314465 -0.006033
H15   H     H_    0.315217 0.899316 0.287051 0.191324
H16   H     H_    0.684785 0.398805 0.712965 0.191415
H17   H     H_    0.085077 0.900609 0.591973 0.122719
H18   H     H_    0.914920 0.400566 0.408031 0.122704
H19   H     H_    0.153770 0.862090 0.248028 0.105561
H20   H     H_    0.846229 0.362262 0.751988 0.105541
H21   H     H_    0.264454 0.999871 0.727320 0.160371
H22   H     H_    0.735541 0.499931 0.272723 0.160355
H23   H     H_    0.229699 0.877119 0.265574 0.134448
H24   H     H_    0.770299 0.376470 0.734415 0.134468
O11   O     O_R   0.955980 0.206520 0.854760 -0.534387
O12   O     O_R   0.044020 0.706520 0.145240 -0.534396
O13   O     O_R   0.063490 0.536770 0.945200 -0.551168
O14   O     O_R   0.936510 0.036770 0.054800 -0.551162
C69   C     C_R   0.083674 0.369926 0.944243 0.721641
C70   C     C_R   0.916325 0.869928 0.055755 0.721658
O15   O     O_R   0.957530 0.536190 0.842880 -0.553843
O16   O     O_R   0.042470 0.036190 0.157120 -0.553837
O17   O     O_R   0.937350 0.707210 0.042130 -0.535813
O18   O     O_R   0.062650 0.207210 0.957870 -0.535814
C71   C     C_R   0.943618 0.367789 0.802185 0.757431
C72   C     C_R   0.056382 0.867788 0.197816 0.757433
O19   O     O_3   0.993540 0.373870 0.065440 -0.383195
O20   O     O_3   0.006460 0.873870 0.934560 -0.383197
V3    V     V_3+5 0.001200 0.648440 0.987860 1.396556
V4    V     V_3+5 0.998800 0.148440 0.012140 1.396568
C73   C     C_3   0.336010 0.772740 0.791881 -0.393857
C74   C     C_3   0.342984 0.914840 0.891977 -0.301658
C75   C     C_3   0.314653 0.859486 0.982931 -0.720877
H25   H     H_    0.275192 0.819112 0.943692 0.213909
H26   H     H_    0.334379 0.742641 0.035288 0.258998
H27   H     H_    0.314113 0.978111 0.041993 0.231940
H28   H     H_    0.383190 0.923130 0.937191 0.225803
H29   H     H_    0.331416 0.057097 0.859939 0.177061
H30   H     H_    0.297343 0.714129 0.769683 0.181926
H31   H     H_    0.359270 0.647905 0.823533 0.168095
C76   C     C_3   0.663993 0.272755 0.208122 -0.393862
C77   C     C_3   0.657022 0.414860 0.108031 -0.301683
C78   C     C_3   0.685338 0.359463 0.017057 -0.720877
H32   H     H_    0.724795 0.319008 0.056280 0.213920
H33   H     H_    0.665593 0.242659 0.964692 0.258991
H34   H     H_    0.685890 0.478095 0.958005 0.231952
H35   H     H_    0.616816 0.423200 0.062835 0.225805
H36   H     H_    0.668604 0.557105 0.140064 0.177062
H37   H     H_    0.702662 0.214150 0.230323 0.181926
H38   H     H_    0.640735 0.147922 0.176464 0.168098
C79   C     C_3   0.478427 0.804009 0.601909 -0.431576
C80   C     C_3   0.517365 0.959770 0.628273 -0.266282
C81   C     C_3   0.557745 0.929435 0.558249 -0.779144
H39   H     H_    0.590178 0.024426 0.586678 0.270946
H40   H     H_    0.572454 0.785500 0.566022 0.202037
H41   H     H_    0.541278 0.946938 0.465069 0.211647
H42   H     H_    0.498317 0.096290 0.610616 0.193102
H43   H     H_    0.535516 0.959956 0.721342 0.205137
H44   H     H_    0.490082 0.689086 0.664605 0.168996
H45   H     H_    0.480656 0.742106 0.520719 0.208295
C82   C     C_3   0.521570 0.303975 0.398074 -0.431585
C83   C     C_3   0.482641 0.459772 0.371765 -0.266337
C84   C     C_3   0.442274 0.429445 0.441829 -0.779123
H46   H     H_    0.409846 0.524485 0.413448 0.270926
H47   H     H_    0.427552 0.285527 0.434036 0.202044
H48   H     H_    0.458761 0.446898 0.535007 0.211635
H49   H     H_    0.501700 0.596263 0.389428 0.193088
H50   H     H_    0.464479 0.460005 0.278706 0.205153
H51   H     H_    0.509909 0.189099 0.335350 0.168995
H52   H     H_    0.519338 0.242003 0.479242 0.208284
C85   C     C_2   0.015078 0.840040 0.408296 0.257179
H53   H     H_    0.999588 0.888272 0.478959 0.077047
O21   O     O_2   0.987287 0.759188 0.328061 -0.560266
C86   C     C_2   0.984918 0.339961 0.591704 0.257168
H54   H     H_    0.000410 0.388175 0.521039 0.077034
O22   O     O_2   0.012708 0.259100 0.671936 -0.560267
C87   C     C_2   0.412331 0.902290 0.381275 0.279314
H55   H     H_    0.446135 0.985277 0.388319 0.070929
O23   O     O_2   0.396430 0.815231 0.292424 -0.542358
C88   C     C_2   0.587655 0.402229 0.618719 0.279292
H56   H     H_    0.553848 0.485195 0.611645 0.070990
O24   O     O_2   0.603550 0.315245 0.707597 -0.542415
C89   C     C_3   0.859974 0.859252 0.819304 -0.347860
C90   C     C_3   0.848977 0.866713 0.686534 -0.350516
C91   C     C_3   0.897325 0.873756 0.642736 -0.685315
H57   H     H_    0.922230 0.988428 0.683552 0.252758
H58   H     H_    0.918558 0.741610 0.661792 0.232305
H59   H     H_    0.887601 0.895154 0.548107 0.204404
H60   H     H_    0.828022 0.740625 0.648712 0.206035
H61   H     H_    0.825770 0.991641 0.654756 0.210140
H62   H     H_    0.881823 0.986729 0.850286 0.187344
H63   H     H_    0.882791 0.732953 0.846712 0.195135
C92   C     C_3   0.140024 0.359286 0.180691 -0.347864
C93   C     C_3   0.151017 0.366727 0.313461 -0.350522
C94   C     C_3   0.102668 0.373740 0.357256 -0.685332
H64   H     H_    0.077765 0.488430 0.316461 0.252748
H65   H     H_    0.081434 0.241605 0.338175 0.232316
H66   H     H_    0.112390 0.395092 0.451888 0.204400
H67   H     H_    0.171977 0.240640 0.351273 0.206038
H68   H     H_    0.174219 0.491659 0.345250 0.210138
H69   H     H_    0.118169 0.486753 0.149712 0.187364
H70   H     H_    0.117212 0.232974 0.153278 0.195123
C95   C     C_3   0.180778 0.910595 0.768187 -0.371507
C96   C     C_3   0.128978 0.890352 0.795545 -0.301733
C97   C     C_3   0.135780 0.874214 0.926019 -0.708032
H71   H     H_    0.157570 0.747288 0.959232 0.218079
H72   H     H_    0.156443 0.995997 0.970937 0.213267
H73   H     H_    0.098633 0.867041 0.947734 0.253590
H74   H     H_    0.105459 0.015215 0.765726 0.225245
H75   H     H_    0.109905 0.761714 0.755961 0.197776
H76   H     H_    0.203118 0.788801 0.808774 0.191012
H77   H     H_    0.198700 0.034733 0.816267 0.201559
C98   C     C_3   0.819214 0.410629 0.231826 -0.371494
C99   C     C_3   0.871012 0.390364 0.204463 -0.301746
C100  C     C_3   0.864210 0.374224 0.073989 -0.708052
H78   H     H_    0.842419 0.247299 0.040777 0.218080
H79   H     H_    0.843547 0.496006 0.029072 0.213288
H80   H     H_    0.901357 0.367047 0.052274 0.253577
H81   H     H_    0.894534 0.515217 0.234284 0.225238
H82   H     H_    0.890082 0.261719 0.244043 0.197777
H83   H     H_    0.796867 0.288864 0.191223 0.191013
H84   H     H_    0.801297 0.534789 0.183766 0.201567

loop_
_geom_bond_atom_site_label_1
_geom_bond_atom_site_label_2
_ccdc_geom_bond_type
C81   H41   S    
C20   C22   A    
C98   C99   S    
C37   C39   A    
C65   C79   S    
C14   C16   A    
C90   H61   S    
O12   V3    S    
C9    C11   A    
C23   C25   A    
O14   V4    S    
C51   H21   S    
O1    C3    A    
C73   H31   S    
O2    C4    A    
C92   H70   S    
C12   H14   S    
C2    O7    A    
C45   C53   A    
C85   H53   S    
C79   H44   S    
C75   H25   S    
C87   O23   D    
C89   C90   S    
O5    C3    A    
C5    H5    S    
C48   C50   A    
C6    H6    S    
C2    C35   S    
C86   H54   S    
C50   C52   A    
O19   V3    S    
C5    C21   A    
H1    C29   S    
C75   H26   S    
C54   C98   S    
C52   H22   S    
C88   H56   S    
C27   H7    S    
C77   H36   S    
C81   H39   S    
C28   H8    S    
C95   H76   S    
C93   C94   S    
C91   H58   S    
O15   V3    S    
C58   H16   S    
C47   C55   A    
C74   H28   S    
C43   C45   A    
C6    C22   A    
C90   C91   S    
C63   C87   S    
C76   H38   S    
C33   C41   A    
O17   V3    S    
C10   C32   A    
C96   H75   S    
C91   H57   S    
C77   C78   S    
C35   C67   A    
C36   C66   A    
C99   H81   S    
C44   C48   A    
C78   H34   S    
C82   C83   S    
C13   C15   A    
O11   V4    S    
C43   C47   A    
C63   C65   A    
C17   C25   A    
C7    C29   A    
C16   C18   A    
C8    C30   A    
C34   C71   S    
C97   H73   S    
C38   H18   S    
C96   C97   S    
C34   C40   A    
O6    V2    S    
O20   V3    S    
C14   H12   S    
O13   C69   A    
C98   H83   S    
C24   C26   A    
C48   C56   A    
O13   V3    S    
C55   C57   A    
C79   H45   S    
C91   H59   S    
C62   C68   A    
C59   C61   A    
C83   H50   S    
C80   C81   S    
C11   H13   S    
C80   H43   S    
C21   C23   A    
C60   C64   A    
O19   V4    S    
C73   H30   S    
C87   H55   S    
O16   V4    S    
C59   C63   A    
C33   C72   S    
C94   H66   S    
C85   O21   D    
C3    C8    S    
O3    C1    A    
C77   H35   S    
C100  H78   S    
C32   C69   S    
C15   C19   A    
C95   H77   S    
C46   C54   A    
C6    C30   A    
C41   C43   A    
C82   H51   S    
O4    V2    S    
C92   C93   S    
C42   H20   S    
C17   C31   A    
C49   C51   A    
C64   C66   A    
C96   H74   S    
C70   O17   A    
O6    C4    A    
C57   H15   S    
C64   C88   S    
C66   C82   S    
C51   C53   A    
C40   C86   S    
O1    V2    S    
C83   C84   S    
C84   H48   S    
O2    V1    S    
C52   C54   A    
C26   C92   S    
C73   C74   S    
H2    C30   S    
C69   O18   A    
H3    C23   S    
C49   C61   A    
C57   C59   A    
C37   H17   S    
C37   C45   A    
C89   H63   S    
C56   C58   A    
C36   C68   A    
C78   H32   S    
C93   H68   S    
C98   H84   S    
C18   C26   A    
O4    C2    A    
C84   H47   S    
C94   H65   S    
C47   C49   A    
C19   C27   A    
C76   C77   S    
C7    C27   A    
O16   C72   A    
C18   C32   A    
C55   H23   S    
C100  H80   S    
C81   H40   S    
C50   C62   A    
C83   H49   S    
C67   C73   S    
C10   H10   S    
C16   C20   A    
C80   H42   S    
O11   C71   A    
C5    C29   A    
C58   C60   A    
C22   C24   A    
C75   H27   S    
C92   H69   S    
O15   C71   A    
C9    H9    S    
C10   C12   A    
C41   H19   S    
C68   C76   S    
C53   C95   S    
O12   C72   A    
C4    C7    S    
C82   H52   S    
C86   O22   D    
C74   C75   S    
C1    O8    A    
C19   C21   A    
O8    V2    S    
C79   C80   S    
C33   C39   A    
C12   C14   A    
C25   C89   S    
C39   C85   S    
C94   H64   S    
H4    C24   S    
C88   O24   D    
C61   C67   A    
O5    V1    S    
C15   C17   A    
O14   C70   A    
C1    C36   S    
C60   C62   A    
C38   C46   A    
C74   H29   S    
O20   V4    S    
C20   C28   A    
C76   H37   S    
C8    C28   A    
C89   H62   S    
C97   H71   S    
C9    C31   A    
C99   C100  S    
C34   C42   A    
C11   C13   A    
C95   C96   S    
O9    V2    S    
C99   H82   S    
C78   H33   S    
C42   C44   A    
C56   H24   S    
O10   V1    S    
O3    V1    S    
C44   C46   A    
C13   H11   S    
C84   H46   S    
C100  H79   S    
C90   H60   S    
C93   H67   S    
O18   V4    S    
C35   C65   A    
O7    V1    S    
C38   C40   A    
C31   C70   S    
C97   H72   S    
