data_mof_unit_30965.cif
_audit_creation_date              2012-12-10T20:41:51-0500
_audit_creation_method            fapswitch 2.2
_symmetry_space_group_name_H-M    P1
_symmetry_Int_Tables_number       1
_space_group_crystal_system       triclinic
_cell_length_a                    14.946658
_cell_length_b                    15.471237
_cell_length_c                    9.933028
_cell_angle_alpha                 90.371386
_cell_angle_beta                  92.324096
_cell_angle_gamma                 89.873502
_cell_volume                      2295.00409482

loop_
_atom_site_label
_atom_site_type_symbol
_atom_type_description
_atom_site_fract_x
_atom_site_fract_y
_atom_site_fract_z
_atom_type_partial_charge
C1    C     C_R   0.380916 0.879528 0.497755 0.889544
C2    C     C_R   0.378762 0.118706 0.498905 0.929263
C3    C     C_R   0.883695 0.377002 0.497816 0.873188
C4    C     C_R   0.878549 0.618109 0.498740 0.942149
C5    C     C_3   0.306721 0.233499 0.751516 0.260836
C6    C     C_3   0.370185 0.716100 0.696316 0.327085
C7    C     C_3   0.827617 0.746659 0.740753 0.255980
C8    C     C_3   0.797839 0.295416 0.743471 0.298191
C9    C     C_R   0.422299 0.013160 0.066430 0.183291
C10   C     C_R   0.930804 0.536108 0.067700 0.174933
C11   C     C_R   0.576685 0.993930 0.078734 -0.146637
C12   C     C_R   0.074644 0.480044 0.078066 -0.109251
C13   C     C_R   0.577693 0.004622 0.937202 0.212055
C14   C     C_R   0.077607 0.486801 0.934556 0.235303
C15   C     C_R   0.422149 0.011656 0.924678 0.157239
C16   C     C_R   0.929873 0.534396 0.926283 0.165874
C17   C     C_3   0.338927 0.959230 0.914213 -0.463693
C18   C     C_3   0.833238 0.511012 0.919321 -0.454404
C19   C     C_3   0.339057 0.960327 0.067432 -0.485273
C20   C     C_3   0.834179 0.515339 0.072153 -0.450259
C21   C     C_R   0.620704 0.119745 0.501304 0.925192
C22   C     C_R   0.618524 0.878551 0.500807 0.880471
C23   C     C_R   0.119416 0.620397 0.501409 0.932502
C24   C     C_R   0.117443 0.377770 0.500549 0.873468
C25   C     C_R   0.267394 0.202288 0.618104 0.007590
C26   C     C_R   0.335740 0.733453 0.555892 0.098208
C27   C     C_R   0.777212 0.709611 0.619676 0.003475
C28   C     C_R   0.815008 0.256418 0.610967 0.127431
C29   C     C_R   0.304431 0.176592 0.497294 -0.053201
C30   C     C_R   0.317675 0.811057 0.490103 -0.138017
C31   C     C_R   0.805323 0.676587 0.497849 -0.053612
C32   C     C_R   0.830092 0.300463 0.492697 -0.164066
C33   C     C_R   0.264174 0.203530 0.374698 -0.202299
C34   C     C_R   0.239217 0.820087 0.409306 -0.201515
C35   C     C_R   0.759048 0.698443 0.377356 -0.193612
C36   C     C_R   0.788052 0.273038 0.371817 -0.175271
C37   C     C_R   0.694110 0.762511 0.378658 -0.163091
C38   C     C_R   0.720233 0.212468 0.375360 -0.176072
C39   C     C_R   0.198390 0.266794 0.375401 -0.186351
C40   C     C_R   0.173005 0.757248 0.414348 -0.130239
C41   C     C_R   0.676153 0.804587 0.500550 -0.028142
C42   C     C_R   0.693799 0.179932 0.500020 -0.084876
C43   C     C_R   0.172542 0.302145 0.498902 -0.051287
C44   C     C_R   0.185740 0.686516 0.500790 -0.039923
C45   C     C_R   0.712786 0.772198 0.620747 0.149544
C46   C     C_R   0.745743 0.198150 0.616560 0.052183
C47   C     C_R   0.200323 0.262384 0.618355 0.085459
C48   C     C_R   0.269604 0.672234 0.562281 0.015203
C49   C     C_3   0.757954 0.817586 0.736964 -0.566190
C50   C     C_3   0.719035 0.236678 0.748395 -0.545384
C51   C     C_3   0.231846 0.300016 0.750005 -0.510175
C52   C     C_3   0.295234 0.650564 0.704316 -0.566732
H1    H     H_    0.287107 0.180330 0.278872 0.167704
H2    H     H_    0.227145 0.877526 0.349329 0.157356
H3    H     H_    0.776312 0.670227 0.282054 0.155096
H4    H     H_    0.801722 0.303270 0.276939 0.200348
H5    H     H_    0.282061 0.997228 0.107858 0.199928
H6    H     H_    0.350501 0.895551 0.112922 0.228069
H7    H     H_    0.794455 0.570322 0.110016 0.186392
H8    H     H_    0.821577 0.452367 0.120990 0.243361
H9    H     H_    0.662300 0.782195 0.283794 0.171365
H10   H     H_    0.685221 0.195569 0.281257 0.181775
H11   H     H_    0.172801 0.291702 0.279666 0.171754
H12   H     H_    0.110766 0.765608 0.356022 0.171266
H13   H     H_    0.785904 0.879586 0.703731 0.239060
H14   H     H_    0.728940 0.196033 0.837048 0.244441
H15   H     H_    0.254946 0.367380 0.737866 0.238579
H16   H     H_    0.316333 0.582069 0.714009 0.252993
H17   H     H_    0.716425 0.818967 0.827183 0.202443
H18   H     H_    0.653824 0.271377 0.740678 0.250872
H19   H     H_    0.182973 0.289818 0.829787 0.210022
H20   H     H_    0.244189 0.673402 0.774083 0.193976
H21   H     H_    0.301421 0.184959 0.832844 0.070753
H22   H     H_    0.362681 0.771401 0.765737 0.086632
H23   H     H_    0.823992 0.705623 0.831561 0.064637
H24   H     H_    0.776106 0.363407 0.734763 0.075846
H25   H     H_    0.638671 0.993439 0.139253 0.161330
H26   H     H_    0.133605 0.464917 0.139719 0.168249
H27   H     H_    0.282036 0.995646 0.866304 0.206458
H28   H     H_    0.350253 0.894137 0.872112 0.218070
H29   H     H_    0.789950 0.560672 0.869413 0.187636
H30   H     H_    0.822773 0.444969 0.884141 0.250952
N1    N     N_R   0.499140 0.000000 0.142800 -0.122569
N2    N     N_R   0.999140 0.500000 0.142800 -0.130247
N3    N     N_R   0.499160 1.000000 0.857150 -0.106835
N4    N     N_R   0.999160 0.500000 0.857150 -0.095467
O1    O     O_R   0.408400 0.908380 0.614690 -0.622656
O2    O     O_R   0.408400 0.091620 0.614690 -0.586278
O3    O     O_R   0.908400 0.408380 0.614690 -0.594136
O4    O     O_R   0.908400 0.591620 0.614690 -0.597521
O5    O     O_R   0.408370 0.908370 0.385350 -0.617292
O6    O     O_R   0.408370 0.091630 0.385350 -0.634076
O7    O     O_R   0.908370 0.408370 0.385350 -0.629144
O8    O     O_R   0.908370 0.591630 0.385350 -0.633238
O9    O     O_R   0.591610 0.091610 0.614650 -0.595195
O10   O     O_R   0.591610 0.908390 0.614650 -0.588918
O11   O     O_R   0.091610 0.591610 0.614650 -0.590031
O12   O     O_R   0.091610 0.408390 0.614650 -0.616338
O13   O     O_R   0.591590 0.091600 0.385310 -0.637087
O14   O     O_R   0.591590 0.908400 0.385310 -0.634115
O15   O     O_R   0.091590 0.591600 0.385310 -0.632854
O16   O     O_R   0.091590 0.408400 0.385310 -0.638832
Zn1   Zn    Zn3+2 0.500010 1.000000 0.653130 1.007145
Zn2   Zn    Zn3+2 0.000010 0.500000 0.653130 1.016198
Zn3   Zn    Zn3+2 0.499980 0.000000 0.346870 0.958822
Zn4   Zn    Zn3+2 0.999980 0.500000 0.346870 0.953101
S1    S     S_3+6 0.415216 0.283232 0.746976 0.029600
O17   O     O_2   0.431971 0.316349 0.608333 -0.256328
O18   O     O_2   0.421379 0.357362 0.845391 -0.285378
O19   O     O_3   0.493820 0.210242 0.791122 -0.553304
H31   H     H_    0.484113 0.198021 0.887195 0.333653
S2    S     S_3+6 0.480711 0.670360 0.703973 0.033850
O20   O     O_2   0.480546 0.584359 0.773735 -0.266427
O21   O     O_2   0.515130 0.658846 0.564840 -0.286235
O22   O     O_3   0.548016 0.738597 0.792749 -0.568898
H32   H     H_    0.597480 0.702100 0.830015 0.365969
S3    S     S_3+6 0.938557 0.787627 0.715589 0.029432
O23   O     O_2   0.951966 0.804542 0.568950 -0.291707
O24   O     O_2   0.952147 0.870672 0.793135 -0.278817
O25   O     O_3   0.014986 0.715594 0.772815 -0.523381
H33   H     H_    0.005799 0.711529 0.870759 0.332004
S4    S     S_3+6 0.886702 0.269412 0.865296 0.002625
O26   O     O_2   0.907031 0.174291 0.860904 -0.284459
O27   O     O_2   0.970144 0.318157 0.835092 -0.297928
O28   O     O_3   0.854413 0.295924 0.020221 -0.602449
H34   H     H_    0.910430 0.297463 0.077050 0.377877
C53   C     C_3   0.652719 0.060530 0.898068 -0.451281
C54   C     C_3   0.728209 0.012923 0.834237 -0.762031
H35   H     H_    0.750181 0.958403 0.899520 0.256940
H36   H     H_    0.706069 0.992427 0.732067 0.272373
H37   H     H_    0.786416 0.056128 0.824130 0.289235
H38   H     H_    0.622754 0.110310 0.834040 0.269868
H39   H     H_    0.682083 0.096714 0.986688 0.197717
C55   C     C_3   0.166563 0.508553 0.877281 -0.432179
C56   C     C_3   0.249883 0.477258 0.958324 -0.867631
H40   H     H_    0.243758 0.407992 0.984804 0.269303
H41   H     H_    0.309987 0.485498 0.897942 0.306825
H42   H     H_    0.260616 0.516506 0.051569 0.263901
H43   H     H_    0.170942 0.486148 0.773265 0.255558
H44   H     H_    0.168513 0.579734 0.875668 0.215821

loop_
_geom_bond_atom_site_label_1
_geom_bond_atom_site_label_2
_ccdc_geom_bond_type
C1    O1    A    
C56   H42   S    
C7    S3    S    
C17   H27   S    
N4    Zn2   S    
C54   H35   S    
S2    O21   D    
C56   H40   S    
C6    C26   S    
C19   H5    S    
C28   C46   A    
O14   Zn3   S    
C33   C39   A    
C49   H13   S    
C2    C29   S    
C24   O12   A    
C32   C36   A    
C35   C37   A    
C38   C42   A    
S3    O24   D    
C55   H44   S    
C21   O13   A    
C22   C41   S    
O22   H32   S    
C29   C33   A    
C8    H24   S    
C18   H29   S    
C7    C27   S    
C12   N2    A    
C25   C29   A    
C56   H41   S    
C42   C46   A    
O5    Zn3   S    
O19   H31   S    
C11   H25   S    
C18   H30   S    
C53   H38   S    
C9    C19   S    
C10   C20   S    
C12   H26   S    
N2    Zn4   S    
S1    O17   D    
C2    O2    A    
C20   H8    S    
C25   C47   A    
C40   C44   A    
C18   C20   S    
C52   H16   S    
C26   C48   A    
C15   N3    A    
C27   C45   A    
C1    O5    A    
C49   H17   S    
C16   N4    A    
S1    O18   D    
C22   O10   A    
S2    O20   D    
O9    Zn1   S    
C6    H22   S    
C4    O4    A    
C19   H6    S    
C33   H1    S    
O13   Zn3   S    
C22   O14   A    
C30   C34   A    
C27   C31   A    
O11   Zn2   S    
C28   C32   A    
C14   N4    A    
S3    O25   S    
C55   H43   S    
C7    H23   S    
C21   O9    A    
C11   N1    A    
C35   H3    S    
C17   H28   S    
C23   C44   S    
N1    Zn3   S    
C36   H4    S    
O7    Zn4   S    
C37   H9    S    
C45   C49   S    
O4    Zn2   S    
C52   H20   S    
C3    O7    A    
C51   H15   S    
C20   H7    S    
C2    O6    A    
C50   H14   S    
C7    C49   S    
C9    N1    A    
C4    O8    A    
C34   C40   A    
C23   O11   A    
C12   C14   A    
C34   H2    S    
O3    Zn2   S    
O28   H34   S    
C8    C28   S    
S1    O19   S    
O1    Zn1   S    
S4    O27   D    
C53   C54   S    
C54   H37   S    
C8    C50   S    
O2    Zn1   S    
C39   H11   S    
O25   H33   S    
C5    S1    S    
O15   Zn4   S    
C15   C17   S    
O8    Zn4   S    
C6    S2    S    
C5    H21   S    
C53   H39   S    
C54   H36   S    
N3    Zn1   S    
C5    C25   S    
C47   C51   S    
C51   H19   S    
C26   C30   A    
C55   C56   S    
C14   C55   S    
C46   C50   S    
C40   H12   S    
C3    O3    A    
S4    O28   S    
C36   C38   A    
C9    C15   A    
C10   C16   A    
S3    O23   D    
C11   C13   A    
C8    S4    S    
C23   O15   A    
O12   Zn2   S    
C31   C35   A    
C10   N2    A    
C1    C30   S    
C17   C19   S    
O16   Zn4   S    
C24   O16   A    
C37   C41   A    
C3    C32   S    
C50   H18   S    
C4    C31   S    
C21   C42   S    
C13   C53   S    
O6    Zn3   S    
C48   C52   S    
C39   C43   A    
C16   C18   S    
O10   Zn1   S    
C13   N3    A    
C24   C43   S    
C41   C45   A    
C5    C51   S    
C6    C52   S    
S4    O26   D    
C43   C47   A    
S2    O22   S    
C44   C48   A    
C38   H10   S    
