data_mof_unit_68351.cif
_audit_creation_date              2012-12-11T16:11:44-0500
_audit_creation_method            fapswitch 2.2
_symmetry_space_group_name_H-M    P1
_symmetry_Int_Tables_number       1
_space_group_crystal_system       triclinic
_cell_length_a                    7.003708
_cell_length_b                    14.747673
_cell_length_c                    15.528316
_cell_angle_alpha                 89.926148
_cell_angle_beta                  89.243078
_cell_angle_gamma                 90.45321
_cell_volume                      1603.70315573

loop_
_atom_site_label
_atom_site_type_symbol
_atom_type_description
_atom_site_fract_x
_atom_site_fract_y
_atom_site_fract_z
_atom_type_partial_charge
O1    O     O_R   0.638960 0.835150 0.161940 -0.549028
O2    O     O_R   0.361040 0.164850 0.838060 -0.549030
O3    O     O_R   0.309170 0.846340 0.337470 -0.547957
O4    O     O_R   0.690830 0.153660 0.662530 -0.547956
O5    O     O_R   0.138810 0.664830 0.338070 -0.540672
O6    O     O_R   0.861190 0.335170 0.661930 -0.540669
C1    C     C_R   0.477069 0.868580 0.366024 0.803735
C2    C     C_R   0.522931 0.131420 0.633976 0.803737
O7    O     O_R   0.309250 0.846350 0.162570 -0.534487
O8    O     O_R   0.690750 0.153650 0.837430 -0.534491
O9    O     O_R   0.138880 0.664840 0.161920 -0.551773
O10   O     O_R   0.861120 0.335160 0.838080 -0.551770
C3    C     C_R   0.480158 0.867473 0.133280 0.774107
C4    C     C_R   0.519842 0.132529 0.866721 0.774098
O11   O     O_R   0.638880 0.835150 0.338090 -0.512038
O12   O     O_R   0.361120 0.164850 0.661910 -0.512038
O13   O     O_3   0.472380 0.690440 0.250000 -0.379691
O14   O     O_3   0.527620 0.309560 0.750000 -0.379683
V1    V     V_3+5 0.197550 0.761040 0.250010 1.485029
V2    V     V_3+5 0.802450 0.238960 0.749990 1.485030
O15   O     O_R   0.809160 0.653640 0.162540 -0.534169
O16   O     O_R   0.190840 0.346360 0.837460 -0.534171
C5    C     C_R   0.977458 0.634906 0.130972 0.726853
C6    C     C_R   0.022542 0.365089 0.869032 0.726847
O17   O     O_R   0.809090 0.653640 0.337440 -0.525928
O18   O     O_R   0.190910 0.346360 0.662560 -0.525927
C7    C     C_R   0.976977 0.633964 0.368383 0.765228
C8    C     C_R   0.023023 0.366036 0.631618 0.765233
V3    V     V_3+5 0.697540 0.738950 0.250000 1.528070
V4    V     V_3+5 0.302460 0.261050 0.750000 1.528067
O19   O     O_3   0.972580 0.809550 0.250010 -0.368647
O20   O     O_3   0.027420 0.190450 0.749990 -0.368649
C9    C     C_3   0.174662 0.538328 0.486943 -0.157133
C10   C     C_3   0.825338 0.461672 0.513057 -0.157134
C11   C     C_3   0.059392 0.535409 0.572361 0.186163
C12   C     C_3   0.940608 0.464591 0.427639 0.186165
H1    H     H_    0.317472 0.570258 0.477746 0.185242
H2    H     H_    0.682528 0.429742 0.522254 0.185242
C13   C     C_3   0.011975 0.434955 0.559951 -0.146784
C14   C     C_3   0.988025 0.565045 0.440049 -0.146781
C15   C     C_3   0.124611 0.436428 0.473431 0.127017
C16   C     C_3   0.875389 0.563572 0.526570 0.127019
C17   C     C_3   0.830201 0.467437 0.983462 0.207475
C18   C     C_3   0.169798 0.532549 0.016549 0.207482
C19   C     C_3   0.921496 0.466429 0.073295 -0.208466
C20   C     C_3   0.078505 0.533557 0.926717 -0.208546
H3    H     H_    0.852146 0.437889 0.132170 0.180892
H4    H     H_    0.147859 0.562098 0.867843 0.180891
C21   C     C_3   0.985318 0.566205 0.059246 -0.187911
C22   C     C_3   0.014684 0.433782 0.940763 -0.187921
C23   C     C_3   0.889339 0.566888 0.969350 0.192516
C24   C     C_3   0.110667 0.433098 0.030661 0.192588
C25   C     C_3   0.671969 0.974171 0.474262 0.101957
C26   C     C_3   0.328030 0.025828 0.525739 0.101957
C27   C     C_3   0.599962 0.073103 0.470144 0.158313
C28   C     C_3   0.400037 0.926896 0.529856 0.158313
C29   C     C_3   0.516234 0.061613 0.563251 -0.158712
C30   C     C_3   0.483766 0.938387 0.436750 -0.158712
C31   C     C_3   0.590162 0.963233 0.566117 0.126345
C32   C     C_3   0.409838 0.036766 0.433883 0.126346
C33   C     C_3   0.618638 0.933615 0.979607 0.108660
C34   C     C_3   0.381360 0.066389 0.020395 0.108667
C35   C     C_3   0.446924 0.961349 0.925028 0.170705
C36   C     C_3   0.553075 0.038654 0.074975 0.170708
C37   C     C_3   0.503332 0.062859 0.937090 -0.165625
C38   C     C_3   0.496666 0.937144 0.062913 -0.165632
C39   C     C_3   0.673515 0.033989 0.991081 0.102053
C40   C     C_3   0.326484 0.966014 0.008922 0.102049
N1    N     N_3   0.125709 0.571811 0.653979 -0.595168
H5    H     H_    0.116425 0.642144 0.650800 0.297542
H6    H     H_    0.028037 0.551230 0.701739 0.226615
N2    N     N_3   0.874291 0.428189 0.346021 -0.595170
H7    H     H_    0.883570 0.357856 0.349201 0.297541
H8    H     H_    0.971967 0.448768 0.298262 0.226608
I1    I     I_    0.354734 0.898726 0.808906 -0.264947
I2    I     I_    0.645266 0.101277 0.191097 -0.264943
N3    N     N_3   0.738640 0.858239 0.955265 -0.593696
H9    H     H_    0.820192 0.877142 0.901304 0.268844
H10   H     H_    0.826051 0.842262 0.006828 0.253287
N4    N     N_3   0.261359 0.141765 0.044738 -0.593698
H11   H     H_    0.179807 0.122863 0.098699 0.268838
H12   H     H_    0.173949 0.157743 0.993175 0.253279
N5    N     N_3   0.855164 0.079969 0.981883 -0.648885
H13   H     H_    0.932085 0.062564 0.035723 0.233487
H14   H     H_    0.922717 0.057243 0.925746 0.237477
N6    N     N_3   0.144835 0.920035 0.018119 -0.648883
H15   H     H_    0.067914 0.937440 0.964280 0.233487
H16   H     H_    0.077282 0.942761 0.074257 0.237477
I3    I     I_    0.318676 0.337583 0.426477 -0.349970
I4    I     I_    0.681323 0.662417 0.573523 -0.349967
N7    N     N_3   0.639732 0.431411 0.967666 -0.569991
H17   H     H_    0.607104 0.443811 0.903301 0.261210
H18   H     H_    0.644913 0.361142 0.975738 0.252899
N8    N     N_3   0.360257 0.568595 0.032333 -0.570015
H19   H     H_    0.392865 0.556309 0.096726 0.261215
H20   H     H_    0.355065 0.638855 0.024143 0.252905
I5    I     I_    0.710204 0.654917 0.898677 -0.311197
I6    I     I_    0.289889 0.345093 0.101316 -0.311077
I7    I     I_    0.764604 0.186434 0.426579 -0.372967
I8    I     I_    0.235397 0.813566 0.573422 -0.372962
N9    N     N_3   0.853526 0.941725 0.440079 -0.615321
H21   H     H_    0.945830 0.996489 0.431046 0.239638
H22   H     H_    0.910966 0.896318 0.483870 0.245885
N10   N     N_3   0.146474 0.058275 0.559921 -0.615319
H23   H     H_    0.054170 0.003510 0.568956 0.239638
H24   H     H_    0.089033 0.103681 0.516130 0.245884
N11   N     N_3   0.687708 0.923922 0.639358 -0.575453
H25   H     H_    0.753104 0.864337 0.618692 0.282914
H26   H     H_    0.796038 0.968701 0.657473 0.236420
N12   N     N_3   0.312291 0.076078 0.360642 -0.575457
H27   H     H_    0.246897 0.135663 0.381308 0.282913
H28   H     H_    0.203960 0.031299 0.342529 0.236419

loop_
_geom_bond_atom_site_label_1
_geom_bond_atom_site_label_2
_ccdc_geom_bond_type
C18   C21   S    
C23   I5    S    
C38   C40   S    
C35   C37   S    
C39   N5    S    
N9    H21   S    
O13   V3    S    
C15   I3    S    
C10   C16   S    
O4    C2    A    
V1    O19   S    
N10   H24   S    
C25   C31   S    
C13   C15   S    
C26   C32   S    
N3    H9    S    
O9    V1    S    
C26   N10   S    
O3    C1    A    
N6    H16   S    
C29   C31   S    
O12   V4    S    
C40   N6    S    
N1    H6    S    
C24   I6    S    
C33   C35   S    
C11   C16   S    
O7    C3    A    
N12   H27   S    
C34   C36   S    
N12   H28   S    
C9    C11   S    
O5    C7    A    
C33   C38   S    
O7    V1    S    
O6    C8    A    
C33   N3    S    
C37   C39   S    
C22   C24   S    
N11   H25   S    
O3    V1    S    
O14   V4    S    
C1    C30   S    
C10   C12   S    
C18   C24   S    
C19   H3    S    
C2    O12   A    
C27   C32   S    
C6    C22   S    
N11   H26   S    
C12   C15   S    
N8    H19   S    
N10   H23   S    
C18   C20   S    
O11   V3    S    
C20   H4    S    
C3    C38   S    
C25   C27   S    
O17   V3    S    
C26   C28   S    
C9    C14   S    
C10   C13   S    
C36   C39   S    
C12   C14   S    
C18   N8    S    
N2    H8    S    
O8    C4    A    
O8    V2    S    
N7    H17   S    
N6    H15   S    
N4    H11   S    
C1    O11   A    
C19   C24   S    
C21   C23   S    
O15   V3    S    
C20   C23   S    
C17   N7    S    
C16   I4    S    
C36   C38   S    
C11   C13   S    
C2    C29   S    
N7    H18   S    
C33   C39   S    
C14   C16   S    
N5    H13   S    
C19   C21   S    
C7    C14   S    
O10   V2    S    
O1    V3    S    
C36   I2    S    
N3    H10   S    
N8    H20   S    
C17   C19   S    
N4    H12   S    
N5    H14   S    
O18   V4    S    
O15   C5    A    
O16   C6    A    
O1    C3    A    
C28   I8    S    
C9    H1    S    
V2    O20   S    
C34   N4    S    
O10   C6    A    
C35   C40   S    
O16   V4    S    
C34   C37   S    
C10   H2    S    
O18   C8    A    
N2    H7    S    
C25   C30   S    
C17   C22   S    
O5    V1    S    
O17   C7    A    
C5    C21   S    
O6    V2    S    
C20   C22   S    
C25   N9    S    
C8    C13   S    
C28   C31   S    
C34   C40   S    
O2    V4    S    
C9    C15   S    
C27   C29   S    
V3    O19   S    
V4    O20   S    
C17   C23   S    
C35   I1    S    
O9    C5    A    
O13   V1    S    
C4    C37   S    
C28   C30   S    
O14   V2    S    
N1    H5    S    
O2    C4    A    
C31   N11   S    
C32   N12   S    
O4    V2    S    
C11   N1    S    
N9    H22   S    
C27   I7    S    
C30   C32   S    
C12   N2    S    
C26   C29   S    
