data_mof_unit_56959.cif
_audit_creation_date              2012-12-10T20:55:08-0500
_audit_creation_method            fapswitch 2.2
_symmetry_space_group_name_H-M    P1
_symmetry_Int_Tables_number       1
_space_group_crystal_system       triclinic
_cell_length_a                    15.849632
_cell_length_b                    15.034758
_cell_length_c                    10.630556
_cell_angle_alpha                 89.331625
_cell_angle_beta                  89.437874
_cell_angle_gamma                 90.242722
_cell_volume                      2532.89415367

loop_
_atom_site_label
_atom_site_type_symbol
_atom_type_description
_atom_site_fract_x
_atom_site_fract_y
_atom_site_fract_z
_atom_type_partial_charge
C1    C     C_R   0.338814 0.499691 0.500651 0.899393
C2    C     C_R   0.527018 0.951984 0.606316 -0.272425
C3    C     C_R   0.500535 0.904828 0.500381 -0.067403
C4    C     C_R   0.528669 0.046114 0.606011 0.494601
C5    C     C_R   0.472724 0.047374 0.393994 0.494241
C6    C     C_R   0.500675 0.094794 0.499883 -0.173518
C7    C     C_1   0.500198 0.807171 0.500435 0.090003
C8    C     C_1   0.500281 0.192789 0.499899 0.184899
C9    C     C_R   0.517031 0.501076 0.262423 0.975113
C10   C     C_R   0.496651 0.499692 0.742146 0.975357
C11   C     C_R   0.550243 0.670537 0.110322 0.583457
C12   C     C_R   0.661087 0.500186 0.499312 0.878207
C13   C     C_R   0.444948 0.655065 0.899845 0.561013
C14   C     C_R   0.514366 0.746950 0.053219 -0.374958
C15   C     C_R   0.459591 0.738318 0.952962 -0.298098
C16   C     C_R   0.490105 0.579750 0.944805 -0.158298
C17   C     C_R   0.527558 0.585624 0.062664 -0.114067
C18   C     C_R   0.538128 0.504839 0.129828 -0.246536
C19   C     C_R   0.502986 0.499707 0.877300 -0.289810
C20   C     C_R   0.549730 0.424822 0.066156 0.383173
C21   C     C_R   0.541068 0.425288 0.936350 0.389881
C22   C     C_R   0.957933 0.558083 0.416342 0.374729
C23   C     C_R   0.953322 0.433225 0.566005 0.306057
C24   C     C_R   0.045693 0.560252 0.423908 0.371523
C25   C     C_R   0.912716 0.496839 0.491125 -0.214843
C26   C     C_R   0.086602 0.497905 0.500815 -0.224341
C27   C     C_3   0.519762 0.280763 0.125512 -0.136545
C28   C     C_3   0.654166 0.360752 0.842654 -0.205083
C29   C     C_3   0.643172 0.758618 0.229861 0.047006
C30   C     C_3   0.712452 0.750860 0.328199 -0.281461
C31   C     C_3   0.752635 0.841123 0.354188 -0.960412
C32   C     C_3   0.304132 0.649673 0.857076 0.072748
C33   C     C_3   0.241986 0.682209 0.757804 -0.350127
C34   C     C_R   0.041493 0.436598 0.576125 0.326792
C35   C     C_3   0.262168 0.777038 0.713511 -0.787915
C36   C     C_3   0.100096 0.699804 0.417764 -0.263588
C37   C     C_3   0.909152 0.583783 0.219824 -0.279889
C38   C     C_3   0.909504 0.287317 0.580043 0.121827
C39   C     C_3   0.826825 0.268448 0.511731 -0.355470
C40   C     C_3   0.823065 0.172865 0.465336 -0.982948
C41   C     C_3   0.071229 0.393301 0.779751 0.136408
C42   C     C_3   0.129526 0.467696 0.824987 -0.412116
C43   C     C_3   0.118368 0.482416 0.966078 -0.954640
C44   C     C_3   0.359514 0.094978 0.284050 -0.340760
C45   C     C_1   0.823893 0.499574 0.492490 0.126125
C46   C     C_3   0.641567 0.099767 0.709907 -0.309687
C47   C     C_1   0.175634 0.497660 0.502225 0.130793
C48   C     C_1   0.250453 0.498601 0.501723 -0.201258
C49   C     C_1   0.749213 0.500520 0.495496 -0.198118
C50   C     C_R   0.474373 0.953256 0.394126 -0.283318
H1    H     H_    0.525656 0.813439 0.086792 0.155219
H2    H     H_    0.673946 0.305012 0.781832 0.173461
H3    H     H_    0.593725 0.803471 0.267787 0.145804
H4    H     H_    0.671365 0.786929 0.141608 0.140959
H5    H     H_    0.685228 0.723811 0.417381 0.244699
H6    H     H_    0.761776 0.704386 0.294525 0.253933
H7    H     H_    0.781662 0.869290 0.266847 0.266026
H8    H     H_    0.802596 0.833113 0.425886 0.273954
H9    H     H_    0.704452 0.888027 0.390563 0.263911
H10   H     H_    0.297625 0.693454 0.940728 0.125441
H11   H     H_    0.286531 0.580889 0.886402 0.115229
H12   H     H_    0.428805 0.796782 0.914922 0.179388
H13   H     H_    0.243855 0.637192 0.675966 0.221370
H14   H     H_    0.177128 0.680493 0.798415 0.170128
H15   H     H_    0.261572 0.823053 0.794506 0.238638
H16   H     H_    0.214012 0.799378 0.645063 0.217921
H17   H     H_    0.325067 0.779919 0.666567 0.286077
H18   H     H_    0.132616 0.688653 0.508871 0.140935
H19   H     H_    0.037712 0.731593 0.433990 0.185664
H20   H     H_    0.139329 0.746878 0.361028 0.181143
H21   H     H_    0.870813 0.521551 0.221164 0.149785
H22   H     H_    0.972225 0.571514 0.176640 0.187747
H23   H     H_    0.454686 0.918100 0.310902 0.159232
H24   H     H_    0.876344 0.632859 0.159104 0.179857
H25   H     H_    0.916928 0.237412 0.657005 0.158671
H26   H     H_    0.964053 0.278037 0.514158 0.141197
H27   H     H_    0.772601 0.280046 0.576543 0.229229
H28   H     H_    0.821210 0.314422 0.429715 0.226488
H29   H     H_    0.876002 0.160127 0.398796 0.269416
H30   H     H_    0.762598 0.161697 0.415897 0.273415
H31   H     H_    0.826630 0.125363 0.545921 0.257373
H32   H     H_    0.086078 0.331442 0.833090 0.156648
H33   H     H_    0.004546 0.409547 0.803316 0.166503
H34   H     H_    0.546917 0.915868 0.689618 0.168773
H35   H     H_    0.196260 0.450175 0.804354 0.234209
H36   H     H_    0.114446 0.530513 0.774264 0.206205
H37   H     H_    0.051736 0.499170 0.988367 0.258642
H38   H     H_    0.158979 0.538364 0.996278 0.265684
H39   H     H_    0.136357 0.421633 0.019629 0.267751
H40   H     H_    0.332859 0.127646 0.369046 0.167510
H41   H     H_    0.332579 0.026970 0.274172 0.168201
H42   H     H_    0.339999 0.134745 0.200814 0.192394
H43   H     H_    0.662389 0.141741 0.628350 0.162615
H44   H     H_    0.673626 0.034034 0.707859 0.153341
H45   H     H_    0.524651 0.244311 0.035620 0.207137
H46   H     H_    0.661553 0.133792 0.796777 0.198729
H47   H     H_    0.453882 0.304197 0.141102 0.134264
H48   H     H_    0.534115 0.232729 0.202117 0.208614
H49   H     H_    0.691684 0.356822 0.930414 0.171457
H50   H     H_    0.668747 0.423722 0.790468 0.132079
N1    N     N_1   0.500000 0.270550 0.500000 -0.086098
N2    N     N_1   0.500000 0.729450 0.500000 -0.080572
O1    O     O_R   0.378020 0.573650 0.500040 -0.594422
O2    O     O_3   0.567034 0.351979 0.868715 -0.580284
O3    O     O_3   0.608838 0.673353 0.208120 -0.633053
O4    O     O_3   0.386440 0.648515 0.804780 -0.604040
O5    O     O_3   0.091712 0.620016 0.350555 -0.577433
O6    O     O_3   0.916323 0.619274 0.341470 -0.588556
O7    O     O_3   0.906005 0.372287 0.635921 -0.649238
O8    O     O_3   0.084716 0.375784 0.650379 -0.628304
O9    O     O_3   0.448358 0.093041 0.286965 -0.626896
O10   O     O_3   0.553066 0.090207 0.713082 -0.584455
O11   O     O_R   0.621980 0.573650 0.499960 -0.620214
O12   O     O_R   0.378020 0.426320 0.500100 -0.614903
O13   O     O_R   0.621980 0.426320 0.499900 -0.618049
O14   O     O_R   0.500000 0.573680 0.316780 -0.589354
O15   O     O_R   0.500000 0.573680 0.683220 -0.579060
O16   O     O_R   0.500000 0.426350 0.316830 -0.600729
O17   O     O_R   0.500000 0.426350 0.683170 -0.569588
O18   O     O_3   0.579673 0.350464 0.129846 -0.612289
Zn1   Zn    Zn3+2 0.500000 0.598370 0.500000 1.009745
Zn2   Zn    Zn3+2 0.500000 0.401630 0.500000 1.009008

loop_
_geom_bond_atom_site_label_1
_geom_bond_atom_site_label_2
_ccdc_geom_bond_type
C37   H24   S    
C27   H48   S    
C46   O10   S    
C41   C42   S    
C27   H45   S    
C12   C49   S    
C38   H26   S    
C27   O18   S    
C43   H39   S    
C43   H38   S    
C39   H27   S    
C31   H8    S    
C19   C21   A    
C24   C26   A    
C32   H11   S    
C3    C7    S    
C16   C19   A    
C5    C6    A    
C11   C14   A    
C29   H4    S    
C35   H15   S    
C41   H33   S    
O16   Zn2   S    
C31   H9    S    
O15   Zn1   S    
C10   O17   A    
C21   O2    S    
C2    H34   S    
C26   C34   A    
C11   C17   A    
C47   C48   T    
C16   C17   A    
C22   C25   A    
C11   O3    S    
C40   H30   S    
C42   H36   S    
C45   C49   T    
N2    Zn1   S    
C8    N1    T    
C1    O1    A    
C44   H42   S    
C12   O13   A    
C28   H50   S    
C4    O10   S    
O13   Zn2   S    
C32   O4    S    
C36   O5    S    
C9    O16   A    
C29   O3    S    
C3    C50   A    
C36   H20   S    
C38   H25   S    
C38   C39   S    
C23   O7    S    
O14   Zn1   S    
C39   H28   S    
C37   O6    S    
C4    C6    A    
C50   H23   S    
C39   C40   S    
C42   H35   S    
C6    C8    S    
C5    O9    S    
C35   H16   S    
C30   H6    S    
C7    N2    T    
C2    C4    A    
C29   C30   S    
C28   O2    S    
C14   H1    S    
C46   H44   S    
C35   H17   S    
C10   C19   S    
C33   H13   S    
C23   C34   A    
C17   C18   A    
C40   H29   S    
C46   H46   S    
C24   O5    S    
C38   O7    S    
C44   H41   S    
C26   C47   S    
C28   H49   S    
C41   O8    S    
C37   H21   S    
C34   O8    S    
C22   C24   A    
C5    C50   A    
C13   C16   A    
C1    O12   A    
C32   H10   S    
O1    Zn1   S    
C25   C45   S    
C20   O18   S    
C44   H40   S    
C36   H19   S    
C12   O11   A    
O17   Zn2   S    
C27   H47   S    
C9    O14   A    
C40   H31   S    
C13   O4    S    
C36   H18   S    
C1    C48   S    
C30   H5    S    
N1    Zn2   S    
C43   H37   S    
C32   C33   S    
C31   H7    S    
C13   C15   A    
C2    C3    A    
C10   O15   A    
C28   H2    S    
C30   C31   S    
C46   H43   S    
C29   H3    S    
C33   H14   S    
C22   O6    S    
C41   H32   S    
C33   C35   S    
C15   H12   S    
C18   C20   A    
C23   C25   A    
O12   Zn2   S    
C44   O9    S    
C9    C18   S    
O11   Zn1   S    
C20   C21   A    
C42   C43   S    
C37   H22   S    
C14   C15   A    
