data_mof_unit_6729.cif
_audit_creation_date              2012-10-26T19:42:17-0400
_audit_creation_method            fapswitch 2.2
_symmetry_space_group_name_H-M    P1
_symmetry_Int_Tables_number       1
_space_group_crystal_system       triclinic
_cell_length_a                    9.689496
_cell_length_b                    10.944535
_cell_length_c                    17.375728
_cell_angle_alpha                 97.013088
_cell_angle_beta                  84.758116
_cell_angle_gamma                 90.776522
_cell_volume                      1821.20431479

loop_
_atom_site_label
_atom_site_type_symbol
_atom_type_description
_atom_site_fract_x
_atom_site_fract_y
_atom_site_fract_z
_atom_type_partial_charge
C1    C     C_R   0.501228 0.736523 0.493907 0.513137
C2    C     C_R   0.529957 0.525715 0.267072 -0.070257
C3    C     C_R   0.251250 0.880423 0.470924 -0.158777
C4    C     C_R   0.480999 0.502990 0.650181 0.560860
C5    C     C_R   0.126920 0.930564 0.504488 -0.161330
C6    C     C_R   0.125498 0.038340 0.556061 0.346738
C7    C     C_R   0.247766 0.111222 0.561649 0.329467
C8    C     C_R   0.373026 0.062231 0.520821 -0.033127
C9    C     C_R   0.376248 0.936665 0.490705 -0.084887
C10   C     C_R   0.502024 0.870700 0.485936 -0.042359
C11   C     C_R   0.627495 0.937247 0.488510 0.255256
C12   C     C_R   0.352517 0.551977 0.783702 0.352978
C13   C     C_R   0.625716 0.066359 0.505892 0.260693
C14   C     C_R   0.498106 0.130085 0.515301 -0.011617
C15   C     C_R   0.879780 0.364790 0.369874 0.278146
C16   C     C_R   0.498453 0.263954 0.507213 0.619399
C17   C     C_R   0.969110 0.330925 0.302097 -0.154587
C18   C     C_R   0.108308 0.323818 0.306890 0.311962
C19   C     C_R   0.161912 0.360633 0.376508 0.414374
C20   C     C_R   0.084318 0.434621 0.438202 -0.038090
C21   C     C_R   0.935145 0.436081 0.436533 0.017129
C22   C     C_R   0.917585 0.557880 0.560473 0.373005
C23   C     C_R   0.408306 0.550206 0.153182 0.238657
C24   C     C_R   0.065268 0.558413 0.560177 0.349033
C25   C     C_R   0.519470 0.506851 0.350565 0.584605
C26   C     C_R   0.474799 0.519634 0.736047 -0.058159
C27   C     C_R   0.599772 0.514809 0.770585 -0.166612
C28   C     C_R   0.606494 0.549988 0.850078 0.232510
C29   C     C_R   0.483288 0.580966 0.897316 0.037249
C30   C     C_R   0.356908 0.585641 0.863953 0.264294
C31   C     C_3   0.823238 0.639068 0.068592 -0.087952
C32   C     C_3   0.783364 0.836846 0.397877 -0.141297
C33   C     C_3   0.132942 0.281437 0.634164 0.023736
C34   C     C_R   0.406841 0.543289 0.232839 -0.149577
C35   C     C_3   0.850273 0.121538 0.467502 0.025827
C36   C     C_3   0.807022 0.726169 0.630738 -0.067178
C37   C     C_3   0.702801 0.239913 0.311057 -0.091362
C38   C     C_3   0.140612 0.725649 0.639575 -0.020035
C39   C     C_3   0.873162 0.610336 0.250164 -0.096472
C40   C     C_3   0.198469 0.735897 0.904958 -0.050957
C41   C     C_3   0.205988 0.460267 0.117690 -0.056925
C42   C     C_3   0.830558 0.622816 0.848052 -0.090160
C43   C     C_R   0.658863 0.530298 0.221813 0.243047
C44   C     C_R   0.660972 0.537485 0.141077 0.261136
C45   C     C_R   0.534957 0.542347 0.106998 0.050596
C46   C     C_2   0.485420 0.605820 0.982170 0.430115
C47   C     C_2   0.534482 0.521250 0.022170 0.446407
Cu1   Cu    Cu3+1 0.359340 0.500010 0.500010 1.055231
Cu2   Cu    Cu3+1 0.640660 0.499990 0.499990 1.076166
F1    F     F_    0.006029 0.066488 0.601372 -0.650095
F2    F     F_    0.189409 0.263059 0.246822 -0.612418
F3    F     F_    0.282656 0.306531 0.383146 -0.575625
F4    F     F_    0.583573 0.411530 0.985019 -0.585665
F5    F     F_    0.228581 0.550078 0.753727 -0.615406
F6    F     F_    0.434443 0.714580 0.019669 -0.632531
H1    H     H_    0.693877 0.484317 0.735673 0.205401
H2    H     H_    0.714001 0.760429 0.377638 0.152468
H3    H     H_    0.891359 0.802500 0.388695 0.114459
H4    H     H_    0.157792 0.376046 0.658371 0.234178
H5    H     H_    0.067517 0.242646 0.681144 0.200793
H6    H     H_    0.076121 0.287845 0.581945 0.129811
H7    H     H_    0.918165 0.203095 0.476075 0.135903
H8    H     H_    0.812201 0.114151 0.409392 0.098914
H9    H     H_    0.915242 0.041268 0.468385 0.177225
H10   H     H_    0.846811 0.768580 0.578076 0.166118
H11   H     H_    0.849072 0.778947 0.682089 0.117723
H12   H     H_    0.248367 0.794832 0.432735 0.156258
H13   H     H_    0.692824 0.736886 0.639030 0.158834
H14   H     H_    0.770049 0.158577 0.291478 0.074832
H15   H     H_    0.693625 0.295336 0.262624 0.177026
H16   H     H_    0.597668 0.204397 0.327130 0.163951
H17   H     H_    0.251884 0.748432 0.628960 0.156223
H18   H     H_    0.108094 0.759878 0.701207 0.143152
H19   H     H_    0.079705 0.776056 0.603106 0.075291
H20   H     H_    0.821156 0.700230 0.249559 0.079478
H21   H     H_    0.948907 0.591097 0.198511 0.170653
H22   H     H_    0.933689 0.618104 0.301691 0.107208
H23   H     H_    0.032699 0.878563 0.496277 0.144250
H24   H     H_    0.162528 0.744320 0.846895 0.133019
H25   H     H_    0.285058 0.801584 0.916627 0.163574
H26   H     H_    0.111181 0.762923 0.949379 0.133445
H27   H     H_    0.153325 0.451194 0.176049 0.147720
H28   H     H_    0.268028 0.376414 0.094968 0.175287
H29   H     H_    0.124173 0.467485 0.077798 0.180658
H30   H     H_    0.786608 0.712921 0.838783 0.096157
H31   H     H_    0.879197 0.574685 0.792417 0.193008
H32   H     H_    0.914094 0.642618 0.887281 0.155626
H33   H     H_    0.932300 0.292095 0.247491 0.170114
H34   H     H_    0.307859 0.549129 0.267456 0.150194
H35   H     H_    0.759133 0.660491 0.022459 0.161011
H36   H     H_    0.932541 0.633364 0.043150 0.165215
H37   H     H_    0.816091 0.716747 0.116415 0.083115
H38   H     H_    0.775993 0.912402 0.361082 0.080929
N1    N     N_R   0.852190 0.498790 0.499250 -0.237158
N2    N     N_R   0.148060 0.498710 0.499220 -0.270701
O1    O     O_R   0.381190 0.680360 0.500010 -0.543967
O2    O     O_3   0.753186 0.876891 0.478022 -0.570023
O3    O     O_3   0.257863 0.215098 0.616221 -0.571506
O4    O     O_3   0.743622 0.129331 0.528630 -0.483873
O5    O     O_3   0.840477 0.600655 0.629054 -0.567010
O6    O     O_3   0.748734 0.311881 0.377549 -0.511069
O7    O     O_3   0.122441 0.596950 0.628920 -0.491094
O8    O     O_3   0.780048 0.510829 0.255028 -0.554499
O9    O     O_3   0.235768 0.613515 0.911056 -0.504275
O10   O     O_3   0.286715 0.568461 0.119969 -0.531278
O11   O     O_3   0.730964 0.546926 0.883523 -0.514073
O12   O     O_R   0.618760 0.680340 0.500000 -0.488313
O13   O     O_R   0.367440 0.500030 0.613600 -0.421181
O14   O     O_R   0.605010 0.500010 0.613590 -0.486053
O15   O     O_R   0.381240 0.319660 0.500000 -0.409347
O16   O     O_R   0.618810 0.319640 0.499990 -0.415228
O17   O     O_R   0.394990 0.499990 0.386410 -0.472975
O18   O     O_R   0.632560 0.499970 0.386400 -0.420883
O19   O     O_3   0.785674 0.524886 0.094965 -0.513008

loop_
_geom_bond_atom_site_label_1
_geom_bond_atom_site_label_2
_ccdc_geom_bond_type
Cu2   O18   S    
C4    O14   A    
C23   C45   A    
C7    O3    S    
C37   H14   S    
C17   H33   S    
Cu1   O15   S    
C19   C20   A    
C32   H3    S    
C16   O15   A    
C7    C8    A    
Cu2   O12   S    
C4    O13   A    
C26   C27   A    
C41   O10   S    
C39   H22   S    
C22   C24   A    
C28   C29   A    
Cu1   N2    S    
C18   C19   A    
C5    C6    A    
C36   H11   S    
C21   N1    A    
C41   H28   S    
C32   O2    S    
C33   O3    S    
C25   O17   A    
C19   F3    S    
C28   O11   S    
C8    C9    A    
C46   F6    S    
C40   H25   S    
C35   H9    S    
C42   H31   S    
C39   H20   S    
Cu2   N1    S    
C2    C25   S    
C9    C10   A    
C31   O19   S    
C47   F4    S    
C2    C34   A    
C32   H38   S    
C44   O19   S    
C33   H4    S    
C13   C14   A    
C22   N1    A    
C32   H2    S    
C35   O4    S    
C18   F2    S    
C45   C47   S    
C38   H17   S    
C22   O5    S    
C24   N2    A    
C36   H10   S    
C41   H29   S    
C15   O6    S    
C12   C26   A    
C13   O4    S    
C43   C44   A    
C29   C30   A    
C3    C9    A    
C25   O18   A    
C40   O9    S    
C2    C43   A    
C31   H35   S    
C17   C18   A    
C40   H24   S    
C36   O5    S    
C42   H30   S    
C39   H21   S    
C6    F1    S    
C42   O11   S    
C1    O12   A    
Cu1   Cu2   S    
Cu1   O17   S    
C20   N2    A    
C33   H5    S    
C31   H36   S    
C37   H16   S    
C14   C16   S    
C44   C45   A    
Cu2   O14   S    
C38   H19   S    
C15   C17   A    
C46   C47   D    
C23   C34   A    
C8    C14   A    
Cu1   O1    S    
C12   C30   A    
C27   H1    S    
C40   H26   S    
C3    H12   S    
C1    C10   S    
C3    C5    A    
C4    C26   S    
C36   H13   S    
C39   O8    S    
C6    C7    A    
Cu2   O16   S    
C29   C46   S    
C11   O2    S    
C34   H34   S    
C38   O7    S    
C37   O6    S    
C11   C13   A    
Cu1   O13   S    
C1    O1    A    
C41   H27   S    
C35   H7    S    
C24   O7    S    
C43   O8    S    
C10   C11   A    
C15   C21   A    
C20   C21   A    
C33   H6    S    
C31   H37   S    
C30   O9    S    
C27   C28   A    
C35   H8    S    
C42   H32   S    
C5    H23   S    
C37   H15   S    
C12   F5    S    
C16   O16   A    
C38   H18   S    
C23   O10   S    
