data_mof_unit_30653.cif
_audit_creation_date              2012-10-26T20:58:54-0400
_audit_creation_method            fapswitch 2.2
_symmetry_space_group_name_H-M    P1
_symmetry_Int_Tables_number       1
_space_group_crystal_system       triclinic
_cell_length_a                    27.815506
_cell_length_b                    10.635209
_cell_length_c                    9.41838
_cell_angle_alpha                 89.286966
_cell_angle_beta                  90.398587
_cell_angle_gamma                 89.969523
_cell_volume                      2785.89651047

loop_
_atom_site_label
_atom_site_type_symbol
_atom_type_description
_atom_site_fract_x
_atom_site_fract_y
_atom_site_fract_z
_atom_type_partial_charge
C1    C     C_R   0.500800 0.259676 0.501026 0.587198
C2    C     C_R   0.872306 0.386154 0.492569 0.024463
C3    C     C_R   0.354571 0.500233 0.498226 -0.044643
C4    C     C_R   0.645436 0.499272 0.502095 -0.046262
C5    C     C_R   0.974293 0.383921 0.488626 0.035954
C6    C     C_R   0.025634 0.614236 0.515268 0.035978
C7    C     C_R   0.974505 0.615098 0.510381 -0.036104
C8    C     C_R   0.025405 0.384085 0.483463 -0.035949
C9    C     C_R   0.949113 0.499756 0.499761 0.026095
C10   C     C_R   0.050806 0.498920 0.499251 0.026241
C11   C     C_R   0.947211 0.271330 0.483944 -0.124047
C12   C     C_R   0.499209 0.740328 0.498975 0.587731
C13   C     C_R   0.052740 0.725106 0.536838 -0.123593
C14   C     C_R   0.897348 0.272775 0.485287 -0.082064
C15   C     C_R   0.102607 0.723515 0.537447 -0.080597
C16   C     C_R   0.407525 0.500090 0.499529 0.568284
C17   C     C_R   0.592473 0.499813 0.500505 0.567360
C18   C     C_R   0.052228 0.272909 0.462069 -0.101913
C19   C     C_R   0.947656 0.728011 0.514720 -0.101102
C20   C     C_3   0.515439 0.035808 0.628152 -0.036532
C21   C     C_3   0.484581 0.964209 0.371852 -0.036491
C22   C     C_3   0.543929 0.955223 0.523913 0.372907
C23   C     C_R   0.101988 0.498531 0.499055 -0.085146
C24   C     C_3   0.456090 0.044789 0.476093 0.372506
C25   C     C_3   0.498759 0.876815 0.496613 -0.015372
C26   C     C_3   0.501260 0.123195 0.503390 -0.015220
C27   C     C_3   0.469696 0.956581 0.601612 -0.131273
C28   C     C_3   0.530324 0.043433 0.398396 -0.131237
C29   C     C_3   0.521228 0.599628 0.049859 -0.042734
C30   C     C_3   0.478777 0.400367 0.950141 -0.043516
C31   C     C_3   0.477981 0.596318 0.948713 0.460627
C32   C     C_3   0.522023 0.403682 0.051288 0.458935
C33   C     C_3   0.543616 0.501804 0.950341 -0.028597
C34   C     C_R   0.897932 0.500166 0.500347 -0.084053
C35   C     C_3   0.456388 0.498191 0.049655 -0.027998
C36   C     C_R   0.178269 0.388269 0.480836 0.444127
C37   C     C_R   0.821644 0.611423 0.510218 0.454443
C38   C     C_R   0.178031 0.609804 0.516640 0.426600
C39   C     C_R   0.821902 0.387936 0.493338 0.413461
C40   C     C_R   0.278797 0.510611 0.366264 -0.002542
C41   C     C_R   0.721297 0.481420 0.634215 0.005128
C42   C     C_R   0.329190 0.510566 0.369146 -0.132681
C43   C     C_R   0.670682 0.482320 0.630701 -0.121868
C44   C     C_R   0.329016 0.490309 0.625774 -0.086473
C45   C     C_R   0.127645 0.385421 0.480404 0.026209
C46   C     C_R   0.671015 0.515826 0.375557 -0.086399
C47   C     C_R   0.278960 0.490325 0.624410 0.438761
C48   C     C_R   0.721015 0.516068 0.377333 0.437886
C49   C     C_R   0.253637 0.500383 0.495653 0.258575
C50   C     C_R   0.746244 0.498741 0.505271 0.249579
C51   C     C_3   0.533555 0.076904 0.774062 -0.233933
C52   C     C_3   0.545757 0.964184 0.869559 -0.404262
C53   C     C_3   0.466471 0.923158 0.225922 -0.233109
C54   C     C_3   0.454271 0.035911 0.130467 -0.405237
C55   C     C_3   0.749931 0.463024 0.771303 -0.262414
C56   C     C_R   0.872262 0.614372 0.508632 0.026993
C57   C     C_3   0.720379 0.443658 0.906183 -0.396068
C58   C     C_3   0.253034 0.523788 0.224818 -0.263334
C59   C     C_3   0.258209 0.404838 0.137152 -0.378694
C60   C     C_R   0.102151 0.273245 0.461031 0.403897
C61   C     C_R   0.897731 0.727877 0.514461 0.406017
C62   C     C_R   0.127629 0.611463 0.517689 0.023844
Cu1   Cu    Cu3+1 0.500010 0.499990 0.643150 1.029330
Cu2   Cu    Cu3+1 0.499990 0.500010 0.356850 1.029293
F1    F     F_    0.454092 0.698563 0.889878 -0.643329
F2    F     F_    0.545919 0.301447 0.110120 -0.645356
F3    F     F_    0.254842 0.480330 0.748764 -0.619462
F4    F     F_    0.745247 0.533634 0.254195 -0.619754
F5    F     F_    0.125119 0.162327 0.440084 -0.570958
F6    F     F_    0.874733 0.840437 0.519413 -0.569316
F7    F     F_    0.589287 0.905624 0.547674 -0.610209
F8    F     F_    0.410733 0.094392 0.452329 -0.612854
H1    H     H_    0.347697 0.482191 0.726771 0.161790
H2    H     H_    0.348502 0.519587 0.270059 0.141454
H3    H     H_    0.878446 0.183807 0.481161 0.205552
H4    H     H_    0.121529 0.811237 0.553868 0.200286
H5    H     H_    0.963264 0.179342 0.481426 0.122447
H6    H     H_    0.036703 0.815325 0.556064 0.121435
H7    H     H_    0.035798 0.183047 0.443283 0.140204
H8    H     H_    0.964065 0.819568 0.516109 0.138766
H9    H     H_    0.513689 0.903434 0.884102 0.187636
H10   H     H_    0.575175 0.907862 0.823012 0.222272
H11   H     H_    0.557755 0.997629 0.975233 0.154674
H12   H     H_    0.652385 0.529477 0.275158 0.158568
H13   H     H_    0.566037 0.136459 0.760600 0.186520
H14   H     H_    0.505219 0.133400 0.825629 0.154883
H15   H     H_    0.424849 0.092216 0.177025 0.220270
H16   H     H_    0.486338 0.096668 0.115958 0.187833
H17   H     H_    0.442277 0.002501 0.024774 0.154725
H18   H     H_    0.494809 0.866680 0.174341 0.154938
H19   H     H_    0.433989 0.863600 0.239354 0.187859
H20   H     H_    0.697863 0.527690 0.926814 0.175321
H21   H     H_    0.697389 0.358711 0.897285 0.163814
H22   H     H_    0.745113 0.429358 0.997947 0.226543
H23   H     H_    0.444673 0.919580 0.683389 0.181026
H24   H     H_    0.773603 0.379625 0.760108 0.184221
H25   H     H_    0.773345 0.546446 0.786817 0.182940
H26   H     H_    0.296550 0.387200 0.111902 0.162564
H27   H     H_    0.243540 0.322510 0.196125 0.210049
H28   H     H_    0.237879 0.416101 0.035940 0.216036
H29   H     H_    0.214158 0.543398 0.238298 0.168731
H30   H     H_    0.268239 0.604993 0.164828 0.178332
H31   H     H_    0.555347 0.080438 0.316621 0.180829
H32   H     H_    0.539174 0.682866 0.096275 0.106780
H33   H     H_    0.460831 0.317128 0.903729 0.106104
H34   H     H_    0.580290 0.502091 0.904738 0.112537
H35   H     H_    0.419721 0.497864 0.095275 0.114803
H36   H     H_    0.650497 0.469364 0.727302 0.140640
N1    N     N_R   0.202105 0.499451 0.497703 -0.395294
N2    N     N_R   0.797811 0.499332 0.503254 -0.397838
N3    N     N_3   0.500040 0.499970 0.858290 -0.260833
N4    N     N_3   0.499960 0.500030 0.141710 -0.261083
O1    O     O_R   0.500020 0.316850 0.620870 -0.527029
O2    O     O_2   0.796263 0.719148 0.519128 -0.358104
O3    O     O_2   0.797052 0.279284 0.484637 -0.450656
O4    O     O_2   0.202891 0.717587 0.533770 -0.441743
O5    O     O_R   0.499980 0.683150 0.379130 -0.526678
O6    O     O_R   0.500000 0.316860 0.379090 -0.437038
O7    O     O_R   0.500000 0.683140 0.620910 -0.436665
O8    O     O_R   0.430270 0.500020 0.620880 -0.478572
O9    O     O_R   0.569730 0.499980 0.379120 -0.478154
O10   O     O_R   0.430250 0.500030 0.379090 -0.515390
O11   O     O_R   0.569750 0.499970 0.620910 -0.515924
O12   O     O_2   0.203648 0.281309 0.464779 -0.378107

loop_
_geom_bond_atom_site_label_1
_geom_bond_atom_site_label_2
_ccdc_geom_bond_type
C61   F6    S    
C30   C32   S    
C45   C60   A    
C34   C56   A    
C23   C45   A    
C57   H20   S    
C59   H27   S    
C22   F7    S    
C29   N4    S    
C27   H23   S    
C24   C27   S    
C51   H13   S    
C47   C49   A    
C4    C46   A    
C53   C54   S    
C30   C35   S    
C49   N1    S    
C36   O12   S    
C24   C26   S    
C5    C11   A    
C20   C51   S    
C16   O8    A    
C54   H15   S    
C11   C14   A    
Cu2   N4    S    
Cu2   O9    S    
C29   C33   S    
C50   N2    S    
C3    C42   A    
Cu2   O6    S    
C31   F1    S    
C16   O10   A    
C41   C55   S    
C11   H5    S    
C37   C56   A    
C2    C39   A    
C17   O11   A    
C39   N2    A    
C18   H7    S    
C22   C25   S    
C53   H19   S    
C19   H8    S    
C33   N3    S    
C44   C47   A    
C43   H36   S    
C2    C34   A    
C48   C50   A    
C15   H4    S    
C57   H21   S    
C59   H28   S    
C41   C43   A    
C44   H1    S    
C1    O1    A    
C51   H14   S    
C47   F3    S    
C23   C62   A    
C46   C48   A    
C3    C44   A    
C42   H2    S    
C40   C58   S    
C51   C52   S    
C54   H17   S    
C37   O2    S    
C58   C59   S    
C8    C18   A    
Cu2   O5    S    
Cu1   Cu2   S    
C29   H32   S    
C52   H11   S    
C5    C9    A    
C21   C53   S    
C12   O7    A    
C38   O4    S    
C55   H25   S    
C36   C45   A    
C58   H29   S    
C48   F4    S    
C38   N1    A    
C52   H10   S    
C37   N2    A    
C58   H30   S    
C4    C17   S    
C17   O9    A    
C4    C43   A    
C21   C28   S    
C20   C22   S    
C39   O3    S    
C57   H22   S    
C13   C15   A    
C30   H33   S    
C9    C34   A    
C46   H12   S    
C41   C50   A    
C36   N1    A    
C24   F8    S    
C32   F2    S    
C18   C60   A    
C7    C9    A    
C21   C25   S    
C13   H6    S    
C32   N4    S    
C26   C28   S    
C33   H34   S    
C55   H24   S    
C6    C10   A    
C5    C8    A    
Cu1   O11   S    
C6    C7    A    
C20   C27   S    
C10   C23   A    
C25   C27   S    
C30   N3    S    
C7    C19   A    
C12   C25   S    
C14   H3    S    
C55   C57   S    
C29   C31   S    
C32   C33   S    
C6    C13   A    
C54   H16   S    
Cu1   O8    S    
C28   H31   S    
C1    C26   S    
C20   C26   S    
C60   F5    S    
C19   C61   A    
Cu2   O10   S    
C40   C42   A    
C15   C62   A    
C31   C35   S    
C1    O6    A    
Cu1   N3    S    
C52   H9    S    
C2    C14   A    
C35   H35   S    
C35   N4    S    
C12   O5    A    
Cu1   O1    S    
C8    C10   A    
Cu1   O7    S    
C21   C24   S    
C53   H18   S    
C59   H26   S    
C31   N3    S    
C56   C61   A    
C22   C28   S    
C3    C16   S    
C40   C49   A    
C38   C62   A    
