data_mof_unit_27125.cif
_audit_creation_date              2012-12-11T14:08:14-0500
_audit_creation_method            fapswitch 2.2
_symmetry_space_group_name_H-M    P1
_symmetry_Int_Tables_number       1
_space_group_crystal_system       triclinic
_cell_length_a                    11.105715
_cell_length_b                    11.074008
_cell_length_c                    18.704033
_cell_angle_alpha                 89.646907
_cell_angle_beta                  88.579083
_cell_angle_gamma                 59.841895
_cell_volume                      1988.28233542

loop_
_atom_site_label
_atom_site_type_symbol
_atom_type_description
_atom_site_fract_x
_atom_site_fract_y
_atom_site_fract_z
_atom_type_partial_charge
C1    C     C_R   0.225984 0.648742 0.605404 0.592506
C2    C     C_3   0.715528 0.519373 0.806858 -0.283396
C3    C     C_3   0.690212 0.671216 0.815462 -0.023877
C4    C     C_3   0.648111 0.623613 0.683970 -0.035587
C5    C     C_3   0.758050 0.669620 0.683181 -0.227875
C6    C     C_3   0.706300 0.488482 0.728257 -0.278949
C7    C     C_2   0.667157 0.170668 0.673755 -0.039365
C8    C     C_2   0.683495 0.178113 0.830884 -0.099563
C9    C     C_2   0.792164 0.144403 0.785729 -0.147438
C10   C     C_2   0.774495 0.167075 0.707750 -0.141014
C11   C     C_2   0.141504 0.673427 0.672113 -0.016225
C12   C     C_R   0.629004 0.591041 0.609835 0.555349
C13   C     C_2   0.163408 0.676398 0.831184 -0.130052
C14   C     C_2   0.147819 0.580848 0.794213 -0.119479
C15   C     C_2   0.153693 0.567938 0.715063 0.233882
C16   C     C_2   0.657531 0.644062 0.318098 -0.059078
C17   C     C_2   0.638743 0.670170 0.162539 -0.080960
C18   C     C_2   0.695388 0.546268 0.195383 -0.007410
C19   C     C_2   0.674518 0.542206 0.272739 -0.110130
C20   C     C_2   0.676056 0.145468 0.329102 -0.015847
C21   C     C_2   0.627028 0.181729 0.172776 0.007872
C22   C     C_2   0.551786 0.148655 0.219264 0.216347
C23   C     C_R   0.625779 0.231211 0.602629 0.553014
C24   C     C_2   0.596020 0.104934 0.295182 -0.013302
C25   C     C_2   0.122468 0.684364 0.348866 -0.084512
C26   C     C_2   0.159723 0.660224 0.175876 0.287702
C27   C     C_2   0.072383 0.733603 0.229331 -0.096958
C28   C     C_2   0.121015 0.760973 0.293862 0.256061
C29   C     C_R   0.701334 0.106617 0.899403 0.571796
C30   C     C_R   0.723863 0.687934 0.889066 0.628302
C31   C     C_R   0.115986 0.707540 0.906114 0.553719
C32   C     C_R   0.671644 0.108980 0.103875 0.570732
C33   C     C_R   0.693481 0.689663 0.095280 0.530760
C34   C     C_R   0.216468 0.652229 0.405836 0.550374
C35   C     C_R   0.100016 0.704833 0.108582 0.574770
C36   C     C_R   0.643482 0.621697 0.393428 0.552175
C37   C     C_R   0.620181 0.227403 0.395319 0.574789
C38   C     C_3   0.532832 0.782434 0.797607 0.013891
C39   C     C_3   0.511140 0.746688 0.719324 -0.102489
C40   C     C_3   0.796059 0.680769 0.760691 -0.078298
Cr1   Cr    Cr6+3 0.393010 0.398050 0.501480 1.166152
Cr2   Cr    Cr6+3 0.398820 0.707980 0.501630 1.124148
Cr3   Cr    Cr6+3 0.708140 0.393940 0.496850 1.098373
Cr4   Cr    Cr6+3 0.937950 0.938450 0.008940 1.146746
Cr5   Cr    Cr6+3 0.626180 0.937030 0.994750 1.174913
Cr6   Cr    Cr6+3 0.937790 0.625760 0.001410 1.115819
H1    H     H_    0.812770 0.411806 0.707714 0.175405
H2    H     H_    0.898468 0.587220 0.770251 0.162105
H3    H     H_    0.854988 0.594184 0.653605 0.200707
H4    H     H_    0.897822 0.091006 0.805097 0.167168
H5    H     H_    0.850570 0.183328 0.678293 0.157625
H6    H     H_    0.577894 0.237176 0.811667 0.123433
H7    H     H_    0.595691 0.147948 0.702416 0.216894
H8    H     H_    0.128503 0.507162 0.823570 0.199915
H9    H     H_    0.180460 0.752153 0.803785 0.197154
H10   H     H_    0.096287 0.777307 0.694737 0.145590
H11   H     H_    0.677608 0.449042 0.293569 0.175066
H12   H     H_    0.563150 0.764567 0.190745 0.195537
H13   H     H_    0.654635 0.738613 0.300299 0.118802
H14   H     H_    0.690701 0.222585 0.190557 0.133880
H15   H     H_    0.960160 0.786346 0.222517 0.104133
H16   H     H_    0.076602 0.617860 0.343897 0.097198
H17   H     H_    0.484815 0.837615 0.683986 0.174927
H18   H     H_    0.715148 0.769888 0.653717 0.193318
H19   H     H_    0.821032 0.440597 0.825130 0.181051
H20   H     H_    0.642519 0.500394 0.839529 0.173317
H21   H     H_    0.643975 0.437124 0.722175 0.142462
O1    O     O_R   0.507110 0.256280 0.580300 -0.432303
O2    O     O_R   0.524640 0.695370 0.425100 -0.465858
O3    O     O_R   0.735890 0.504390 0.415980 -0.481108
O4    O     O_R   0.690560 0.277820 0.422350 -0.462241
O5    O     O_3   0.499990 0.499990 0.499980 -0.327717
O6    O     O_R   0.089190 0.825870 0.932320 -0.480981
O7    O     O_R   0.819070 0.053960 0.931440 -0.496789
O8    O     O_R   0.607070 0.076440 0.916460 -0.471220
O9    O     O_R   0.647110 0.806550 0.917690 -0.441212
O10   O     O_R   0.837080 0.593860 0.915300 -0.506160
O11   O     O_R   0.064770 0.636080 0.932550 -0.483276
O12   O     O_R   0.280830 0.527190 0.577940 -0.436344
O13   O     O_R   0.068250 0.829200 0.092940 -0.453696
O14   O     O_R   0.799650 0.057040 0.080330 -0.460340
O15   O     O_R   0.586130 0.079760 0.077080 -0.449685
O16   O     O_R   0.627700 0.809630 0.066580 -0.465810
O17   O     O_R   0.816140 0.597180 0.075920 -0.485905
O18   O     O_R   0.045360 0.639170 0.081440 -0.512726
O19   O     O_3   0.833980 0.833750 0.001700 -0.296864
O20   O     O_R   0.261360 0.738990 0.584270 -0.476643
O21   O     O_R   0.532590 0.694780 0.574370 -0.505400
O22   O     O_R   0.744470 0.503750 0.577000 -0.503905
O23   O     O_R   0.698520 0.277230 0.571620 -0.523741
O24   O     O_R   0.498530 0.256920 0.419280 -0.460870
O25   O     O_R   0.272880 0.527780 0.428680 -0.495332
O26   O     O_R   0.252780 0.739630 0.423250 -0.437170
C41   C     C_2   0.501372 0.935442 0.797965 0.614074
O27   O     O_2   0.545027 0.978357 0.749542 -0.534110
O28   O     O_R   0.413579 0.030450 0.850732 -0.603787
H22   H     H_    0.391756 0.129574 0.841055 0.354783
S1    S     S_3+6 0.173740 0.407846 0.682447 0.000065
O29   O     O_2   0.119307 0.423385 0.608140 -0.280971
O30   O     O_2   0.325041 0.298791 0.682982 -0.248981
O31   O     O_3   0.087939 0.352996 0.736597 -0.589333
H23   H     H_    0.104318 0.264462 0.714886 0.383951
C42   C     C_2   0.429075 0.778429 0.853934 0.574157
O32   O     O_2   0.304915 0.865114 0.851085 -0.455625
O33   O     O_R   0.473965 0.683346 0.910453 -0.727518
H24   H     H_    0.394785 0.695422 0.943439 0.357730
C43   C     C_2   0.778390 0.411639 0.155746 0.631524
O34   O     O_2   0.886957 0.320143 0.180273 -0.473236
O35   O     O_R   0.735747 0.388018 0.090088 -0.633924
H25   H     H_    0.641784 0.467291 0.075438 0.338247
S2    S     S_3+6 0.386023 0.175797 0.192811 0.110501
O36   O     O_2   0.333037 0.270205 0.129191 -0.208911
O37   O     O_2   0.399509 0.037823 0.173839 -0.252709
O38   O     O_3   0.269570 0.249950 0.260887 -0.460447
H26   H     H_    0.179764 0.267995 0.241620 0.366852
C44   C     C_2   0.546419 0.022365 0.338245 0.604531
O39   O     O_2   0.459176 0.997020 0.315824 -0.406228
O40   O     O_R   0.605413 0.968419 0.404561 -0.704797
H27   H     H_    0.562483 0.917178 0.429611 0.350248
C45   C     C_2   0.811485 0.122190 0.298738 0.543619
O41   O     O_2   0.874395 0.031257 0.253769 -0.517471
O42   O     O_R   0.865806 0.205593 0.320210 -0.632177
H28   H     H_    0.952715 0.186629 0.292305 0.393681
C46   C     C_2   0.386613 0.731021 0.715164 0.564635
O43   O     O_2   0.274747 0.835812 0.704359 -0.480894
O44   O     O_R   0.392704 0.604953 0.730744 -0.738257
H29   H     H_    0.446366 0.559547 0.775209 0.302199
S3    S     S_3+6 0.189754 0.876430 0.291358 0.119612
O45   O     O_2   0.128012 0.978712 0.352486 -0.246985
O46   O     O_2   0.344968 0.796287 0.298487 -0.233753
O47   O     O_3   0.151290 0.962746 0.213339 -0.421849
H30   H     H_    0.169982 0.040200 0.220635 0.390477
S4    S     S_3+6 0.342346 0.567581 0.178432 0.032822
O48   O     O_2   0.401065 0.469878 0.115445 -0.264964
O49   O     O_2   0.389705 0.671894 0.171287 -0.275665
O50   O     O_3   0.397999 0.476693 0.254721 -0.534827
H31   H     H_    0.423728 0.531844 0.285635 0.348073
C47   C     C_2   0.823822 0.799861 0.769441 0.551991
O51   O     O_2   0.829643 0.864802 0.717611 -0.535208
O52   O     O_R   0.855719 0.827575 0.836133 -0.678624
H32   H     H_    0.900015 0.887427 0.831823 0.326706

loop_
_geom_bond_atom_site_label_1
_geom_bond_atom_site_label_2
_ccdc_geom_bond_type
C1    O20   A    
C7    C10   D    
O31   H23   S    
Cr2   O26   S    
Cr5   O15   S    
C1    C11   S    
C34   O26   A    
C2    H19   S    
C13   H9    S    
S3    O45   D    
O38   H26   S    
Cr5   O19   S    
Cr5   O16   S    
C19   H11   S    
C25   C28   D    
C32   O14   A    
C26   C27   D    
Cr3   O22   S    
Cr5   O9    S    
C8    C29   S    
C16   C19   D    
C38   C39   S    
C31   O6    A    
S1    O29   D    
C35   O13   A    
C44   O39   D    
C18   C19   S    
O40   H27   S    
C27   H15   S    
C18   C43   S    
C30   O10   A    
C11   C15   D    
C42   O33   S    
C20   C24   D    
C3    C38   S    
C36   O3    A    
C8    C9    D    
C40   C47   S    
S4    O50   S    
C43   O34   D    
C4    C12   S    
C9    C10   S    
C8    H6    S    
C25   C34   S    
Cr6   O18   S    
C21   C22   D    
C43   O35   S    
C5    H3    S    
C2    C6    S    
C17   C33   S    
Cr4   O19   S    
C10   H5    S    
C45   O42   S    
Cr1   O1    S    
C21   C32   S    
Cr3   O23   S    
C6    H1    S    
C37   O24   A    
C12   O22   A    
Cr4   O13   S    
O52   H32   S    
C21   H14   S    
C4    C6    S    
Cr4   O14   S    
Cr6   O11   S    
C12   O21   A    
O50   H31   S    
C29   O7    A    
Cr2   O2    S    
C39   C46   S    
C5    H18   S    
C16   H13   S    
C23   O1    A    
C3    C30   S    
C41   O28   S    
C38   C42   S    
C30   O9    A    
C4    C39   S    
O28   H22   S    
C38   C41   S    
Cr2   O5    S    
C17   C18   D    
C23   O23   A    
S2    O37   D    
Cr4   O7    S    
C33   O16   A    
C47   O52   S    
Cr1   O5    S    
Cr6   O17   S    
C6    H21   S    
Cr1   O24   S    
C3    C40   S    
C24   C44   S    
Cr3   O3    S    
S1    O30   D    
C37   O4    A    
S4    O48   D    
C1    O12   A    
C22   C24   S    
Cr2   O21   S    
C7    H7    S    
C15   S1    S    
O47   H30   S    
S3    O47   S    
C20   C45   S    
C39   H17   S    
C45   O41   D    
C31   O11   A    
C46   O44   S    
Cr4   O6    S    
C40   H2    S    
Cr3   O5    S    
Cr3   O4    S    
S2    O36   D    
C14   H8    S    
C13   C31   S    
C9    H4    S    
C4    C5    S    
C2    H20   S    
S3    O46   D    
Cr1   O12   S    
Cr6   O10   S    
C29   O8    A    
S1    O31   S    
C32   O15   A    
O33   H24   S    
C17   H12   S    
Cr5   O8    S    
C36   O2    A    
C26   S4    S    
O35   H25   S    
C16   C36   S    
C20   C37   S    
C35   O18   A    
O44   H29   S    
C7    C23   S    
C44   O40   S    
C2    C3    S    
S2    O38   S    
C25   H16   S    
C41   O27   D    
C33   O17   A    
C34   O25   A    
C47   O51   D    
C26   C35   S    
Cr1   O25   S    
C22   S2    S    
C5    C40   S    
C42   O32   D    
S4    O49   D    
C14   C15   S    
Cr2   O20   S    
Cr6   O19   S    
O42   H28   S    
C13   C14   D    
C11   H10   S    
C28   S3    S    
C46   O43   D    
C27   C28   S    
