data_mof_unit_11276.cif
_audit_creation_date              2012-12-11T16:12:47-0500
_audit_creation_method            fapswitch 2.2
_symmetry_space_group_name_H-M    P1
_symmetry_Int_Tables_number       1
_space_group_crystal_system       triclinic
_cell_length_a                    23.378081
_cell_length_b                    13.645633
_cell_length_c                    28.440941
_cell_angle_alpha                 90.275076
_cell_angle_beta                  90.030691
_cell_angle_gamma                 89.547428
_cell_volume                      9072.51928027

loop_
_atom_site_label
_atom_site_type_symbol
_atom_type_description
_atom_site_fract_x
_atom_site_fract_y
_atom_site_fract_z
_atom_type_partial_charge
C1    C     C_R   0.284482 0.005325 0.816061 0.533091
C2    C     C_R   0.703942 0.975827 0.177830 0.532860
C3    C     C_R   0.784548 0.505067 0.816121 0.537187
C4    C     C_R   0.215512 0.505154 0.184062 0.541538
C5    C     C_3   0.487814 0.846966 0.956134 0.040466
C6    C     C_3   0.500345 0.846203 0.048269 0.037680
C7    C     C_3   0.997118 0.335071 0.952822 0.030382
C8    C     C_3   0.011178 0.338088 0.044582 0.031748
C9    C     C_3   0.480284 0.744974 0.030427 -0.288372
C10   C     C_3   0.466012 0.750318 0.977603 -0.298756
C11   C     C_3   0.014076 0.231710 0.025212 -0.292401
C12   C     C_3   0.997999 0.229559 0.972410 -0.298760
C13   C     C_1   0.511668 0.839061 0.098728 -0.068252
C14   C     C_1   0.478958 0.842124 0.904938 -0.050402
C15   C     C_1   0.021413 0.335967 0.095342 -0.058600
C16   C     C_1   0.985474 0.332728 0.902347 -0.055823
C17   C     C_1   0.276580 0.676668 0.867483 -0.028141
C18   C     C_1   0.716603 0.699011 0.130822 -0.054311
C19   C     C_1   0.780668 0.191401 0.868622 -0.038382
C20   C     C_1   0.235592 0.134835 0.138997 -0.023266
C21   C     C_R   0.302191 0.571438 0.978386 0.236489
C22   C     C_R   0.680070 0.632686 0.011742 0.255384
C23   C     C_R   0.810851 0.104262 0.984954 0.265250
C24   C     C_R   0.207128 0.047226 0.024367 0.244269
C25   C     C_R   0.297795 0.557997 0.026770 -0.153792
C26   C     C_R   0.689943 0.608875 0.964671 -0.144081
C27   C     C_R   0.798983 0.073517 0.030530 -0.143439
C28   C     C_R   0.208291 0.042149 0.975425 -0.162674
C29   C     C_R   0.200528 0.622441 0.025567 0.272355
C30   C     C_R   0.792502 0.627910 0.975020 0.259181
C31   C     C_R   0.697850 0.109181 0.020251 0.265653
C32   C     C_R   0.293160 0.144665 0.973408 0.273638
C33   C     C_R   0.207172 0.648159 0.977938 -0.013728
C34   C     C_R   0.783460 0.661389 0.021472 -0.025061
C35   C     C_R   0.708734 0.145110 0.974762 -0.020697
C36   C     C_R   0.293162 0.148393 0.023110 -0.015841
C37   C     C_R   0.259386 0.624882 0.955145 0.008549
C38   C     C_R   0.727226 0.661498 0.040234 -0.002861
C39   C     C_R   0.765379 0.141507 0.956924 -0.007229
C40   C     C_R   0.249016 0.100954 0.048280 0.002511
C41   C     C_R   0.247949 0.585365 0.050502 -0.010328
C42   C     C_R   0.745307 0.603807 0.946720 -0.023319
C43   C     C_R   0.743245 0.073135 0.047597 -0.028338
C44   C     C_R   0.251024 0.088780 0.950003 -0.027669
C45   C     C_R   0.445112 0.824308 0.817197 0.543635
C46   C     C_R   0.553891 0.824135 0.183601 0.526626
C47   C     C_R   0.945806 0.323835 0.816557 0.543655
C48   C     C_R   0.055000 0.324094 0.182917 0.538295
C49   C     C_1   0.241951 0.560617 0.099036 -0.042161
C50   C     C_1   0.754179 0.571030 0.899278 -0.045766
C51   C     C_1   0.732469 0.036833 0.093864 -0.042411
C52   C     C_1   0.257314 0.064423 0.901070 -0.045430
C53   C     C_1   0.268759 0.651220 0.907155 -0.044820
C54   C     C_1   0.720148 0.683593 0.089323 -0.061783
C55   C     C_1   0.774911 0.170293 0.909188 -0.062838
C56   C     C_1   0.242781 0.114360 0.098274 -0.031551
C57   C     C_1   0.232617 0.538141 0.138947 -0.018270
C58   C     C_1   0.765683 0.542854 0.860334 -0.020792
C59   C     C_1   0.720796 0.008546 0.132507 -0.014942
C60   C     C_1   0.266911 0.040386 0.861149 -0.026528
C61   C     C_1   0.429147 0.827297 0.629853 -0.010577
C62   C     C_1   0.522183 0.834393 0.358202 -0.013293
C63   C     C_1   0.929154 0.327295 0.629854 -0.010667
C64   C     C_1   0.022193 0.334397 0.358206 -0.011768
C65   C     C_R   0.464783 0.742125 0.515659 0.292836
C66   C     C_R   0.478033 0.743227 0.467501 0.293355
C67   C     C_R   0.964831 0.242133 0.515667 0.292901
C68   C     C_R   0.978074 0.243233 0.467509 0.293259
C69   C     C_R   0.458254 0.918607 0.465463 -0.173193
C70   C     C_R   0.443675 0.916915 0.513054 -0.171665
C71   C     C_R   0.958242 0.418597 0.465462 -0.172945
C72   C     C_R   0.943662 0.416901 0.513053 -0.171729
C73   C     C_R   0.447680 0.829363 0.538344 -0.000600
C74   C     C_R   0.476526 0.832589 0.442885 -0.007673
C75   C     C_R   0.947696 0.329358 0.538348 -0.000662
C76   C     C_R   0.976540 0.332590 0.442889 -0.007701
C77   C     C_1   0.499377 0.836640 0.396071 -0.032644
C78   C     C_1   0.437205 0.829724 0.588115 -0.029145
C79   C     C_1   0.999390 0.336649 0.396076 -0.032117
C80   C     C_1   0.937218 0.329721 0.588118 -0.029332
C81   C     C_1   0.268279 0.638068 0.636167 -0.021654
C82   C     C_1   0.734856 0.631658 0.361840 -0.022636
C83   C     C_1   0.768288 0.138087 0.636157 -0.021090
C84   C     C_1   0.234866 0.131635 0.361836 -0.021666
C85   C     C_R   0.247196 0.683487 0.517390 -0.116116
C86   C     C_R   0.778910 0.653013 0.477700 -0.123535
C87   C     C_R   0.747167 0.183505 0.517385 -0.116191
C88   C     C_R   0.278947 0.152948 0.477689 -0.123547
C89   C     C_R   0.284625 0.711239 0.821003 0.553713
C90   C     C_R   0.713237 0.718216 0.179987 0.546745
C91   C     C_R   0.786088 0.216675 0.820474 0.564174
C92   C     C_R   0.225886 0.174037 0.184936 0.535322
C93   C     C_R   0.243774 0.672844 0.468805 -0.114959
C94   C     C_R   0.782108 0.643611 0.526256 -0.121225
C95   C     C_R   0.743740 0.172873 0.468799 -0.114671
C96   C     C_R   0.282145 0.143551 0.526245 -0.121302
C97   C     C_R   0.277486 0.504954 0.475518 -0.102095
C98   C     C_R   0.718145 0.504821 0.522635 -0.105034
C99   C     C_R   0.777525 0.005024 0.475495 -0.102247
C100  C     C_R   0.218174 0.004772 0.522627 -0.105035
C101  C     C_R   0.282415 0.515278 0.524391 0.020377
C102  C     C_R   0.714159 0.513726 0.473623 0.018155
C103  C     C_R   0.782457 0.015337 0.524369 0.020427
C104  C     C_R   0.214190 0.013670 0.473614 0.018126
C105  C     C_R   0.265226 0.604693 0.545293 0.052958
C106  C     C_R   0.745246 0.588638 0.451259 0.049834
C107  C     C_R   0.765236 0.104725 0.545281 0.052962
C108  C     C_R   0.245279 0.088579 0.451249 0.049603
C109  C     C_R   0.258052 0.583241 0.448050 0.022600
C110  C     C_R   0.751259 0.570529 0.548709 0.024125
C111  C     C_R   0.758056 0.083295 0.448036 0.022791
C112  C     C_R   0.251287 0.070483 0.548701 0.024102
C113  C     C_1   0.246406 0.566828 0.399451 -0.070844
C114  C     C_1   0.758565 0.556588 0.598001 -0.067519
C115  C     C_1   0.746410 0.066874 0.399437 -0.071016
C116  C     C_1   0.258580 0.056564 0.597996 -0.067713
C117  C     C_1   0.266062 0.618680 0.595125 -0.064525
C118  C     C_1   0.740352 0.606796 0.401929 -0.067972
C119  C     C_1   0.766075 0.118702 0.595114 -0.064384
C120  C     C_1   0.240373 0.106752 0.401921 -0.067836
C121  C     C_1   0.233772 0.545048 0.359989 -0.020649
C122  C     C_1   0.768287 0.538849 0.638412 -0.017174
C123  C     C_1   0.733779 0.045078 0.359977 -0.021924
C124  C     C_1   0.268292 0.038842 0.638410 -0.017781
C125  C     C_R   0.284533 0.006545 0.683894 0.537374
C126  C     C_R   0.715706 0.007697 0.315775 0.559869
C127  C     C_R   0.784535 0.506538 0.683892 0.538227
C128  C     C_R   0.215700 0.507681 0.315785 0.547535
C129  C     C_R   0.417930 0.821528 0.679155 0.564389
C130  C     C_R   0.553861 0.825512 0.315437 0.545848
C131  C     C_R   0.917932 0.321528 0.679155 0.564806
C132  C     C_R   0.053864 0.325513 0.315439 0.543796
C133  C     C_R   0.274603 0.674567 0.682645 0.548862
C134  C     C_R   0.725836 0.674207 0.316930 0.558237
C135  C     C_R   0.774607 0.174578 0.682639 0.550623
C136  C     C_R   0.225835 0.174210 0.316933 0.545847
C137  C     C_3   0.453048 0.932478 0.979187 -0.148010
C138  C     C_3   0.557374 0.871858 0.023089 -0.155735
C139  C     C_3   0.947834 0.392678 0.977777 -0.152835
C140  C     C_3   0.058076 0.399456 0.019414 -0.149673
C141  C     C_3   0.552102 0.857254 0.969134 0.171703
C142  C     C_3   0.452845 0.922543 0.034040 0.181327
C143  C     C_3   0.056354 0.380112 0.965467 0.177554
C144  C     C_3   0.950826 0.379188 0.031896 0.171841
C145  C     C_1   0.527429 0.831940 0.138725 -0.040718
C146  C     C_1   0.467200 0.833825 0.863900 -0.030425
C147  C     C_1   0.033383 0.331395 0.136297 -0.035068
C148  C     C_1   0.970727 0.330108 0.862010 -0.033127
Cr1   Cr    Cr6+3 0.250680 0.837130 0.748990 1.007904
Cr2   Cr    Cr6+3 0.749320 0.837130 0.251010 1.012168
Cr3   Cr    Cr6+3 0.750680 0.337130 0.748990 1.009072
Cr4   Cr    Cr6+3 0.249320 0.337130 0.251010 1.016208
Cr5   Cr    Cr6+3 0.378160 0.960100 0.750430 1.013713
Cr6   Cr    Cr6+3 0.621840 0.960100 0.249570 1.007574
Cr7   Cr    Cr6+3 0.878160 0.460100 0.750430 1.012730
Cr8   Cr    Cr6+3 0.121840 0.460100 0.249570 1.016700
Cr9   Cr    Cr6+3 0.376090 0.707720 0.749670 1.010452
Cr10  Cr    Cr6+3 0.623910 0.707720 0.250330 1.004999
Cr11  Cr    Cr6+3 0.876090 0.207720 0.749670 1.002751
Cr12  Cr    Cr6+3 0.123910 0.207720 0.250330 1.018614
H1    H     H_    0.457107 0.987506 0.446697 0.129667
H2    H     H_    0.430732 0.984357 0.530438 0.131727
H3    H     H_    0.957075 0.487491 0.446693 0.129964
H4    H     H_    0.930696 0.484335 0.530434 0.131703
H5    H     H_    0.234847 0.752803 0.533335 0.107841
H6    H     H_    0.802530 0.711030 0.460722 0.102513
H7    H     H_    0.734791 0.252802 0.533335 0.107827
H8    H     H_    0.302570 0.210962 0.460710 0.102530
H9    H     H_    0.228329 0.733132 0.447572 0.104599
H10   H     H_    0.809224 0.692246 0.546319 0.103239
H11   H     H_    0.728264 0.233147 0.447572 0.105002
H12   H     H_    0.309263 0.192182 0.546307 0.103130
H13   H     H_    0.287720 0.435379 0.458879 0.103211
H14   H     H_    0.695916 0.446313 0.540452 0.095594
H15   H     H_    0.787786 0.935467 0.458851 0.103021
H16   H     H_    0.195939 0.946271 0.540445 0.095608
H17   H     H_    0.472036 0.003643 0.968690 0.197220
H18   H     H_    0.568499 0.949111 0.031400 0.215941
H19   H     H_    0.951111 0.471274 0.968646 0.193576
H20   H     H_    0.050808 0.478670 0.026886 0.200692
H21   H     H_    0.573678 0.785887 0.960490 0.124452
H22   H     H_    0.410165 0.892302 0.042514 0.110937
H23   H     H_    0.089579 0.322866 0.958507 0.102848
H24   H     H_    0.919013 0.321800 0.040889 0.117567
H25   H     H_    0.593197 0.825387 0.036384 0.124358
H26   H     H_    0.408187 0.932702 0.965973 0.095104
H27   H     H_    0.101369 0.380198 0.033050 0.104519
H28   H     H_    0.905351 0.367355 0.965012 0.113948
H29   H     H_    0.418843 0.746453 0.973044 0.112888
H30   H     H_    0.514386 0.689489 0.035956 0.164237
H31   H     H_    0.955189 0.197667 0.968279 0.190226
H32   H     H_    0.058088 0.202578 0.029710 0.111039
H33   H     H_    0.486047 0.686880 0.959495 0.125087
H34   H     H_    0.441931 0.720463 0.050233 0.107090
H35   H     H_    0.028778 0.182112 0.952734 0.106129
H36   H     H_    0.984111 0.184329 0.044882 0.134356
H37   H     H_    0.330994 0.518268 0.045038 0.116588
H38   H     H_    0.653977 0.590217 0.942373 0.127906
H39   H     H_    0.833787 0.048237 0.052629 0.132753
H40   H     H_    0.177281 0.997703 0.957318 0.120377
O1    O     O_R   0.237900 0.735050 0.799950 -0.511637
O2    O     O_R   0.762100 0.735050 0.200050 -0.514478
O3    O     O_R   0.737900 0.235050 0.799950 -0.506248
O4    O     O_R   0.262100 0.235050 0.200050 -0.517814
O5    O     O_R   0.425240 0.902610 0.703070 -0.490675
O6    O     O_R   0.574760 0.902610 0.296930 -0.492678
O7    O     O_R   0.925240 0.402610 0.703070 -0.491588
O8    O     O_R   0.074760 0.402610 0.296930 -0.494625
O9    O     O_R   0.433420 0.739640 0.698910 -0.506255
O10   O     O_R   0.566580 0.739640 0.301090 -0.506508
O11   O     O_R   0.933420 0.239640 0.698910 -0.506566
O12   O     O_R   0.066580 0.239640 0.301090 -0.508599
O13   O     O_R   0.323550 0.666510 0.701520 -0.507875
O14   O     O_R   0.676450 0.666510 0.298480 -0.487916
O15   O     O_R   0.823550 0.166510 0.701520 -0.507366
O16   O     O_R   0.176450 0.166510 0.298480 -0.495119
O17   O     O_3   0.334980 0.834990 0.749700 -0.286316
O18   O     O_3   0.665020 0.834990 0.250300 -0.277983
O19   O     O_3   0.834980 0.334990 0.749700 -0.289724
O20   O     O_3   0.165020 0.334990 0.250300 -0.243482
O21   O     O_R   0.256160 0.936210 0.796950 -0.507974
O22   O     O_R   0.743840 0.936210 0.203050 -0.509158
O23   O     O_R   0.756160 0.436210 0.796950 -0.512388
O24   O     O_R   0.243840 0.436210 0.203050 -0.497091
O25   O     O_R   0.333710 0.029860 0.801630 -0.515705
O26   O     O_R   0.666290 0.029860 0.198370 -0.507298
O27   O     O_R   0.833710 0.529860 0.801630 -0.508319
O28   O     O_R   0.166290 0.529860 0.198370 -0.519078
O29   O     O_R   0.425340 0.901920 0.798280 -0.486110
O30   O     O_R   0.574660 0.901920 0.201720 -0.514734
O31   O     O_R   0.925340 0.401920 0.798280 -0.489565
O32   O     O_R   0.074660 0.401920 0.201720 -0.499590
O33   O     O_R   0.433530 0.738890 0.801610 -0.516168
O34   O     O_R   0.566470 0.738890 0.198390 -0.521305
O35   O     O_R   0.933530 0.238890 0.801610 -0.520818
O36   O     O_R   0.066470 0.238890 0.198390 -0.513124
O37   O     O_R   0.323650 0.665810 0.796720 -0.491687
O38   O     O_R   0.676350 0.665810 0.203280 -0.501251
O39   O     O_R   0.823650 0.165810 0.796720 -0.501697
O40   O     O_R   0.176350 0.165810 0.203280 -0.492234
O41   O     O_R   0.237790 0.735800 0.697250 -0.503155
O42   O     O_R   0.762210 0.735800 0.302750 -0.505204
O43   O     O_R   0.737790 0.235800 0.697250 -0.502624
O44   O     O_R   0.262210 0.235800 0.302750 -0.510285
O45   O     O_R   0.256050 0.936910 0.701750 -0.497683
O46   O     O_R   0.743950 0.936910 0.298250 -0.491351
O47   O     O_R   0.756050 0.436910 0.701750 -0.497935
O48   O     O_R   0.243950 0.436910 0.298250 -0.497188
O49   O     O_R   0.333600 0.030610 0.698930 -0.515429
O50   O     O_R   0.666400 0.030610 0.301070 -0.501368
O51   O     O_R   0.833600 0.530610 0.698930 -0.514833
O52   O     O_R   0.166400 0.530610 0.301070 -0.507377
O53   O     O_3   0.460058 0.017426 0.053959 -0.605937
C149  C     C_3   0.443384 0.028775 0.101945 -0.011029
H41   H     H_    0.437201 0.108487 0.107716 0.142784
H42   H     H_    0.479119 0.009128 0.125659 0.149416
C150  C     C_3   0.387821 0.977685 0.117435 -0.297753
H43   H     H_    0.353150 0.991983 0.091617 0.168108
H44   H     H_    0.395050 0.897314 0.119912 0.149460
C151  C     C_3   0.368603 0.013774 0.165851 -0.469176
H45   H     H_    0.402031 0.997303 0.192505 0.150061
H46   H     H_    0.328557 0.976156 0.176029 0.153877
H47   H     H_    0.360289 0.093997 0.165406 0.154251
O54   O     O_3   0.577113 0.938581 0.945963 -0.568371
C152  C     C_3   0.617159 0.907940 0.911423 0.008679
H48   H     H_    0.623617 0.969947 0.886880 0.153816
H49   H     H_    0.600599 0.846069 0.889730 0.121567
C153  C     C_3   0.675137 0.881565 0.933683 -0.270687
H50   H     H_    0.694319 0.948114 0.949460 0.177269
H51   H     H_    0.669652 0.827104 0.962136 0.169463
C154  C     C_3   0.716143 0.838749 0.897174 -0.491527
H52   H     H_    0.697566 0.772240 0.880709 0.154240
H53   H     H_    0.756918 0.817668 0.914521 0.138191
H54   H     H_    0.725108 0.893614 0.869466 0.153021
O55   O     O_3   0.938673 0.470287 0.054342 -0.589649
C155  C     C_3   0.904187 0.458841 0.095002 -0.000858
H55   H     H_    0.906811 0.528298 0.115403 0.152554
H56   H     H_    0.920427 0.400055 0.118458 0.129665
C156  C     C_3   0.841148 0.439218 0.082941 -0.286347
H57   H     H_    0.826310 0.489928 0.055197 0.196492
H58   H     H_    0.835704 0.363503 0.069374 0.144521
C157  C     C_3   0.803478 0.450581 0.126423 -0.481736
H59   H     H_    0.818553 0.400856 0.154729 0.152332
H60   H     H_    0.759013 0.430860 0.117344 0.150124
H61   H     H_    0.803983 0.527324 0.139526 0.162672
O56   O     O_3   0.067676 0.468120 0.940825 -0.584961
C158  C     C_3   0.101805 0.450879 0.900182 -0.002943
H62   H     H_    0.098951 0.518008 0.878356 0.152020
H63   H     H_    0.085374 0.390177 0.878006 0.131010
C159  C     C_3   0.164908 0.430002 0.912264 -0.283163
H64   H     H_    0.178778 0.478916 0.940995 0.202509
H65   H     H_    0.170827 0.353591 0.924644 0.128025
C160  C     C_3   0.203330 0.443303 0.869502 -0.472431
H66   H     H_    0.193637 0.386895 0.842429 0.141663
H67   H     H_    0.248675 0.435340 0.880381 0.173701
H68   H     H_    0.197087 0.517132 0.854040 0.163450
C161  C     C_3   0.156267 0.686427 0.950109 -0.238900
C162  C     C_3   0.157707 0.797934 0.945559 -0.314706
C163  C     C_3   0.106418 0.835317 0.917351 -0.459443
H69   H     H_    0.105042 0.799268 0.882267 0.164199
H70   H     H_    0.066092 0.820379 0.936487 0.144500
H71   H     H_    0.109587 0.915557 0.912065 0.137465
H72   H     H_    0.156793 0.831739 0.981168 0.189969
H73   H     H_    0.197690 0.820368 0.927580 0.173212
H74   H     H_    0.155750 0.652561 0.914535 0.147884
H75   H     H_    0.115456 0.665029 0.966913 0.202796
C164  C     C_3   0.834255 0.693461 0.051305 -0.238994
C165  C     C_3   0.836068 0.805305 0.056926 -0.301386
C166  C     C_3   0.890336 0.836828 0.082569 -0.454211
H76   H     H_    0.892607 0.802202 0.117798 0.160600
H77   H     H_    0.928834 0.815483 0.061913 0.147072
H78   H     H_    0.890163 0.917574 0.087259 0.142725
H79   H     H_    0.834813 0.840764 0.021917 0.151889
H80   H     H_    0.798353 0.831672 0.077210 0.176515
H81   H     H_    0.832261 0.659108 0.086534 0.143083
H82   H     H_    0.875164 0.667823 0.035737 0.203916
C167  C     C_3   0.659852 0.187000 0.945545 -0.228507
C168  C     C_3   0.663411 0.299326 0.943099 -0.303123
C169  C     C_3   0.611292 0.342914 0.918482 -0.455796
H83   H     H_    0.607668 0.313128 0.882196 0.163837
H84   H     H_    0.571772 0.325936 0.938435 0.151064
H85   H     H_    0.615777 0.423709 0.916516 0.144469
H86   H     H_    0.666182 0.330888 0.979084 0.149761
H87   H     H_    0.702286 0.321713 0.923641 0.179767
H88   H     H_    0.660947 0.154941 0.909554 0.146037
H89   H     H_    0.617692 0.166612 0.960399 0.206826
C170  C     C_3   0.344340 0.191233 0.048633 -0.229366
C171  C     C_3   0.344490 0.303283 0.049713 -0.290486
C172  C     C_3   0.398775 0.339663 0.074050 -0.458729
H90   H     H_    0.400819 0.312094 0.110709 0.150466
H91   H     H_    0.437281 0.313889 0.054573 0.156224
H92   H     H_    0.399448 0.420758 0.075251 0.134643
H93   H     H_    0.343118 0.332886 0.013537 0.203419
H94   H     H_    0.306335 0.330752 0.069189 0.168002
H95   H     H_    0.345848 0.165682 0.085474 0.134477
H96   H     H_    0.384147 0.163572 0.031626 0.214399
O57   O     O_3   0.465589 0.654504 0.539885 -0.574385
C173  C     C_3   0.521120 0.638424 0.557882 0.019182
H97   H     H_    0.533698 0.699176 0.582016 0.133657
H98   H     H_    0.552933 0.632336 0.528822 0.161326
C174  C     C_3   0.521572 0.542660 0.585433 -0.264576
H99   H     H_    0.488982 0.546824 0.613844 0.180988
H100  H     H_    0.510396 0.481129 0.561448 0.160967
C175  C     C_3   0.580099 0.522605 0.607242 -0.480021
H101  H     H_    0.613253 0.518400 0.579422 0.147843
H102  H     H_    0.579349 0.451741 0.626244 0.151156
H103  H     H_    0.591287 0.581675 0.632555 0.158323
O58   O     O_3   0.499669 0.659089 0.446516 -0.579143
C176  C     C_3   0.458148 0.616503 0.416707 0.017211
H104  H     H_    0.480347 0.593010 0.383976 0.153843
H105  H     H_    0.423089 0.667557 0.405627 0.115974
C177  C     C_3   0.432394 0.526967 0.440678 -0.259341
H106  H     H_    0.466865 0.482883 0.457550 0.179643
H107  H     H_    0.402246 0.552198 0.468442 0.188093
C178  C     C_3   0.400637 0.462244 0.405600 -0.489229
H108  H     H_    0.365607 0.504326 0.388496 0.161723
H109  H     H_    0.382131 0.398581 0.424198 0.141749
H110  H     H_    0.430476 0.434257 0.378192 0.144868
O59   O     O_3   0.965685 0.154521 0.539901 -0.574291
C179  C     C_3   0.021224 0.138548 0.557903 0.019201
H111  H     H_    0.033757 0.199324 0.582039 0.133420
H112  H     H_    0.053045 0.132524 0.528847 0.161307
C180  C     C_3   0.021738 0.042782 0.585453 -0.264510
H113  H     H_    0.989122 0.046860 0.613847 0.181027
H114  H     H_    0.010634 0.981225 0.561460 0.160965
C181  C     C_3   0.080265 0.022880 0.607293 -0.480222
H115  H     H_    0.113448 0.018803 0.579494 0.147945
H116  H     H_    0.079569 0.951994 0.626279 0.151025
H117  H     H_    0.091369 0.081959 0.632627 0.157905
O60   O     O_3   0.999732 0.159103 0.446529 -0.579215
C182  C     C_3   0.958247 0.116542 0.416677 0.017236
H118  H     H_    0.980492 0.093017 0.383972 0.153967
H119  H     H_    0.923222 0.167623 0.405555 0.116567
C183  C     C_3   0.932424 0.027041 0.440625 -0.259592
H120  H     H_    0.966856 0.982905 0.457520 0.179643
H121  H     H_    0.902258 0.052314 0.468367 0.188005
C184  C     C_3   0.900671 0.962372 0.405521 -0.488733
H122  H     H_    0.865664 0.004499 0.388410 0.162278
H123  H     H_    0.882134 0.898712 0.424099 0.141671
H124  H     H_    0.930519 0.934379 0.378122 0.145379
C185  C     C_3   0.304554 0.430225 0.553264 -0.261029
C186  C     C_3   0.366104 0.447896 0.569914 -0.288458
C187  C     C_3   0.387878 0.363096 0.599952 -0.457285
H125  H     H_    0.360060 0.353614 0.631228 0.160692
H126  H     H_    0.388647 0.294107 0.579093 0.147665
H127  H     H_    0.432028 0.378578 0.612133 0.141029
H128  H     H_    0.394649 0.455422 0.538966 0.172482
H129  H     H_    0.368476 0.516531 0.590955 0.194778
H130  H     H_    0.275865 0.418409 0.583845 0.149751
H131  H     H_    0.303887 0.361976 0.531872 0.128024
C188  C     C_3   0.677747 0.442265 0.446261 -0.268994
C189  C     C_3   0.619859 0.487792 0.432849 -0.274856
C190  C     C_3   0.584161 0.415324 0.404505 -0.445757
H132  H     H_    0.607316 0.392665 0.372084 0.155617
H133  H     H_    0.574768 0.349480 0.425893 0.148089
H134  H     H_    0.543138 0.450222 0.394107 0.151229
H135  H     H_    0.596027 0.508761 0.465246 0.179705
H136  H     H_    0.626168 0.554769 0.411485 0.193330
H137  H     H_    0.701169 0.417664 0.414245 0.146601
H138  H     H_    0.669831 0.375832 0.467722 0.127366
C191  C     C_3   0.804639 0.930296 0.553227 -0.261043
C192  C     C_3   0.866193 0.948015 0.569850 -0.288556
C193  C     C_3   0.888059 0.863112 0.599776 -0.456977
H139  H     H_    0.860276 0.853412 0.631057 0.161607
H140  H     H_    0.888860 0.794228 0.578837 0.147540
H141  H     H_    0.932208 0.878630 0.611949 0.141071
H142  H     H_    0.894702 0.955743 0.538892 0.172663
H143  H     H_    0.868537 0.016559 0.590963 0.194796
H144  H     H_    0.775976 0.918441 0.583820 0.150132
H145  H     H_    0.803978 0.862054 0.531829 0.128025
C194  C     C_3   0.177781 0.942203 0.446254 -0.269058
C195  C     C_3   0.119888 0.987715 0.432847 -0.274835
C196  C     C_3   0.084192 0.915233 0.404510 -0.446035
H146  H     H_    0.107342 0.892585 0.372084 0.154600
H147  H     H_    0.074815 0.849384 0.425898 0.148237
H148  H     H_    0.043162 0.950114 0.394119 0.151254
H149  H     H_    0.096059 0.008682 0.465246 0.179779
H150  H     H_    0.126188 0.054691 0.411480 0.193347
H151  H     H_    0.201202 0.917611 0.414235 0.145695
H152  H     H_    0.169874 0.875766 0.467715 0.127462
O61   O     O_3   0.337313 0.509388 0.952626 -0.600051
C197  C     C_3   0.392460 0.548469 0.948636 -0.004905
H153  H     H_    0.411588 0.561331 0.984000 0.128193
H154  H     H_    0.390554 0.617442 0.927985 0.146474
C198  C     C_3   0.429577 0.474288 0.921820 -0.259595
H155  H     H_    0.432561 0.405121 0.942215 0.166976
H156  H     H_    0.409096 0.458163 0.887481 0.176884
C199  C     C_3   0.489666 0.511873 0.912436 -0.494153
H157  H     H_    0.487813 0.582182 0.892951 0.158180
H158  H     H_    0.513088 0.457707 0.890348 0.146440
H159  H     H_    0.513287 0.521560 0.946018 0.152045
O62   O     O_3   0.623100 0.632114 0.026175 -0.609905
C200  C     C_3   0.612209 0.579386 0.068145 0.018594
H160  H     H_    0.565494 0.565980 0.069509 0.127485
H161  H     H_    0.619844 0.625863 0.099428 0.159953
C201  C     C_3   0.641028 0.477565 0.071546 -0.279984
H162  H     H_    0.618527 0.425800 0.047783 0.139841
H163  H     H_    0.686626 0.478704 0.060987 0.161365
C202  C     C_3   0.638329 0.440313 0.121991 -0.485895
H164  H     H_    0.663795 0.488358 0.145515 0.174598
H165  H     H_    0.656405 0.365004 0.123695 0.134625
H166  H     H_    0.593482 0.439947 0.134765 0.147992
O63   O     O_3   0.868433 0.106690 0.972708 -0.607240
C203  C     C_3   0.883040 0.062990 0.928857 0.006408
H167  H     H_    0.929704 0.047165 0.930229 0.139370
H168  H     H_    0.878329 0.116092 0.899806 0.155033
C204  C     C_3   0.853388 0.965407 0.918180 -0.282287
H169  H     H_    0.860624 0.915568 0.948148 0.146551
H170  H     H_    0.806759 0.976541 0.913696 0.162159
C205  C     C_3   0.876832 0.919389 0.873069 -0.482274
H171  H     H_    0.871630 0.970929 0.843221 0.171623
H172  H     H_    0.852945 0.851642 0.864676 0.134834
H173  H     H_    0.922858 0.900654 0.877306 0.141061
O64   O     O_3   0.170999 0.986502 0.049048 -0.579768
C206  C     C_3   0.117136 0.032336 0.053784 0.000705
H174  H     H_    0.097196 0.043844 0.018619 0.120791
H175  H     H_    0.121370 0.103572 0.072774 0.141740
C207  C     C_3   0.078707 0.965413 0.082491 -0.254962
H176  H     H_    0.072265 0.896432 0.062545 0.150422
H177  H     H_    0.099930 0.948114 0.116483 0.180904
C208  C     C_3   0.020303 0.011369 0.092284 -0.492593
H178  H     H_    0.025043 0.084167 0.109434 0.164190
H179  H     H_    0.995821 0.963306 0.116230 0.143216
H180  H     H_    0.995921 0.018592 0.058962 0.148906
O65   O     O_3   0.146117 0.607952 0.043312 -0.587623
C209  C     C_3   0.129451 0.685853 0.073057 0.001389
H181  H     H_    0.113762 0.747525 0.051215 0.138446
H182  H     H_    0.165002 0.712082 0.095916 0.144487
C210  C     C_3   0.080795 0.649195 0.104233 -0.250264
H183  H     H_    0.044392 0.625600 0.081805 0.175227
H184  H     H_    0.096088 0.584459 0.124351 0.204585
C211  C     C_3   0.059640 0.727187 0.138755 -0.480281
H185  H     H_    0.095901 0.758649 0.158893 0.154402
H186  H     H_    0.029269 0.693698 0.163895 0.149426
H187  H     H_    0.036639 0.786117 0.119682 0.138196
O66   O     O_3   0.847482 0.606473 0.959563 -0.567210
C212  C     C_3   0.868013 0.685492 0.932815 0.009134
H188  H     H_    0.864769 0.755110 0.952825 0.120806
H189  H     H_    0.843222 0.692816 0.899669 0.127811
C213  C     C_3   0.930643 0.667155 0.919699 -0.236843
H190  H     H_    0.935856 0.591551 0.905528 0.189261
H191  H     H_    0.943116 0.718944 0.891547 0.111750
C214  C     C_3   0.970585 0.681954 0.961617 -0.422717
H192  H     H_    0.969160 0.759591 0.973523 0.120727
H193  H     H_    0.014947 0.663108 0.950984 0.159961
H194  H     H_    0.958534 0.634200 0.991358 0.200690
O67   O     O_3   0.642202 0.098172 0.035748 -0.575415
C215  C     C_3   0.626508 0.179195 0.064045 -0.004397
H195  H     H_    0.625316 0.247242 0.042794 0.123814
H196  H     H_    0.656675 0.189040 0.093983 0.142620
C216  C     C_3   0.566856 0.160850 0.083626 -0.244172
H197  H     H_    0.536445 0.152983 0.053858 0.212269
H198  H     H_    0.567549 0.091667 0.104086 0.186413
C217  C     C_3   0.546456 0.244383 0.115308 -0.498578
H199  H     H_    0.576625 0.254756 0.145040 0.158478
H200  H     H_    0.503875 0.227132 0.130095 0.134333
H201  H     H_    0.542532 0.312940 0.094675 0.145390
O68   O     O_3   0.340022 0.181004 0.949231 -0.579579
C218  C     C_3   0.323509 0.254454 0.916724 -0.000946
H202  H     H_    0.329951 0.327329 0.933000 0.182801
H203  H     H_    0.277753 0.251638 0.905812 0.124944
C219  C     C_3   0.361850 0.245923 0.873264 -0.251459
H204  H     H_    0.405797 0.269992 0.882336 0.151292
H205  H     H_    0.364667 0.168147 0.861927 0.211925
C220  C     C_3   0.339101 0.306845 0.832349 -0.476030
H206  H     H_    0.296199 0.280530 0.821510 0.152061
H207  H     H_    0.368589 0.299551 0.801925 0.152822
H208  H     H_    0.336010 0.385350 0.842360 0.153748

loop_
_geom_bond_atom_site_label_1
_geom_bond_atom_site_label_2
_ccdc_geom_bond_type
C185  H131  S    
C167  H89   S    
C99   C103  A    
C144  H24   S    
C17   C53   T    
C126  O46   A    
C159  C160  S    
C198  H155  S    
C108  C120  S    
C62   C77   T    
C76   C79   S    
C213  H190  S    
O57   C173  S    
C210  H183  S    
C20   C92   S    
C157  H59   S    
C196  H146  S    
C142  O53   S    
C71   H3    S    
C168  H86   S    
Cr5   O25   S    
C193  H140  S    
Cr4   O44   S    
Cr7   O7    S    
C88   C108  A    
C19   C55   T    
C154  H52   S    
C22   C38   A    
C81   C117  T    
C100  C104  A    
Cr11  O11   S    
C1    O21   A    
C11   H32   S    
C135  O43   A    
C184  H124  S    
C149  H42   S    
C102  C188  S    
C87   H7    S    
C218  H203  S    
C158  H63   S    
C29   O65   S    
C33   C161  S    
Cr8   O28   S    
C166  H77   S    
C196  H147  S    
C106  C118  S    
C23   O63   S    
C216  H198  S    
C70   H2    S    
C41   C49   S    
C170  H96   S    
C47   O35   A    
C104  C194  S    
C219  H205  S    
C115  C123  T    
C90   O38   A    
C138  H25   S    
C17   C89   S    
C121  C128  S    
C1    C60   S    
C25   C41   A    
Cr7   O51   S    
C2    C59   S    
C123  C126  S    
C98   C102  A    
C28   C44   A    
C82   C134  S    
C204  H170  S    
C171  H93   S    
C178  H108  S    
Cr10  O18   S    
C200  C201  S    
C177  H106  S    
O68   C218  S    
C69   C74   A    
Cr8   O20   S    
Cr1   O17   S    
Cr10  O38   S    
C192  H143  S    
O62   C200  S    
C142  H22   S    
C153  H51   S    
C185  C186  S    
C198  C199  S    
Cr3   O19   S    
C162  C163  S    
C82   C118  T    
C129  O9    A    
C187  H125  S    
C213  C214  S    
C21   O61   S    
C201  H162  S    
C2    O26   A    
C137  H26   S    
C210  C211  S    
C140  H27   S    
C138  C141  S    
C5    C137  S    
C190  H132  S    
C8    C140  S    
C85   H5    S    
C125  O49   A    
C212  H189  S    
C94   H10   S    
O58   C176  S    
C140  H20   S    
C141  H21   S    
C156  H58   S    
C69   C70   A    
Cr8   O8    S    
C139  H19   S    
C165  H79   S    
Cr3   O43   S    
C214  H194  S    
C87   C107  A    
C143  O56   S    
C209  H181  S    
Cr12  O36   S    
O59   C179  S    
C206  H175  S    
C103  C107  A    
C150  H44   S    
C90   O2    A    
C205  H172  S    
C137  C142  S    
C169  H84   S    
Cr9   O9    S    
C176  H104  S    
C29   C33   A    
C34   C164  S    
C62   C130  S    
C65   O57   S    
C140  C143  S    
C13   C145  T    
C20   C56   T    
C131  O7    A    
C6    C9    S    
C7    C143  S    
O60   C182  S    
C208  H178  S    
Cr7   O27   S    
C189  H135  S    
C31   C43   A    
C24   C40   A    
C46   O34   A    
C195  C196  S    
C202  H165  S    
O53   C149  S    
C205  H173  S    
C83   C119  T    
C66   C74   A    
C177  C178  S    
C49   C57   T    
C150  H43   S    
C122  C127  S    
C183  H120  S    
C215  H195  S    
C52   C60   T    
C85   C93   A    
O54   C152  S    
C74   C77   S    
C87   C95   A    
C22   O62   S    
O64   C206  S    
C9    C10   S    
C110  C114  S    
Cr5   O17   S    
C201  C202  S    
C61   C129  S    
C37   C53   S    
C44   C52   S    
C195  H150  S    
C172  H91   S    
Cr5   O29   S    
C86   C106  A    
C72   C75   A    
C161  H74   S    
C179  H111  S    
C63   C80   T    
C174  H100  S    
C32   C44   A    
C7    C12   S    
C190  H134  S    
C217  H200  S    
C220  H207  S    
C10   H29   S    
Cr11  O15   S    
C207  H176  S    
C30   C34   A    
C27   H39   S    
C211  H185  S    
Cr6   O50   S    
C149  C150  S    
C88   H8    S    
C215  C216  S    
C192  H142  S    
C68   O60   S    
C203  H167  S    
C183  C184  S    
C160  H66   S    
C130  O6    A    
C97   C109  A    
Cr8   O32   S    
C214  H192  S    
C180  H113  S    
C182  C183  S    
C99   C111  A    
Cr6   O6    S    
C152  H49   S    
C181  H117  S    
C198  H156  S    
C42   C50   S    
Cr5   O5    S    
C178  H109  S    
C176  C177  S    
C173  H98   S    
C131  O11   A    
C197  H153  S    
C180  C181  S    
C164  H81   S    
C139  H28   S    
C112  C116  S    
C199  H157  S    
C26   C42   A    
C192  C193  S    
C208  H180  S    
C185  H130  S    
Cr2   O46   S    
C21   C25   A    
C92   O40   A    
C3    O23   A    
C29   C41   A    
Cr11  O35   S    
Cr4   O4    S    
C24   C28   A    
C155  H56   S    
C171  C172  S    
C213  H191  S    
C81   C133  S    
C194  H152  S    
Cr10  O14   S    
C173  C174  S    
C157  H60   S    
C36   C170  S    
C168  H87   S    
C150  C151  S    
C187  H127  S    
C191  H144  S    
C71   C72   A    
Cr10  O34   S    
Cr12  O20   S    
C186  H128  S    
C172  H92   S    
Cr3   O23   S    
C162  H72   S    
C26   H38   S    
C163  H71   S    
C184  H123  S    
C67   C75   A    
C155  H55   S    
C197  C198  S    
O67   C215  S    
C179  C180  S    
C93   C109  A    
C154  H54   S    
C88   C96   A    
C186  C187  S    
C98   C110  A    
Cr2   O22   S    
C125  O45   A    
O55   C155  S    
C86   H6    S    
C211  H187  S    
C170  H95   S    
C93   H9    S    
O61   C197  S    
Cr6   O26   S    
C203  C204  S    
C45   O33   A    
C160  H68   S    
Cr3   O47   S    
C71   C76   A    
C166  H78   S    
C167  H88   S    
C182  H118  S    
Cr12  O16   S    
C48   C147  S    
C2    O22   A    
C159  H64   S    
C161  C162  S    
C181  H115  S    
C134  O42   A    
C171  H94   S    
C217  H199  S    
C39   C55   S    
C64   C132  S    
C40   C56   S    
C177  H107  S    
C100  H16   S    
C156  H57   S    
Cr7   O19   S    
C63   C131  S    
C6    C142  S    
C92   O4    A    
C199  H159  S    
C188  H137  S    
C206  H174  S    
C46   O30   A    
C105  C117  S    
C151  H47   S    
C107  C119  S    
O66   C212  S    
C201  H163  S    
C191  C192  S    
C210  H184  S    
C204  H169  S    
C18   C90   S    
C89   O37   A    
C193  H141  S    
C97   H13   S    
C11   H36   S    
C3    O27   A    
C9    H34   S    
C151  H45   S    
C166  H76   S    
C94   C110  A    
C33   C37   A    
C164  C165  S    
C50   C58   T    
C35   C39   A    
C67   C68   A    
C212  H188  S    
C129  O5    A    
C158  H62   S    
C38   C54   S    
C155  C156  S    
C84   C120  T    
C218  C219  S    
C70   C73   A    
C215  H196  S    
C72   H4    S    
C158  C159  S    
C67   O59   S    
C28   H40   S    
C200  H160  S    
C5    C14   S    
C165  H80   S    
Cr1   O21   S    
C191  H145  S    
Cr9   O37   S    
C7    C16   S    
C214  H193  S    
C100  C112  A    
C8    C15   S    
Cr11  O19   S    
Cr4   O24   S    
C12   H35   S    
C31   C35   A    
C10   H33   S    
C127  O47   A    
Cr2   O2    S    
C9    H30   S    
C32   C36   A    
C104  C108  A    
C127  O51   A    
C1    O25   A    
C12   H31   S    
C219  H204  S    
C84   C136  S    
Cr1   O45   S    
C116  C124  T    
Cr9   O13   S    
C211  H186  S    
C189  C190  S    
C31   O67   S    
C101  C185  S    
Cr8   O52   S    
C209  C210  S    
C134  O14   A    
C126  O50   A    
C149  H41   S    
C204  C205  S    
C170  C171  S    
C15   C147  T    
C43   C51   S    
C4    O28   A    
C183  H121  S    
Cr4   O48   S    
C19   C91   S    
C24   O64   S    
C169  H83   S    
C3    C58   S    
C27   C43   A    
Cr2   O42   S    
C21   C37   A    
C153  H50   S    
C160  H67   S    
C22   C26   A    
C194  C195  S    
Cr11  O39   S    
C30   C42   A    
C95   H11   S    
C91   O3    A    
C143  H23   S    
C219  C220  S    
Cr10  O10   S    
C89   O1    A    
C172  H90   S    
C193  H139  S    
C132  O12   A    
C202  H164  S    
C179  H112  S    
C188  C189  S    
C35   C167  S    
C174  H99   S    
C96   C112  A    
C217  H201  S    
C220  H206  S    
C128  O52   A    
C207  H177  S    
C144  O55   S    
C30   O66   S    
C69   H1    S    
C212  C213  S    
C5    C10   S    
O56   C158  S    
C98   H14   S    
C46   C145  S    
C47   O31   A    
C218  H202  S    
C65   C73   A    
C103  C191  S    
C203  H168  S    
C156  C157  S    
C189  H136  S    
C86   C94   A    
C32   O68   S    
C135  O15   A    
C182  H119  S    
C207  C208  S    
C4    C57   S    
C206  C207  S    
C216  H197  S    
C175  H103  S    
C23   C27   A    
Cr6   O18   S    
C75   C80   S    
C83   C135  S    
C109  C113  S    
C133  O41   A    
C205  H171  S    
C169  H85   S    
C176  H105  S    
Cr6   O30   S    
C197  H154  S    
C180  H114  S    
C45   O29   A    
C85   C105  A    
Cr9   O17   S    
C199  H158  S    
C208  H179  S    
C101  C105  A    
Cr12  O12   S    
C136  O44   A    
C45   C146  S    
C128  O48   A    
C36   C40   A    
C216  C217  S    
C151  H46   S    
C202  H166  S    
C163  H69   S    
C194  H151  S    
C4    O24   A    
Cr5   O49   S    
C190  H133  S    
C48   O32   A    
C6    C138  S    
C187  H126  S    
C168  C169  S    
C139  C144  S    
C5    C141  S    
C153  C154  S    
C186  H129  S    
C61   C78   T    
C73   C78   S    
O65   C209  S    
Cr2   O18   S    
C99   H15   S    
C8    C144  S    
C162  H73   S    
C68   C76   A    
C175  H101  S    
C163  H70   S    
C184  H122  S    
C48   O36   A    
C157  H61   S    
C175  H102  S    
C195  H149  S    
C132  O8    A    
C113  C121  T    
C141  O54   S    
C130  O10   A    
C51   C59   T    
C138  H18   S    
Cr1   O1    S    
C161  H75   S    
C165  C166  S    
C152  H48   S    
C174  C175  S    
C154  H53   S    
C47   C148  S    
C188  H138  S    
C220  H208  S    
Cr12  O40   S    
C34   C38   A    
Cr3   O3    S    
C111  C115  S    
C11   C12   S    
C196  H148  S    
C200  H161  S    
C14   C146  T    
C209  H182  S    
C16   C148  T    
C133  O13   A    
O63   C203  S    
C65   C66   A    
C95   C111  A    
C6    C13   S    
C7    C139  S    
Cr9   O33   S    
C8    C11   S    
C23   C39   A    
Cr4   O20   S    
Cr7   O31   S    
C64   C79   T    
C102  C106  A    
C159  H65   S    
C167  C168  S    
C152  C153  S    
C181  H116  S    
C25   H37   S    
C18   C54   T    
C114  C122  T    
C178  H110  S    
C137  H17   S    
Cr1   O41   S    
C173  H97   S    
C96   H12   S    
C91   O39   A    
C66   O58   S    
C164  H82   S    
C97   C101  A    
C124  C125  S    
C136  O16   A    
