data_mof_unit_56835.cif
_audit_creation_date              2012-12-11T17:04:38-0500
_audit_creation_method            fapswitch 2.2
_symmetry_space_group_name_H-M    P1
_symmetry_Int_Tables_number       1
_space_group_crystal_system       triclinic
_cell_length_a                    17.487095
_cell_length_b                    24.681181
_cell_length_c                    14.94234
_cell_angle_alpha                 89.972096
_cell_angle_beta                  125.891545
_cell_angle_gamma                 89.823631
_cell_volume                      5224.58927403

loop_
_atom_site_label
_atom_site_type_symbol
_atom_type_description
_atom_site_fract_x
_atom_site_fract_y
_atom_site_fract_z
_atom_type_partial_charge
C1    C     C_R   0.844314 0.650504 0.908520 0.030206
C2    C     C_R   0.026560 0.501775 0.700173 0.072463
C3    C     C_R   0.756947 0.044459 0.306396 -0.146577
C4    C     C_R   0.832259 0.358124 0.910573 -0.149931
C5    C     C_R   0.186394 0.373922 0.093799 -0.144542
C6    C     C_R   0.342000 0.853688 0.908541 -0.153256
C7    C     C_R   0.688797 0.877665 0.092239 -0.139734
C8    C     C_R   0.934086 0.647575 0.093470 -0.176929
C9    C     C_R   0.087755 0.636083 0.909161 -0.176023
C10   C     C_R   0.442502 0.150632 0.092664 -0.194595
C11   C     C_R   0.594870 0.126112 0.906621 -0.170095
C12   C     C_R   0.869067 0.677561 0.002781 0.023157
C13   C     C_R   0.454404 0.001767 0.279067 0.068901
C14   C     C_R   0.172795 0.652385 0.001306 0.020693
C15   C     C_R   0.380232 0.181380 0.002867 0.028812
C16   C     C_R   0.680254 0.143925 0.997434 0.012105
C17   C     C_R   0.789606 0.672515 0.794708 0.089288
C18   C     C_R   0.821392 0.665110 0.728305 -0.158549
C19   C     C_R   0.768297 0.684666 0.619829 -0.127735
C20   C     C_R   0.682706 0.711410 0.576411 -0.099600
C21   C     C_R   0.649781 0.718333 0.641200 -0.125253
C22   C     C_R   0.702545 0.698722 0.749606 -0.171464
C23   C     C_R   0.241493 0.659223 0.204702 0.114806
C24   C     C_R   0.435986 0.001601 0.632214 0.079272
C25   C     C_R   0.198485 0.687483 0.245880 -0.164950
C26   C     C_R   0.253820 0.712471 0.349282 -0.123664
C27   C     C_R   0.352256 0.709573 0.411873 -0.101072
C28   C     C_R   0.395497 0.681512 0.371316 -0.140770
C29   C     C_R   0.340438 0.656199 0.268327 -0.157433
C30   C     C_R   0.293943 0.173372 0.794843 0.095474
C31   C     C_R   0.327571 0.167658 0.730118 -0.157424
C32   C     C_R   0.273930 0.186381 0.621029 -0.125533
C33   C     C_R   0.186261 0.210922 0.575783 -0.095109
C34   C     C_R   0.152041 0.216617 0.639510 -0.135025
C35   C     C_R   0.674554 0.499087 0.713663 0.023293
C36   C     C_R   0.205284 0.197684 0.748433 -0.183237
C37   C     C_R   0.748612 0.155708 0.201444 0.115671
C38   C     C_R   0.709336 0.187852 0.242550 -0.161639
C39   C     C_R   0.767603 0.211695 0.346807 -0.123338
C40   C     C_R   0.865242 0.203524 0.410609 -0.091231
C41   C     C_R   0.904841 0.171616 0.370141 -0.129548
C42   C     C_R   0.846804 0.147765 0.265868 -0.167943
C43   C     C_R   0.303626 0.499710 0.365470 0.027825
C44   C     C_R   0.174934 0.000359 0.716894 0.023909
C45   C     C_R   0.805274 0.998731 0.364132 0.025021
C46   C     C_3   0.515375 0.447462 0.573821 -0.166783
C47   C     C_3   0.475276 0.476610 0.463638 -0.141466
C48   C     C_3   0.996756 0.971568 0.635935 -0.150594
C49   C     C_R   0.182883 0.633935 0.094599 0.027241
C50   C     C_3   0.959538 0.947518 0.521556 -0.166843
C51   C     C_3   0.434936 0.470629 0.577480 -0.152762
C52   C     C_3   0.533478 0.527393 0.523742 -0.143653
C53   C     C_3   0.932650 0.022347 0.579274 -0.151715
C54   C     C_3   0.037914 0.976375 0.522770 -0.148254
C55   C     C_3   0.396435 0.499754 0.468312 0.184410
C56   C     C_3   0.573356 0.498366 0.633483 0.186322
C57   C     C_3   0.898061 0.998152 0.467220 0.186571
C58   C     C_3   0.073856 0.000426 0.635491 0.181734
C59   C     C_3   0.454158 0.550634 0.528273 -0.168256
C60   C     C_R   0.349120 0.152108 0.908912 0.029884
C61   C     C_3   0.495375 0.521604 0.639733 -0.150453
C62   C     C_3   0.975910 0.026882 0.468104 -0.132827
C63   C     C_3   0.012186 0.051099 0.581273 -0.161417
C64   C     C_R   0.862602 0.243762 0.068056 0.146829
C65   C     C_R   0.282389 0.318623 0.957635 0.153173
C66   C     C_R   0.367634 0.735077 0.055210 0.138090
C67   C     C_R   0.787190 0.818943 0.960755 0.154616
C68   C     C_R   0.806237 0.288143 0.007609 0.039468
C69   C     C_R   0.238575 0.315239 0.009943 0.018842
C70   C     C_R   0.318650 0.782354 0.002329 0.041543
C71   C     C_R   0.686697 0.129996 0.092156 0.033400
C72   C     C_R   0.738130 0.818392 0.006893 0.018967
C73   C     C_R   0.708229 0.285474 0.945132 -0.209843
C74   C     C_R   0.249633 0.268209 0.069304 -0.215106
C75   C     C_R   0.224039 0.789541 0.960718 -0.204626
C76   C     C_R   0.738395 0.770835 0.059207 -0.211378
C77   C     C_R   0.924979 0.359964 0.096314 -0.132571
C78   C     C_R   0.091972 0.369173 0.908981 -0.132962
C79   C     C_R   0.436491 0.853075 0.093745 -0.145965
C80   C     C_R   0.595695 0.875601 0.907163 -0.127135
C81   C     C_R   0.175196 0.746077 0.960561 -0.206921
C82   C     C_R   0.848678 0.335768 0.004836 0.070033
C83   C     C_R   0.785474 0.725120 0.061175 -0.214620
C84   C     C_R   0.666730 0.236636 0.937464 -0.200097
C85   C     C_R   0.300490 0.225008 0.070086 -0.210841
C86   C     C_R   0.222075 0.696455 0.000674 0.057250
C87   C     C_R   0.831480 0.726605 0.009865 0.017180
C88   C     C_R   0.723686 0.190631 0.990406 0.048241
C89   C     C_R   0.340297 0.228836 0.011565 0.021254
C90   C     C_R   0.318542 0.691632 0.053003 0.145343
C91   C     C_R   0.833138 0.774680 0.962896 0.170447
C92   C     C_R   0.821330 0.194973 0.059041 0.160087
C93   C     C_R   0.180139 0.356646 0.002882 0.076969
C94   C     C_R   0.332657 0.276987 0.959243 0.166482
C95   C     C_3   0.370851 0.652537 0.030816 -0.500795
C96   C     C_3   0.864840 0.801626 0.900488 -0.503158
C97   C     C_3   0.892611 0.164202 0.054265 -0.508194
C98   C     C_3   0.354425 0.305699 0.888753 -0.502869
C99   C     C_3   0.938890 0.218065 0.065867 -0.495551
C100  C     C_3   0.295924 0.353195 0.886488 -0.501458
C101  C     C_3   0.425680 0.700753 0.033545 -0.496371
C102  C     C_3   0.811573 0.852182 0.897856 -0.506117
C103  C     C_R   0.088247 0.552532 0.611903 0.163894
C104  C     C_R   0.366841 0.826457 0.001302 0.072668
C105  C     C_R   0.102609 0.552861 0.530745 0.158032
C106  C     C_R   0.397633 0.052412 0.467282 0.158701
C107  C     C_R   0.402321 0.052639 0.378359 0.158487
C108  C     C_R   0.074664 0.503384 0.647450 0.038033
C109  C     C_R   0.103440 0.503892 0.483961 0.028387
C110  C     C_R   0.399994 0.003391 0.515969 0.031706
C111  C     C_R   0.408653 0.003756 0.335260 0.033493
C112  C     C_R   0.103277 0.455351 0.624243 -0.202397
C113  C     C_R   0.118485 0.455653 0.542455 -0.206129
C114  C     C_R   0.381001 0.955451 0.455248 -0.207032
C115  C     C_R   0.684510 0.862974 0.000787 0.069997
C116  C     C_R   0.384961 0.955695 0.364352 -0.201045
C117  C     C_3   0.044817 0.603483 0.479539 -0.519291
C118  C     C_3   0.029528 0.603072 0.568562 -0.530682
C119  C     C_3   0.463566 0.102055 0.419749 -0.522124
C120  C     C_3   0.457859 0.101865 0.516463 -0.519191
C121  C     C_R   0.051876 0.546480 0.304253 -0.148912
C122  C     C_R   0.003466 0.546513 0.734895 -0.143793
C123  C     C_R   0.480966 0.046601 0.247883 -0.144990
C124  C     C_R   0.450240 0.046230 0.695821 -0.152256
C125  C     C_R   0.731023 0.454336 0.742231 -0.118335
C126  C     C_R   0.067575 0.501914 0.368440 0.077647
C127  C     C_R   0.257103 0.454876 0.303407 -0.147476
C128  C     C_R   0.230805 0.954949 0.745717 -0.137546
C129  C     C_R   0.757593 0.954326 0.302006 -0.133884
C130  C     C_R   0.050338 0.456066 0.305683 -0.122456
C131  C     C_R   0.000856 0.455991 0.730495 -0.127259
C132  C     C_R   0.485040 0.955757 0.254161 -0.123785
C133  C     C_R   0.451134 0.955978 0.694860 -0.136664
C134  C     C_R   0.728839 0.545114 0.744039 -0.145932
C135  C     C_R   0.255992 0.545010 0.306170 -0.134564
C136  C     C_R   0.229714 0.045827 0.745321 -0.128826
H1    H     H_    0.540945 0.404917 0.593156 0.104994
H2    H     H_    0.215993 0.264093 0.111025 0.135679
H3    H     H_    0.188235 0.828032 0.926631 0.136253
H4    H     H_    0.699992 0.768547 0.095488 0.137224
H5    H     H_    0.101227 0.750554 0.927046 0.134330
H6    H     H_    0.782721 0.688196 0.098524 0.141455
H7    H     H_    0.590529 0.234817 0.890862 0.134556
H8    H     H_    0.305022 0.187929 0.111952 0.138549
H9    H     H_    0.324963 0.633388 0.947987 0.199425
H10   H     H_    0.833061 0.783982 0.817457 0.214654
H11   H     H_    0.861405 0.144516 0.972862 0.198288
H12   H     H_    0.465545 0.458233 0.389762 0.113897
H13   H     H_    0.321647 0.286813 0.806592 0.215795
H14   H     H_    0.935561 0.229597 0.991669 0.198535
H15   H     H_    0.228760 0.360291 0.803848 0.189904
H16   H     H_    0.412159 0.709663 0.952403 0.195792
H17   H     H_    0.748377 0.862675 0.813827 0.195899
H18   H     H_    0.102706 0.416829 0.658256 0.119641
H19   H     H_    0.128054 0.417207 0.515507 0.125105
H20   H     H_    0.374652 0.916884 0.484637 0.124722
H21   H     H_    0.381385 0.917347 0.327073 0.129611
H22   H     H_    0.977770 0.597227 0.396306 0.202638
H23   H     H_    0.008326 0.949164 0.707384 0.112861
H24   H     H_    0.064133 0.637640 0.626737 0.191695
H25   H     H_    0.427573 0.137632 0.364404 0.187780
H26   H     H_    0.527380 0.093889 0.596282 0.201717
H27   H     H_    0.962120 0.348066 0.181986 0.094967
H28   H     H_    0.060856 0.353426 0.827258 0.087995
H29   H     H_    0.476514 0.839165 0.178470 0.091242
H30   H     H_    0.566950 0.865864 0.822419 0.096551
H31   H     H_    0.088002 0.638339 0.486185 0.188284
H32   H     H_    0.954285 0.596285 0.534933 0.197320
H33   H     H_    0.536473 0.094077 0.445323 0.200449
H34   H     H_    0.936746 0.904988 0.495829 0.106645
H35   H     H_    0.418118 0.137154 0.516342 0.184173
H36   H     H_    0.074630 0.587516 0.331944 0.101915
H37   H     H_    0.007296 0.587999 0.718302 0.101082
H38   H     H_    0.465409 0.088384 0.251032 0.109439
H39   H     H_    0.428642 0.087306 0.666941 0.096459
H40   H     H_    0.708939 0.412810 0.721118 0.087562
H41   H     H_    0.271629 0.413247 0.331467 0.091645
H42   H     H_    0.207644 0.913404 0.726956 0.097241
H43   H     H_    0.771163 0.912582 0.329252 0.085944
H44   H     H_    0.067761 0.414656 0.334540 0.082480
H45   H     H_    0.427714 0.592956 0.509476 0.124846
H46   H     H_    0.000094 0.415008 0.705742 0.085607
H47   H     H_    0.476711 0.914111 0.268514 0.092774
H48   H     H_    0.433231 0.914705 0.665815 0.083396
H49   H     H_    0.702384 0.585830 0.725172 0.129373
H50   H     H_    0.266616 0.585054 0.339862 0.122686
H51   H     H_    0.204833 0.086815 0.726619 0.121721
H52   H     H_    0.768773 0.084364 0.341274 0.132736
H53   H     H_    0.786758 0.342383 0.827587 0.095831
H54   H     H_    0.242644 0.366256 0.179590 0.100237
H55   H     H_    0.296196 0.839988 0.823946 0.094740
H56   H     H_    0.506741 0.539912 0.714479 0.114450
H57   H     H_    0.745270 0.869180 0.177528 0.101499
H58   H     H_    0.973846 0.659486 0.179312 0.106705
H59   H     H_    0.052625 0.652816 0.827254 0.098904
H60   H     H_    0.485914 0.163624 0.177962 0.105781
H61   H     H_    0.564248 0.134373 0.820717 0.108103
H62   H     H_    0.391462 0.447674 0.596345 0.113914
H63   H     H_    0.575178 0.550675 0.502612 0.116545
H64   H     H_    0.886461 0.040977 0.599182 0.112675
H65   H     H_    0.082599 0.957693 0.500622 0.114019
H66   H     H_    0.886904 0.644199 0.759975 0.115871
H67   H     H_    0.966149 0.049229 0.397561 0.113198
H68   H     H_    0.793440 0.678937 0.569324 0.106035
H69   H     H_    0.641626 0.726475 0.492366 0.098357
H70   H     H_    0.583093 0.738642 0.607244 0.103774
H71   H     H_    0.674807 0.703399 0.797641 0.122130
H72   H     H_    0.122398 0.690586 0.197593 0.113281
H73   H     H_    0.220385 0.734227 0.380725 0.105387
H74   H     H_    0.394985 0.728902 0.491913 0.095464
H75   H     H_    0.471645 0.678785 0.420191 0.114909
H76   H     H_    0.374859 0.633432 0.239304 0.110747
H77   H     H_    0.395384 0.149175 0.764188 0.110366
H78   H     H_    0.034411 0.093744 0.606592 0.114658
H79   H     H_    0.300409 0.181903 0.571640 0.099488
H80   H     H_    0.144796 0.225452 0.491345 0.097644
H81   H     H_    0.084180 0.235595 0.604466 0.104964
H82   H     H_    0.177052 0.201551 0.796110 0.123074
H83   H     H_    0.633869 0.194610 0.193785 0.114459
H84   H     H_    0.737035 0.236419 0.378236 0.108006
H85   H     H_    0.910052 0.221764 0.491517 0.092910
H86   H     H_    0.980337 0.164886 0.419945 0.113693
H87   H     H_    0.877960 0.121976 0.236630 0.106046
H88   H     H_    0.414903 0.623883 0.100612 0.187346
H89   H     H_    0.664475 0.320571 0.900894 0.134576
H90   H     H_    0.942718 0.806766 0.951677 0.190843
H91   H     H_    0.937266 0.137247 0.126979 0.187495
H92   H     H_    0.430856 0.314856 0.934518 0.192449
H93   H     H_    0.009416 0.222561 0.145949 0.186589
H94   H     H_    0.338271 0.389941 0.930189 0.198608
H95   H     H_    0.501370 0.700088 0.105087 0.188062
H96   H     H_    0.858590 0.886595 0.947204 0.196850
N1    N     N_R   0.892620 0.603790 0.941770 -0.059465
N2    N     N_R   0.973690 0.529110 0.793240 -0.041479
N3    N     N_R   0.526310 0.029110 0.206760 -0.039182
N4    N     N_R   0.473690 0.029110 0.793240 -0.037988
N5    N     N_R   0.818570 0.472310 0.793020 -0.039787
N6    N     N_R   0.181430 0.472310 0.206980 -0.035156
N7    N     N_R   0.318570 0.972310 0.793020 -0.038354
N8    N     N_R   0.681430 0.972310 0.206980 -0.036738
N9    N     N_R   0.026930 0.472300 0.207330 -0.038706
N10   N     N_R   0.973070 0.472300 0.792670 -0.039200
N11   N     N_R   0.526930 0.972300 0.207330 -0.040220
N12   N     N_R   0.107380 0.603790 0.058230 -0.059416
N13   N     N_R   0.473070 0.972300 0.792670 -0.037604
N14   N     N_R   0.817960 0.529130 0.792460 -0.041447
N15   N     N_R   0.182040 0.529130 0.207540 -0.039362
N16   N     N_R   0.317960 0.029130 0.792460 -0.039743
N17   N     N_R   0.682040 0.029130 0.207540 -0.040077
N18   N     N_R   0.894850 0.397640 0.943830 -0.038306
N19   N     N_R   0.105150 0.397640 0.056170 -0.041395
N20   N     N_R   0.394850 0.897640 0.943830 -0.036351
N21   N     N_R   0.605150 0.897640 0.056170 -0.042224
N22   N     N_R   0.950040 0.603780 0.055950 -0.045412
N23   N     N_R   0.392620 0.103790 0.941770 -0.058597
N24   N     N_R   0.049960 0.603780 0.944050 -0.049750
N25   N     N_R   0.450040 0.103780 0.055950 -0.043316
N26   N     N_R   0.549960 0.103780 0.944050 -0.053172
N27   N     N_R   0.607380 0.103790 0.058230 -0.059533
N28   N     N_R   0.952270 0.397640 0.058010 -0.040148
N29   N     N_R   0.047730 0.397640 0.941990 -0.039928
N30   N     N_R   0.452270 0.897640 0.058010 -0.037687
N31   N     N_R   0.547730 0.897640 0.941990 -0.041750
N32   N     N_R   0.026310 0.529110 0.206760 -0.037422
Ni1   Ni    Ni4+2 0.934160 0.565860 0.869070 0.206799
Ni2   Ni    Ni4+2 0.065840 0.565860 0.130930 0.205043
Ni3   Ni    Ni4+2 0.434160 0.065860 0.869070 0.207873
Ni4   Ni    Ni4+2 0.565840 0.065860 0.130930 0.207200
Ni5   Ni    Ni4+2 0.067260 0.435560 0.132230 0.204214
Ni6   Ni    Ni4+2 0.932740 0.435560 0.867770 0.209674
Ni7   Ni    Ni4+2 0.567260 0.935560 0.132230 0.207378
Ni8   Ni    Ni4+2 0.432740 0.935560 0.867770 0.206573

loop_
_geom_bond_atom_site_label_1
_geom_bond_atom_site_label_2
_ccdc_geom_bond_type
C24   C133  A    
C77   H27   S    
C83   C87   A    
N24   Ni1   S    
N23   N25   A    
C78   H28   S    
C87   C91   A    
C41   C42   A    
C5    N19   A    
C118  H24   S    
C19   C20   A    
C51   C61   S    
N25   Ni4   S    
C72   C76   A    
C3    H52   S    
C119  H25   S    
C34   H81   S    
C57   C62   S    
C66   C90   A    
N16   Ni3   S    
C66   C70   A    
N28   Ni5   S    
C128  N7    A    
C45   C129  A    
C74   H2    S    
C72   C115  S    
C45   C57   S    
C26   C27   A    
C50   C54   S    
N7    Ni8   S    
C61   H56   S    
C64   C68   A    
N8    Ni7   S    
C28   C29   A    
C52   C59   S    
N21   Ni7   S    
C5    H54   S    
C18   C19   A    
C69   C93   S    
C10   C15   A    
C132  H47   S    
C106  C110  A    
C38   C39   A    
C13   C123  A    
C131  H46   S    
C70   C104  S    
C23   C49   S    
C14   C49   A    
C3    N17   A    
C96   C102  S    
C126  C130  A    
C78   C93   A    
C71   N27   A    
C119  H33   S    
C24   C124  A    
C136  N16   A    
C35   C125  A    
C67   C72   A    
C15   C60   A    
N18   N28   A    
C89   C94   A    
C59   H45   S    
N27   Ni4   S    
C133  H48   S    
C99   H93   S    
C91   C96   S    
C47   H12   S    
N15   Ni2   S    
C129  N8    A    
C103  C105  A    
C64   C99   S    
C44   C128  A    
C62   C63   S    
C88   C92   A    
C1    N1    A    
C77   N28   A    
C95   H9    S    
N6    N15   A    
N5    N14   A    
N4    Ni3   S    
C54   H65   S    
C8    H58   S    
N5    Ni6   S    
N4    N13   A    
C6    C104  A    
C7    H57   S    
C25   H72   S    
C110  C114  A    
C135  H50   S    
N12   Ni2   S    
C41   H86   S    
C109  C113  A    
C95   H88   S    
C106  C120  S    
N21   N31   A    
C21   H70   S    
C81   H5    S    
N30   Ni7   S    
N8    N17   A    
C74   C85   A    
C112  H18   S    
C21   C22   A    
C7    N21   A    
C102  H96   S    
C124  N4    A    
C97   H11   S    
C134  H49   S    
C105  C117  S    
C80   N31   A    
C20   H69   S    
C113  H19   S    
C30   C36   A    
N26   Ni3   S    
C4    H53   S    
C85   H8    S    
C80   H30   S    
C112  C113  A    
C97   C99   S    
C33   H80   S    
C66   C101  S    
C92   C97   S    
C33   C34   A    
C98   H92   S    
C76   H4    S    
C100  H15   S    
C48   C53   S    
C48   H23   S    
C59   C61   S    
C2    C131  A    
C36   H82   S    
C127  H41   S    
C11   N26   A    
C135  N15   A    
C39   H84   S    
C90   C95   S    
N13   Ni8   S    
C24   C110  S    
C14   C86   S    
C18   H66   S    
C86   C90   A    
C44   C58   S    
C39   C40   A    
C124  H39   S    
C85   C89   A    
C7    C115  A    
N20   Ni8   S    
N2    Ni1   S    
C54   C62   S    
C84   H7    S    
C25   C26   A    
C130  N9    A    
C46   C51   S    
C3    C45   A    
C60   N23   A    
C108  C112  A    
C30   C60   S    
N7    N16   A    
C28   H75   S    
C84   C88   A    
C1    C12   A    
C6    H55   S    
N6    Ni5   S    
C9    C14   A    
C11   H61   S    
C37   C38   A    
C51   H62   S    
C10   H60   S    
C15   C89   S    
C129  H43   S    
C11   C16   A    
C132  N11   A    
C5    C93   A    
C31   C32   A    
C80   C115  A    
C35   C134  A    
C99   H14   S    
C8    C12   A    
C53   H64   S    
C37   C42   A    
C67   C91   A    
C17   C18   A    
C10   N25   A    
C69   C74   A    
C50   H34   S    
C52   H63   S    
C79   H29   S    
C119  C120  S    
C43   C135  A    
C48   C50   S    
C102  H17   S    
N3    N11   A    
N29   Ni6   S    
C111  C116  A    
C130  H44   S    
N1    N22   A    
N19   N29   A    
C46   H1    S    
C123  N3    A    
C43   C55   S    
C40   C41   A    
C97   H91   S    
N2    N10   A    
C76   C83   A    
C98   C100  S    
C37   C71   S    
C136  H51   S    
N31   Ni8   S    
C2    C108  S    
C78   N29   A    
C79   C104  A    
C9    N24   A    
C128  H42   S    
N18   Ni6   S    
C43   C127  A    
C42   H87   S    
N14   Ni1   S    
N32   Ni2   S    
C55   C59   S    
C27   C28   A    
C49   N12   A    
C125  N5    A    
N17   Ni4   S    
C29   H76   S    
C47   C55   S    
C54   C58   S    
N3    Ni4   S    
C105  C109  A    
C46   C47   S    
N22   Ni2   S    
C53   C57   S    
C73   C84   A    
C12   C87   S    
C122  N2    A    
C35   C56   S    
C50   C57   S    
C107  C111  A    
C38   H83   S    
C114  H20   S    
C75   C81   A    
C81   C86   A    
C65   C100  S    
C131  N10   A    
N9    N32   A    
C83   H6    S    
C114  C116  A    
C23   C29   A    
C58   C63   S    
C44   C136  A    
C48   C58   S    
C47   C52   S    
C31   H77   S    
C120  H26   S    
N20   N30   A    
C122  H37   S    
C96   H10   S    
C101  H16   S    
C1    C17   S    
C17   C22   A    
C107  C119  S    
C120  H35   S    
C6    N20   A    
C40   H85   S    
C68   C82   S    
C32   C33   A    
C118  H32   S    
C100  H94   S    
N26   N27   A    
C68   C73   A    
C4    N18   A    
C121  C126  A    
C121  N32   A    
C75   H3    S    
C9    H59   S    
C123  H38   S    
C73   H89   S    
C117  H22   S    
C53   C63   S    
C30   C31   A    
N23   Ni3   S    
C77   C82   A    
C117  H31   S    
C65   C69   A    
C16   C71   A    
C8    N22   A    
C19   H68   S    
C65   C94   A    
C13   C132  A    
N9    Ni5   S    
C22   H71   S    
C26   H73   S    
C51   C55   S    
C27   H74   S    
C63   H78   S    
N10   Ni6   S    
C2    C122  A    
N11   Ni7   S    
C62   H67   S    
C101  H95   S    
C32   H79   S    
N1    Ni1   S    
C103  C118  S    
C52   C56   S    
C109  C126  S    
C116  H21   S    
C23   C25   A    
C4    C82   A    
C20   C21   A    
C34   C36   A    
C127  N6    A    
C13   C111  S    
C106  C107  A    
C46   C56   S    
C70   C75   A    
C16   C88   S    
C79   N30   A    
C94   C98   S    
C56   C61   S    
C103  C108  A    
N19   Ni5   S    
N12   N24   A    
C64   C92   A    
C96   H90   S    
C121  H36   S    
C117  C118  S    
C125  H40   S    
C134  N14   A    
C95   C101  S    
C67   C102  S    
C133  N13   A    
C98   H13   S    
