data_mof_unit_22027.cif
_audit_creation_date              2012-12-10T19:03:03-0500
_audit_creation_method            fapswitch 2.2
_symmetry_space_group_name_H-M    P1
_symmetry_Int_Tables_number       1
_space_group_crystal_system       triclinic
_cell_length_a                    10.82
_cell_length_b                    10.886322
_cell_length_c                    9.591497
_cell_angle_alpha                 89.788389
_cell_angle_beta                  88.15959
_cell_angle_gamma                 92.117671
_cell_volume                      1128.41501943

loop_
_atom_site_label
_atom_site_type_symbol
_atom_type_description
_atom_site_fract_x
_atom_site_fract_y
_atom_site_fract_z
_atom_type_partial_charge
C1    C     C_R   0.494344 0.262819 0.500390 0.798115
C2    C     C_3   0.878300 0.494787 0.495490 0.079070
C3    C     C_3   0.933248 0.613875 0.561247 -0.348738
C4    C     C_3   0.936619 0.475017 0.345626 -0.098923
C5    C     C_R   0.476741 0.061853 0.622895 0.059333
C6    C     C_R   0.481265 0.130109 0.500233 -0.121413
C7    C     C_R   0.470754 0.064377 0.374431 -0.185258
C8    C     C_R   0.467085 0.935278 0.375639 -0.157509
C9    C     C_R   0.480254 0.869438 0.500705 -0.124192
C10   C     C_R   0.478244 0.937468 0.623086 0.045821
C11   C     C_3   0.483045 0.929216 0.778174 -0.019041
C12   C     C_R   0.259949 0.492012 0.501827 0.759091
C13   C     C_3   0.481515 0.071614 0.777838 -0.011268
C14   C     C_R   0.602436 0.539621 0.068710 0.139792
C15   C     C_R   0.399881 0.457829 0.078009 -0.069105
C16   C     C_R   0.398781 0.461330 0.930082 -0.112426
C17   C     C_R   0.605652 0.530165 0.921551 0.243865
C18   C     C_3   0.677480 0.647309 0.901109 -0.529052
C19   C     C_3   0.658018 0.668672 0.055752 -0.227573
C20   C     C_R   0.493689 0.737031 0.500275 0.820692
C21   C     C_R   0.740147 0.498833 0.497960 0.768563
C22   C     C_3   0.059433 0.375298 0.585801 0.022469
C23   C     C_3   0.916233 0.385112 0.587326 -0.400327
C24   C     C_3   0.075338 0.611126 0.562473 -0.358836
C25   C     C_3   0.078438 0.475197 0.351149 -0.437646
C26   C     C_3   0.121587 0.487820 0.503626 0.124942
Cu1   Cu    Cu3+1 0.499990 0.499980 0.640670 0.923680
Cu2   Cu    Cu3+1 0.500010 0.500020 0.359330 0.940136
H1    H     H_    0.115626 0.689030 0.498275 0.171746
H2    H     H_    0.904304 0.696847 0.505073 0.206077
H3    H     H_    0.465933 0.111813 0.275395 0.175118
H4    H     H_    0.453185 0.887778 0.279361 0.180199
H5    H     H_    0.572837 0.897056 0.812603 0.165680
H6    H     H_    0.569924 0.115769 0.811543 0.155676
H7    H     H_    0.318155 0.423643 0.135444 0.138413
H8    H     H_    0.082536 0.290110 0.527921 0.143131
H9    H     H_    0.315388 0.433472 0.879265 0.140860
H10   H     H_    0.775527 0.631044 0.871732 0.172952
H11   H     H_    0.632460 0.710988 0.830813 0.220859
H12   H     H_    0.744785 0.686478 0.108783 0.215107
H13   H     H_    0.873525 0.297705 0.548335 0.133532
H14   H     H_    0.878886 0.396947 0.695872 0.196838
H15   H     H_    0.106946 0.625822 0.670497 0.165698
H16   H     H_    0.897264 0.622693 0.670286 0.152667
H17   H     H_    0.122103 0.551338 0.286315 0.210593
H18   H     H_    0.111548 0.388264 0.304516 0.131033
H19   H     H_    0.903477 0.382858 0.309050 0.090108
N1    N     N_R   0.500800 0.500930 0.147930 -0.193893
N2    N     N_R   0.500800 0.500890 0.852020 -0.182954
O1    O     O_R   0.500000 0.319640 0.618810 -0.582744
O2    O     O_R   0.500010 0.319680 0.381230 -0.582800
O3    O     O_R   0.317690 0.499960 0.618790 -0.585422
O4    O     O_R   0.317700 0.500000 0.381210 -0.605782
O5    O     O_R   0.499990 0.680320 0.618770 -0.588450
O6    O     O_R   0.500000 0.680360 0.381190 -0.584096
O7    O     O_R   0.682300 0.500000 0.618790 -0.586273
O8    O     O_R   0.682310 0.500040 0.381210 -0.582103
C27   C     C_3   0.104449 0.356240 0.734144 -0.902368
H20   H     H_    0.100656 0.441998 0.795963 0.244247
H21   H     H_    0.046188 0.283792 0.788949 0.233714
H22   H     H_    0.199627 0.322425 0.728860 0.237441
C28   C     C_2   0.902967 0.565739 0.236264 0.356956
H23   H     H_    0.867060 0.530922 0.139216 0.044171
O9    O     O_2   0.925124 0.675801 0.250049 -0.570122
C29   C     C_3   0.369633 0.858914 0.843627 -0.784618
H24   H     H_    0.283922 0.877763 0.787756 0.230672
H25   H     H_    0.383941 0.758623 0.839510 0.237960
H26   H     H_    0.356688 0.885125 0.954617 0.233937
C30   C     C_3   0.366840 0.129255 0.844078 -0.807996
H27   H     H_    0.374167 0.229689 0.828519 0.238028
H28   H     H_    0.280161 0.094282 0.796657 0.235415
H29   H     H_    0.362305 0.110718 0.958038 0.234627
C31   C     C_2   0.568687 0.767891 0.083249 0.421220
H30   H     H_    0.470558 0.745791 0.098191 0.072013
O10   O     O_2   0.606117 0.875051 0.083389 -0.571325

loop_
_geom_bond_atom_site_label_1
_geom_bond_atom_site_label_2
_ccdc_geom_bond_type
C3    H2    S    
C31   H30   S    
C4    C25   S    
Cu1   O5    S    
C7    C8    A    
Cu2   O8    S    
C23   H14   S    
C24   C26   S    
C5    C6    A    
Cu2   O2    S    
C27   H21   S    
C15   C16   A    
C4    C28   S    
C18   C19   S    
C30   H28   S    
C24   H1    S    
C28   O9    D    
C8    C9    A    
C29   H25   S    
C1    O1    A    
C5    C13   S    
C12   O4    A    
Cu1   O1    S    
C16   H9    S    
C27   H22   S    
C31   O10   D    
C14   C17   A    
C3    C24   S    
C15   N1    A    
C20   O6    A    
C15   H7    S    
C12   O3    A    
Cu2   O6    S    
C3    H16   S    
C7    H3    S    
C1    C6    S    
C8    H4    S    
C11   H5    S    
C16   N2    A    
C20   O5    A    
C19   H12   S    
C17   N2    A    
Cu1   O7    S    
C14   N1    A    
C27   H20   S    
C12   C26   S    
C30   H29   S    
C2    C4    S    
C18   H11   S    
C21   O8    A    
C28   H23   S    
C9    C20   S    
C19   C31   S    
C29   H26   S    
C2    C21   S    
C17   C18   S    
C25   C26   S    
C1    O2    A    
C25   H17   S    
Cu1   Cu2   S    
Cu1   O3    S    
C9    C10   A    
Cu2   N1    S    
C14   C19   S    
C22   C27   S    
C21   O7    A    
Cu2   O4    S    
C6    C7    A    
C22   H8    S    
C23   H13   S    
C2    C3    S    
C18   H10   S    
C13   H6    S    
C11   C13   S    
C13   C30   S    
C30   H27   S    
C10   C11   S    
C11   C29   S    
C5    C10   A    
C29   H24   S    
C22   C26   S    
C2    C23   S    
C24   H15   S    
C22   C23   S    
C25   H18   S    
Cu1   N2    S    
C4    H19   S    
