data_mof_unit_55109.cif
_audit_creation_date              2012-12-11T16:53:32-0500
_audit_creation_method            fapswitch 2.2
_symmetry_space_group_name_H-M    P1
_symmetry_Int_Tables_number       1
_space_group_crystal_system       triclinic
_cell_length_a                    14.970675
_cell_length_b                    14.793197
_cell_length_c                    17.073245
_cell_angle_alpha                 108.741238
_cell_angle_beta                  106.516212
_cell_angle_gamma                 108.309553
_cell_volume                      3071.48994059

loop_
_atom_site_label
_atom_site_type_symbol
_atom_type_description
_atom_site_fract_x
_atom_site_fract_y
_atom_site_fract_z
_atom_type_partial_charge
C1    C     C_R   0.086524 0.283769 0.073340 -0.140401
C2    C     C_R   0.027668 0.490795 0.724140 0.093702
C3    C     C_R   0.669708 0.212098 0.742027 0.068902
C4    C     C_R   0.300258 0.469896 0.975524 0.077733
C5    C     C_R   0.220551 0.701941 0.264783 -0.127289
C6    C     C_R   0.703939 0.494334 0.910215 0.313625
C7    C     C_R   0.891621 0.394044 0.174315 -0.123868
C8    C     C_R   0.083342 0.803622 0.010289 -0.130512
C9    C     C_R   0.912109 0.720967 0.937013 -0.118270
C10   C     C_R   0.064320 0.476791 0.250634 -0.141551
C11   C     C_R   0.227546 0.799187 0.188113 -0.129420
C12   C     C_R   0.935384 0.464832 0.734263 -0.133178
C13   C     C_R   0.696559 0.404641 0.992437 -0.187724
C14   C     C_R   0.245903 0.804705 0.274608 0.060134
C15   C     C_R   0.636176 0.431753 0.933458 0.028045
C16   C     C_R   0.973368 0.413822 0.250661 0.065242
C17   C     C_R   0.997500 0.818101 0.970742 0.052215
C18   C     C_R   0.392887 0.459362 0.876204 0.124600
C19   C     C_R   0.359405 0.425448 0.934438 0.046980
C20   C     C_R   0.388177 0.350857 0.954106 -0.206122
C21   C     C_R   0.469094 0.335031 0.935971 -0.177830
C22   C     C_R   0.522513 0.395714 0.900104 0.002771
C23   C     C_R   0.723555 0.212042 0.822547 -0.128010
C24   C     C_R   0.469102 0.440340 0.853827 0.144737
C25   C     C_3   0.500192 0.541140 0.841535 0.119669
C26   C     C_3   0.422011 0.563221 0.873057 -0.606404
C27   C     C_R   0.966286 0.371611 0.316440 0.122019
C28   C     C_R   0.038268 0.453148 0.638420 0.077432
C29   C     C_R   0.146266 0.466698 0.555898 0.287648
C30   C     C_R   0.136645 0.489209 0.638001 -0.213691
C31   C     C_R   0.949456 0.383332 0.556130 -0.280078
C32   C     C_R   0.956342 0.363461 0.473615 0.140180
C33   C     C_R   0.054729 0.407500 0.472993 0.126129
C34   C     C_R   0.269663 0.544121 0.959963 -0.134187
C35   C     C_R   0.057800 0.402391 0.391097 -0.264984
C36   C     C_R   0.869518 0.317490 0.314457 -0.170419
C37   C     C_R   0.864881 0.310601 0.392469 -0.192547
C38   C     C_R   0.561399 0.138769 0.676040 0.129019
C39   C     C_R   0.290160 0.900717 0.361224 0.136897
C40   C     C_R   0.395743 0.091582 0.448519 -0.229587
C41   C     C_R   0.331235 0.002044 0.364990 -0.181134
C42   C     C_R   0.305146 0.891445 0.442729 -0.277870
C43   C     C_R   0.378433 0.978607 0.525698 0.186078
C44   C     C_R   0.426182 0.078728 0.527898 0.195129
C45   C     C_R   0.731208 0.305318 0.743394 -0.126562
C46   C     C_R   0.513644 0.160077 0.605339 -0.282557
C47   C     C_R   0.508252 0.042888 0.677682 -0.174246
C48   C     C_R   0.415103 0.963932 0.603485 -0.220606
C49   C     C_R   0.085820 0.110943 0.133298 0.168510
C50   C     C_R   0.995679 0.108151 0.077478 0.017672
C51   C     C_R   0.900598 0.026359 0.059950 -0.203420
C52   C     C_R   0.900151 0.954621 0.098999 -0.192654
C53   C     C_R   0.993988 0.961633 0.155590 0.022627
C54   C     C_R   0.084651 0.041483 0.169652 0.187991
C55   C     C_3   0.199797 0.088571 0.216369 -0.508132
C56   C     C_R   0.258830 0.442442 0.032287 -0.132005
C57   C     C_3   0.201783 0.168492 0.176733 -0.537366
C58   C     C_R   0.108615 0.557089 0.810883 -0.136071
C59   C     C_R   0.914290 0.199081 0.995022 -0.118269
C60   C     C_R   0.999479 0.188747 0.043079 0.069084
H1    H     H_    0.163274 0.310985 0.124795 0.096399
H2    H     H_    0.811095 0.337015 0.146263 0.083076
H3    H     H_    0.163353 0.859147 0.033839 0.089209
H4    H     H_    0.833520 0.701551 0.894999 0.109918
H5    H     H_    0.143130 0.496032 0.292645 0.085265
H6    H     H_    0.240165 0.864250 0.170510 0.085340
H7    H     H_    0.668421 0.345277 0.014690 0.104974
H8    H     H_    0.357467 0.314060 0.992161 0.125249
H9    H     H_    0.498242 0.287784 0.962509 0.123679
H10   H     H_    0.579732 0.605114 0.890634 0.132362
H11   H     H_    0.856767 0.418881 0.681519 0.091556
H12   H     H_    0.460275 0.632232 0.942279 0.175892
H13   H     H_    0.357459 0.563804 0.821452 0.204499
H14   H     H_    0.131872 0.435005 0.389204 0.137234
H15   H     H_    0.797227 0.287969 0.255931 0.110945
H16   H     H_    0.789339 0.274784 0.391989 0.122985
H17   H     H_    0.206304 0.539243 0.701288 0.120178
H18   H     H_    0.873366 0.351075 0.555205 0.126910
H19   H     H_    0.549868 0.235319 0.604652 0.116526
H20   H     H_    0.693817 0.159335 0.850222 0.082683
H21   H     H_    0.541252 0.025585 0.732920 0.114452
H22   H     H_    0.431651 0.168235 0.449460 0.127948
H23   H     H_    0.378394 0.887810 0.603124 0.129075
H24   H     H_    0.321648 0.011854 0.303886 0.116535
H25   H     H_    0.270722 0.814721 0.441703 0.119344
H26   H     H_    0.826548 0.017754 0.017348 0.124785
H27   H     H_    0.826799 0.893477 0.085106 0.131946
H28   H     H_    0.229871 0.125669 0.292154 0.202578
H29   H     H_    0.229626 0.033134 0.185873 0.180846
H30   H     H_    0.232377 0.251327 0.230215 0.193387
H31   H     H_    0.293633 0.590534 0.927022 0.103228
H32   H     H_    0.234478 0.159877 0.125384 0.194767
H33   H     H_    0.709983 0.337000 0.696237 0.089371
H34   H     H_    0.267767 0.387894 0.059759 0.093180
H35   H     H_    0.188593 0.602897 0.827088 0.081353
H36   H     H_    0.833303 0.148322 0.973608 0.083081
H37   H     H_    0.225636 0.674979 0.316789 0.095903
N1    N     N_R   0.055640 0.348550 0.045600 -0.038900
N2    N     N_R   0.798340 0.505430 0.954400 -0.051620
N3    N     N_R   0.931580 0.439470 0.128350 -0.037647
N4    N     N_R   0.051950 0.704140 0.002340 -0.040307
N5    N     N_R   0.944360 0.651450 0.954400 -0.041137
N6    N     N_R   0.039170 0.492150 0.176290 -0.038424
N7    N     N_R   0.188710 0.696600 0.128350 -0.041305
N8    N     N_R   0.794820 0.447010 0.002340 -0.052947
N9    N     N_R   0.960830 0.507850 0.823710 -0.042114
N10   N     N_R   0.811290 0.303400 0.871650 -0.036827
N11   N     N_R   0.205180 0.552990 0.997660 -0.042043
N12   N     N_R   0.814810 0.361830 0.823710 -0.036159
N13   N     N_R   0.201660 0.494570 0.045600 -0.040411
N14   N     N_R   0.068420 0.560530 0.871650 -0.038733
N15   N     N_R   0.948050 0.295860 0.997660 -0.039463
N16   N     N_R   0.185190 0.638170 0.176290 -0.042038
Ni1   Ni    Ni4+2 0.119330 0.493420 0.109950 0.209324
Ni2   Ni    Ni4+2 0.880670 0.506580 0.890050 0.206929
Ni3   Ni    Ni4+2 0.872590 0.372590 0.000000 0.205477
Ni4   Ni    Ni4+2 0.127410 0.627410 0.000000 0.211365
C61   C     C_3   0.677554 0.495993 0.819458 -1.087144
H38   H     H_    0.607073 0.421901 0.766172 0.263547
H39   H     H_    0.671867 0.569427 0.823182 0.248271
H40   H     H_    0.741355 0.499896 0.798333 0.251630
C62   C     C_3   0.466856 0.520327 0.740534 -0.962108
H41   H     H_    0.510332 0.487250 0.707524 0.253295
H42   H     H_    0.383260 0.462362 0.698314 0.264315
H43   H     H_    0.479295 0.596775 0.737204 0.248124
C63   C     C_3   0.253125 0.515743 0.559259 -1.066867
H44   H     H_    0.314507 0.562532 0.630506 0.259377
H45   H     H_    0.270771 0.452096 0.521651 0.259669
H46   H     H_    0.256898 0.571808 0.528550 0.250403

loop_
_geom_bond_atom_site_label_1
_geom_bond_atom_site_label_2
_ccdc_geom_bond_type
C35   H14   S    
N4    N5    A    
C57   H32   S    
C9    H4    S    
C26   H12   S    
N8    Ni3   S    
C3    C23   A    
C19   C20   A    
N3    Ni3   S    
C58   H35   S    
C2    C12   A    
C39   C41   A    
C53   C54   A    
C56   H34   S    
C63   H44   S    
C18   C24   A    
C36   C37   A    
N16   Ni1   S    
C20   H8    S    
C46   H19   S    
C11   C14   A    
C45   N12   A    
N1    Ni1   S    
C49   C54   A    
C29   C33   A    
C26   H13   S    
C49   C57   S    
C18   C19   A    
C55   H28   S    
C61   H38   S    
N5    Ni2   S    
C14   C39   S    
C34   H31   S    
C30   H17   S    
C15   C22   S    
C31   C32   A    
C3    C38   S    
C9    N5    A    
C18   C26   S    
C11   N7    A    
C23   H20   S    
C25   C62   S    
N13   Ni1   S    
C11   H6    S    
C16   C27   S    
C6    C15   A    
C45   H33   S    
C59   C60   A    
C21   C22   A    
C4    C56   A    
C34   N11   A    
C4    C19   S    
C51   H26   S    
C56   N13   A    
C44   C46   A    
C59   N15   A    
C39   C42   A    
N9    N14   A    
C52   H27   S    
N2    N8    A    
C4    C34   A    
N1    N15   A    
C57   H30   S    
C51   C52   A    
C40   H22   S    
N6    Ni1   S    
C24   C25   S    
C13   N8    A    
C7    N3    A    
C1    C60   A    
C63   H46   S    
C27   C35   A    
C25   C26   S    
C41   H24   S    
C3    C45   A    
N3    N6    A    
C58   N14   A    
C21   H9    S    
C61   H40   S    
C43   C44   A    
C7    H2    S    
C29   C30   A    
C36   H15   S    
C47   C48   A    
C43   C48   A    
C23   N10   A    
C50   C51   A    
C5    C14   A    
C42   H25   S    
C32   C37   A    
C10   N6    A    
C38   C47   A    
C9    C17   A    
C40   C41   A    
C12   H11   S    
C5    H37   S    
C55   C57   S    
C22   C24   A    
C42   C43   A    
C62   H42   S    
N15   Ni3   S    
C52   C53   A    
C31   H18   S    
N7    Ni4   S    
C13   H7    S    
C10   H5    S    
C54   C55   S    
C7    C16   A    
C63   H45   S    
C5    N16   A    
N11   Ni4   S    
C37   H16   S    
C28   C31   A    
C1    H1    S    
C1    N1    A    
C2    C58   A    
C8    N4    A    
C27   C36   A    
C8    C17   A    
C48   H23   S    
N9    Ni2   S    
N14   Ni4   S    
N4    Ni4   S    
C32   C33   A    
C62   H43   S    
C13   C15   A    
C50   C60   S    
C55   H29   S    
C10   C16   A    
C6    N2    A    
C12   N9    A    
N10   N12   A    
N2    Ni2   S    
C28   C30   A    
C33   C35   A    
N11   N13   A    
C47   H21   S    
C61   H39   S    
N10   Ni3   S    
C38   C46   A    
N12   Ni2   S    
C8    H3    S    
N7    N16   A    
C40   C44   A    
C20   C21   A    
C49   C50   A    
C59   H36   S    
C2    C28   S    
C25   H10   S    
C62   H41   S    
C29   C63   S    
C6    C61   S    
