data_mof_unit_35907.cif
_audit_creation_date              2012-12-10T17:15:56-0500
_audit_creation_method            fapswitch 2.2
_symmetry_space_group_name_H-M    P1
_symmetry_Int_Tables_number       1
_space_group_crystal_system       triclinic
_cell_length_a                    10.087087
_cell_length_b                    10.730292
_cell_length_c                    10.840067
_cell_angle_alpha                 89.868884
_cell_angle_beta                  95.213421
_cell_angle_gamma                 81.811066
_cell_volume                      1156.39492853

loop_
_atom_site_label
_atom_site_type_symbol
_atom_type_description
_atom_site_fract_x
_atom_site_fract_y
_atom_site_fract_z
_atom_type_partial_charge
C1    C     C_R   0.443760 0.505222 0.267388 0.953686
C2    C     C_2   0.486836 0.465996 0.934109 -0.146554
C3    C     C_2   0.072917 0.489559 0.490250 -0.115235
C4    C     C_R   0.503025 0.260107 0.512505 0.873714
C5    C     C_2   0.927020 0.510691 0.509520 -0.144822
C6    C     C_R   0.556135 0.488592 0.732634 0.942345
C7    C     C_R   0.499662 0.740443 0.491352 0.886134
C8    C     C_R   0.758507 0.082792 0.558345 -0.170357
C9    C     C_R   0.875898 0.011664 0.524695 -0.197867
C10   C     C_R   0.868064 0.902343 0.457220 0.055166
C11   C     C_R   0.744549 0.857449 0.436184 -0.206906
C12   C     C_R   0.631294 0.045136 0.524324 0.103912
C13   C     C_R   0.626619 0.923198 0.481179 0.082140
C14   C     C_1   0.986472 0.836724 0.408788 0.104615
C15   C     C_R   0.507952 0.126335 0.526774 -0.120041
C16   C     C_R   0.385747 0.079077 0.518936 -0.219218
C17   C     C_R   0.384177 0.952946 0.502598 -0.204730
C18   C     C_R   0.503389 0.873934 0.484702 -0.121869
C19   C     C_2   0.411564 0.498135 0.135687 -0.375470
C20   C     C_2   0.511882 0.462209 0.065945 -0.147840
C21   C     C_2   0.587908 0.471816 0.864342 -0.379949
H1    H     H_    0.290720 0.139637 0.523417 0.168062
H2    H     H_    0.382950 0.472097 0.894586 0.188795
H3    H     H_    0.691523 0.465929 0.904283 0.150855
H4    H     H_    0.119482 0.616109 0.613783 0.165726
H5    H     H_    0.615421 0.437224 0.105482 0.189161
H6    H     H_    0.308306 0.523270 0.095733 0.153187
H7    H     H_    0.890294 0.579821 0.575914 0.170947
H8    H     H_    0.109531 0.420927 0.423375 0.160910
H9    H     H_    0.880642 0.383345 0.386769 0.164917
H10   H     H_    0.768287 0.167429 0.610374 0.163478
H11   H     H_    0.971774 0.044713 0.546864 0.135858
H12   H     H_    0.741651 0.775094 0.379397 0.174227
H13   H     H_    0.288704 0.917765 0.502807 0.180695
N1    N     N_2   0.157290 0.551390 0.551110 -0.188211
N2    N     N_2   0.842740 0.448550 0.448960 -0.201989
N3    N     N_1   0.081498 0.784497 0.369266 -0.186940
O1    O     O_R   0.568950 0.489660 0.307530 -0.614123
O2    O     O_R   0.348880 0.522640 0.340350 -0.602588
O3    O     O_R   0.610060 0.300270 0.483590 -0.619973
O4    O     O_R   0.389990 0.333260 0.516410 -0.623427
O5    O     O_R   0.651120 0.477360 0.659650 -0.619134
O6    O     O_R   0.431050 0.510340 0.692470 -0.612745
O7    O     O_R   0.610010 0.666740 0.483590 -0.630028
O8    O     O_R   0.389940 0.699730 0.516410 -0.602084
Zn1   Zn    Zn3+2 0.646940 0.477980 0.478090 0.930887
Zn2   Zn    Zn3+2 0.353060 0.522020 0.521910 0.952680

loop_
_geom_bond_atom_site_label_1
_geom_bond_atom_site_label_2
_ccdc_geom_bond_type
N2    Zn1   S    
C3    N1    D    
C5    H7    S    
C19   H6    S    
C9    C10   A    
C19   C20   D    
C12   C15   A    
H9    N2    S    
C8    C12   A    
C7    C18   S    
N1    Zn2   S    
C2    C21   D    
C17   C18   A    
O4    Zn2   S    
C4    O4    A    
C7    O7    A    
C6    C21   S    
C14   N3    T    
O3    Zn1   S    
C11   C13   A    
C3    H8    S    
C20   H5    S    
C13   C18   A    
C4    C15   S    
C7    O8    A    
O7    Zn1   S    
O6    Zn2   S    
C6    O6    A    
O8    Zn2   S    
O5    Zn1   S    
C1    C19   S    
O1    Zn1   S    
C17   H13   S    
C1    O2    A    
C2    C20   S    
C15   C16   A    
C5    N2    D    
C11   H12   S    
C12   C13   A    
O2    Zn2   S    
C10   C11   A    
C21   H3    S    
C2    H2    S    
H4    N1    S    
C16   C17   A    
C16   H1    S    
C9    H11   S    
C8    H10   S    
C6    O5    A    
C1    O1    A    
C4    O3    A    
C10   C14   S    
C8    C9    A    
C3    C5    S    
