data_mof_unit_39735.cif
_audit_creation_date              2012-12-10T17:40:28-0500
_audit_creation_method            fapswitch 2.2
_symmetry_space_group_name_H-M    P1
_symmetry_Int_Tables_number       1
_space_group_crystal_system       triclinic
_cell_length_a                    13.85086
_cell_length_b                    15.014372
_cell_length_c                    15.821443
_cell_angle_alpha                 86.880098
_cell_angle_beta                  70.628159
_cell_angle_gamma                 86.944862
_cell_volume                      3097.21224728

loop_
_atom_site_label
_atom_site_type_symbol
_atom_type_description
_atom_site_fract_x
_atom_site_fract_y
_atom_site_fract_z
_atom_type_partial_charge
C1    C     C_R   0.497333 0.670745 0.501360 0.807087
C2    C     C_R   0.502812 0.329260 0.498325 0.810227
C3    C     C_R   0.372790 0.532335 0.093791 -0.228838
C4    C     C_R   0.619485 0.547713 0.905292 -0.234038
C5    C     C_R   0.302623 0.529981 0.048631 -0.233172
C6    C     C_R   0.689594 0.549587 0.950566 -0.230081
C7    C     C_R   0.505810 0.183867 0.571035 -0.306237
C8    C     C_R   0.495914 0.815911 0.427758 -0.310696
C9    C     C_R   0.509445 0.232969 0.493348 -0.078452
C10   C     C_R   0.491144 0.767027 0.505875 -0.067804
C11   C     C_R   0.513479 0.191182 0.414623 0.109334
C12   C     C_R   0.487564 0.808937 0.584388 0.106405
C13   C     C_R   0.508905 0.096764 0.417435 0.047940
C14   C     C_R   0.492969 0.903232 0.581219 0.047428
C15   C     C_R   0.503556 0.046854 0.497782 0.006919
C16   C     C_R   0.498620 0.953041 0.500754 0.008891
C17   C     C_R   0.503198 0.090815 0.575102 0.063844
C18   C     C_R   0.499362 0.908990 0.423356 0.063304
C19   C     C_R   0.509130 0.051404 0.341911 -0.216739
C20   C     C_R   0.493628 0.948517 0.656500 -0.218171
C21   C     C_R   0.504814 0.958341 0.342971 0.145063
C22   C     C_R   0.499009 0.041425 0.655146 0.147152
C23   C     C_R   0.437762 0.501164 0.671923 0.773808
C24   C     C_R   0.562001 0.501813 0.328019 0.773851
C25   C     C_R   0.223054 0.560776 0.443802 0.287169
C26   C     C_R   0.780168 0.438121 0.553209 0.280026
C27   C     C_R   0.186850 0.446268 0.559595 -0.036490
C28   C     C_R   0.809392 0.561005 0.447130 -0.042822
C29   C     C_R   0.083011 0.449074 0.563861 -0.000644
C30   C     C_R   0.912318 0.562115 0.445312 -0.000060
C31   C     C_R   0.049909 0.505432 0.503706 0.063235
C32   C     C_R   0.946062 0.506190 0.505184 0.069597
C33   C     C_R   0.120190 0.560795 0.442007 -0.002185
C34   C     C_R   0.877112 0.448413 0.564338 -0.034252
C35   C     C_R   0.011144 0.397097 0.627850 -0.202036
C36   C     C_R   0.982521 0.617206 0.384031 -0.208271
C37   C     C_R   0.909661 0.397589 0.628976 -0.211074
C38   C     C_R   0.084551 0.615849 0.381373 -0.208528
C39   C     C_R   0.401100 0.508395 0.769713 -0.053479
C40   C     C_R   0.597400 0.510269 0.229800 -0.049159
C41   C     C_R   0.264164 0.516923 0.911850 -0.202334
C42   C     C_R   0.730786 0.535649 0.087585 -0.203575
C43   C     C_R   0.296500 0.508835 0.819289 -0.197836
C44   C     C_R   0.700554 0.522833 0.180388 -0.198353
C45   C     C_R   0.472521 0.517752 0.813317 -0.262258
C46   C     C_R   0.525136 0.510545 0.185616 -0.269742
C47   C     C_R   0.442043 0.527117 0.906369 0.087927
C48   C     C_R   0.552880 0.527117 0.092618 0.089740
C49   C     C_R   0.335997 0.524875 0.955809 0.169267
C50   C     C_R   0.658005 0.537545 0.043381 0.167958
C51   C     C_R   0.514160 0.535221 0.951807 0.065006
C52   C     C_R   0.479533 0.531099 0.047155 0.067772
Cu1   Cu    Cu3+1 0.402580 0.500010 0.499990 0.921382
Cu2   Cu    Cu3+1 0.597420 0.499990 0.500010 0.928755
H1    H     H_    0.221583 0.530422 0.086952 0.141585
H2    H     H_    0.769535 0.559188 0.912358 0.143453
H3    H     H_    0.211980 0.402196 0.605304 0.137854
H4    H     H_    0.782900 0.606550 0.403357 0.139967
H5    H     H_    0.033483 0.355320 0.676793 0.135686
H6    H     H_    0.959051 0.660589 0.336775 0.135926
H7    H     H_    0.857094 0.356918 0.680698 0.158379
H8    H     H_    0.133851 0.659172 0.330585 0.152942
H9    H     H_    0.447621 0.495920 0.225226 0.153214
H10   H     H_    0.552031 0.515726 0.773161 0.156128
H11   H     H_    0.757693 0.523172 0.213353 0.152815
H12   H     H_    0.239794 0.502465 0.786739 0.154383
H13   H     H_    0.340455 0.537369 0.165455 0.136851
H14   H     H_    0.650404 0.558658 0.833674 0.142506
H15   H     H_    0.511927 0.088722 0.281429 0.175283
H16   H     H_    0.490856 0.911260 0.717003 0.176595
N1    N     N_R   0.256170 0.500070 0.500040 -0.199065
N2    N     N_R   0.743830 0.499930 0.499960 -0.191809
O1    O     O_R   0.417730 0.629750 0.499970 -0.591883
O2    O     O_R   0.582270 0.370250 0.500030 -0.591267
O3    O     O_R   0.582270 0.629730 0.499980 -0.576397
O4    O     O_R   0.417730 0.370270 0.500020 -0.571843
O5    O     O_R   0.371590 0.500020 0.629830 -0.584924
O6    O     O_R   0.628410 0.499980 0.370170 -0.584176
O7    O     O_R   0.536130 0.499990 0.629840 -0.569533
O8    O     O_R   0.463870 0.500010 0.370160 -0.606507
C53   C     C_3   0.290602 0.634019 0.387196 -0.361102
C54   C     C_3   0.256790 0.725948 0.427136 -0.838548
H17   H     H_    0.260465 0.726113 0.496141 0.273395
H18   H     H_    0.308164 0.777203 0.385092 0.230890
H19   H     H_    0.177507 0.745561 0.430203 0.246394
H20   H     H_    0.371399 0.625022 0.377597 0.255603
H21   H     H_    0.290884 0.634577 0.317028 0.144773
C55   C     C_3   0.735931 0.345758 0.581029 -0.323293
C56   C     C_3   0.652401 0.340347 0.672810 -0.798190
H22   H     H_    0.662836 0.390617 0.717625 0.236614
H23   H     H_    0.656299 0.273305 0.705044 0.209159
H24   H     H_    0.575417 0.348678 0.666482 0.259115
H25   H     H_    0.717923 0.314664 0.527288 0.214684
H26   H     H_    0.797414 0.296493 0.584252 0.152333
H27   H     H_    0.182953 0.516067 0.949262 0.130006
H28   H     H_    0.811105 0.544457 0.050324 0.130109
H29   H     H_    0.502442 0.220365 0.629016 0.130973
H30   H     H_    0.498926 0.779127 0.369930 0.130888
C57   C     C_3   0.525888 0.247795 0.328651 -0.409731
C58   C     C_3   0.423495 0.266930 0.313036 -0.798677
H31   H     H_    0.387193 0.204175 0.308200 0.240401
H32   H     H_    0.370232 0.305376 0.368665 0.273222
H33   H     H_    0.436118 0.307145 0.249534 0.237213
H34   H     H_    0.560040 0.312480 0.330427 0.193615
H35   H     H_    0.582127 0.215829 0.269844 0.188431
C59   C     C_3   0.474981 0.752677 0.670591 -0.403932
C60   C     C_3   0.577339 0.733559 0.686344 -0.803744
H36   H     H_    0.629144 0.691987 0.632678 0.273404
H37   H     H_    0.615702 0.796228 0.687575 0.241733
H38   H     H_    0.564163 0.696644 0.751675 0.237360
H39   H     H_    0.418805 0.785011 0.729194 0.189845
H40   H     H_    0.440554 0.688097 0.669165 0.194572
C61   C     C_3   0.506150 0.910637 0.259363 -0.395405
C62   C     C_3   0.511325 0.969368 0.175897 -0.860170
H41   H     H_    0.443286 0.015913 0.189659 0.250980
H42   H     H_    0.582841 0.007166 0.152997 0.250164
H43   H     H_    0.511677 0.926397 0.120824 0.248055
H44   H     H_    0.573581 0.863227 0.240240 0.204161
H45   H     H_    0.435709 0.871814 0.276270 0.199998
C63   C     C_3   0.500683 0.088904 0.737937 -0.396980
C64   C     C_3   0.499111 0.029964 0.820416 -0.862312
H46   H     H_    0.427434 0.992486 0.845747 0.251000
H47   H     H_    0.567010 0.983118 0.804353 0.251851
H48   H     H_    0.501826 0.072760 0.874613 0.247184
H49   H     H_    0.571240 0.127847 0.718997 0.202843
H50   H     H_    0.433209 0.136122 0.758973 0.203198

loop_
_geom_bond_atom_site_label_1
_geom_bond_atom_site_label_2
_ccdc_geom_bond_type
C12   C59   S    
C27   C29   A    
C34   C37   A    
C26   N2    A    
C20   H16   S    
C62   H41   S    
C27   N1    A    
C47   C49   A    
C59   H40   S    
Cu1   Cu2   S    
C22   C63   S    
C42   H28   S    
C11   C57   S    
C35   C37   A    
C61   C62   S    
C20   C22   A    
C63   H50   S    
C59   C60   S    
C15   C16   A    
C18   C21   A    
Cu2   O6    S    
C35   H5    S    
C41   H27   S    
C8    H30   S    
C64   H48   S    
C61   H45   S    
C26   C34   A    
C47   C51   A    
C57   C58   S    
C7    C17   A    
C21   C61   S    
C60   H36   S    
C31   C33   A    
C25   N1    A    
C56   H23   S    
C53   H20   S    
C2    O2    A    
C39   C45   A    
C48   C50   A    
C57   H34   S    
Cu2   O2    S    
C25   C53   S    
C41   C43   A    
C5    C49   A    
C44   H11   S    
C28   N2    A    
C42   C44   A    
C41   C49   A    
C24   O8    A    
C53   C54   S    
C55   H26   S    
C59   H39   S    
C45   C47   A    
C57   H35   S    
C46   C48   A    
C13   C19   A    
C4    C51   A    
C51   C52   A    
C1    O3    A    
C14   C20   A    
Cu1   O8    S    
C4    C6    A    
C27   H3    S    
C4    H14   S    
C63   H49   S    
C39   C43   A    
C36   H6    S    
C58   H33   S    
C6    C50   A    
Cu2   O3    S    
C32   C34   A    
Cu1   O5    S    
C62   H42   S    
C31   C32   A    
C40   C44   A    
C58   H32   S    
C23   O5    A    
C56   H24   S    
C9    C11   A    
C64   H46   S    
C53   H21   S    
C10   C12   A    
C42   C50   A    
C8    C10   A    
C12   C14   A    
C54   H18   S    
C13   C15   A    
C60   H38   S    
C14   C16   A    
C19   H15   S    
Cu1   O4    S    
C40   C46   A    
Cu1   N1    S    
C2    O4    A    
C63   C64   S    
Cu2   O7    S    
C24   O6    A    
C15   C17   A    
C55   H25   S    
C7    H29   S    
C19   C21   A    
C5    H1    S    
Cu1   O1    S    
C1    C10   S    
C33   C38   A    
C6    H2    S    
C3    C5    A    
C37   H7    S    
C3    C52   A    
C28   H4    S    
C54   H19   S    
C29   C35   A    
C45   H10   S    
C17   C22   A    
C30   C36   A    
C46   H9    S    
C1    O1    A    
C28   C30   A    
C29   C31   A    
C30   C32   A    
C11   C13   A    
C60   H37   S    
C3    H13   S    
C43   H12   S    
C23   C39   S    
C36   C38   A    
C58   H31   S    
C24   C40   S    
C8    C18   A    
C64   H47   S    
C62   H43   S    
C61   H44   S    
C26   C55   S    
C7    C9    A    
C48   C52   A    
Cu2   N2    S    
C55   C56   S    
C16   C18   A    
C54   H17   S    
C23   O7    A    
C56   H22   S    
C2    C9    S    
C25   C33   A    
C38   H8    S    
