data_mof_unit_66331.cif
_audit_creation_date              2012-12-10T19:53:03-0500
_audit_creation_method            fapswitch 2.2
_symmetry_space_group_name_H-M    P1
_symmetry_Int_Tables_number       1
_space_group_crystal_system       triclinic
_cell_length_a                    14.964867
_cell_length_b                    14.244323
_cell_length_c                    15.763005
_cell_angle_alpha                 89.882146
_cell_angle_beta                  91.061643
_cell_angle_gamma                 90.048114
_cell_volume                      3359.52650647

loop_
_atom_site_label
_atom_site_type_symbol
_atom_type_description
_atom_site_fract_x
_atom_site_fract_y
_atom_site_fract_z
_atom_type_partial_charge
C1    C     C_R   0.327771 0.499949 0.499673 0.925608
C2    C     C_3   0.617769 0.509803 0.952088 -0.288101
C3    C     C_3   0.614854 0.525969 0.054037 -0.380303
C4    C     C_1   0.510353 0.501127 0.825236 0.162517
C5    C     C_1   0.509717 0.501240 0.175109 0.146391
C6    C     C_1   0.504637 0.500476 0.250001 -0.057323
C7    C     C_R   0.092887 0.577874 0.466238 0.616073
C8    C     C_R   0.093620 0.421167 0.528711 0.622614
C9    C     C_R   0.185196 0.578223 0.467546 -0.246391
C10   C     C_R   0.185916 0.420993 0.528757 -0.227787
C11   C     C_R   0.231665 0.499756 0.498705 -0.219574
C12   C     C_R   0.047617 0.499574 0.497334 -0.248573
C13   C     C_R   0.903632 0.448969 0.434685 -0.105309
C14   C     C_R   0.907297 0.551211 0.561523 -0.116126
C15   C     C_R   0.500122 0.500100 0.338429 0.872607
C16   C     C_R   0.810634 0.448788 0.437024 0.586413
C17   C     C_R   0.814209 0.551475 0.560652 0.615187
C18   C     C_R   0.767290 0.500076 0.499251 -0.374597
C19   C     C_R   0.951285 0.500006 0.497777 -0.086682
C20   C     C_R   0.433232 0.102842 0.464586 -0.185996
C21   C     C_R   0.462190 0.897337 0.436968 -0.185898
C22   C     C_R   0.433690 0.201657 0.459756 -0.025518
C23   C     C_R   0.457229 0.798518 0.437293 -0.041587
C24   C     C_R   0.566561 0.206298 0.543641 0.797863
C25   C     C_R   0.546145 0.793534 0.563106 0.797650
C26   C     C_R   0.570127 0.107311 0.545829 -0.288277
C27   C     C_R   0.548355 0.892515 0.566582 -0.298077
C28   C     C_R   0.503138 0.053279 0.505277 0.046245
C29   C     C_R   0.505314 0.946717 0.503197 0.046762
C30   C     C_R   0.671810 0.500029 0.500006 1.045871
C31   C     C_R   0.500427 0.499943 0.661594 0.929701
C32   C     C_3   0.448764 0.578943 0.048499 1.098114
C33   C     C_3   0.484508 0.404317 0.049325 1.055098
C34   C     C_3   0.469633 0.409301 0.951336 0.339235
C35   C     C_3   0.457688 0.588420 0.949640 0.343764
C36   C     C_1   0.505172 0.500083 0.750162 -0.036018
C37   C     C_3   0.515711 0.502513 0.083463 -0.423553
C38   C     C_3   0.515808 0.502782 0.917158 -0.378902
H1    H     H_    0.378106 0.065136 0.435292 0.204648
H2    H     H_    0.431089 0.935203 0.384795 0.208214
H3    H     H_    0.625814 0.073825 0.578412 0.194972
H4    H     H_    0.582866 0.925860 0.619354 0.195602
H5    H     H_    0.220147 0.639083 0.443547 0.195680
H6    H     H_    0.221475 0.360198 0.553266 0.215737
N1    N     N_R   0.499980 0.252470 0.500000 -0.198295
N2    N     N_R   0.499980 0.747530 0.500000 -0.202846
O1    O     O_R   0.369070 0.579480 0.500010 -0.657692
O2    O     O_R   0.369070 0.420520 0.500010 -0.663366
O3    O     O_R   0.500010 0.579510 0.377140 -0.653728
O4    O     O_R   0.500010 0.420490 0.377140 -0.626456
O5    O     O_R   0.630940 0.579480 0.499990 -0.567691
O6    O     O_R   0.630940 0.420520 0.499990 -0.527153
O7    O     O_R   0.500000 0.579440 0.622860 -0.551575
O8    O     O_R   0.500000 0.420560 0.622860 -0.598946
Zn1   Zn    Zn3+2 0.500010 0.606140 0.500000 1.037027
Zn2   Zn    Zn3+2 0.500010 0.393860 0.500000 1.045774
F1    F     F_    0.372320 0.582427 0.913747 -0.529691
F2    F     F_    0.378239 0.413745 0.934726 -0.488726
F3    F     F_    0.761407 0.401622 0.377471 -0.597886
F4    F     F_    0.768447 0.598704 0.620917 -0.541343
C39   C     C_2   0.363052 0.248400 0.408296 0.525527
H7    H     H_    0.374016 0.316527 0.380587 0.119685
O9    O     O_2   0.291322 0.209894 0.394403 -0.525465
C40   C     C_2   0.402836 0.751964 0.370325 0.529442
H8    H     H_    0.374646 0.683362 0.380339 0.098603
O10   O     O_2   0.386908 0.791156 0.302738 -0.482789
F5    F     F_    0.630763 0.256003 0.585392 -0.606612
F6    F     F_    0.590377 0.743670 0.623888 -0.574994
F7    F     F_    0.362021 0.551735 0.066770 -0.488517
F8    F     F_    0.405113 0.377518 0.086926 -0.497202
F9    F     F_    0.546837 0.336152 0.071463 -0.681083
F10   F     F_    0.461481 0.663360 0.090743 -0.590966
C41   C     C_2   0.497710 0.318651 0.908345 0.534002
H9    H     H_    0.536946 0.319459 0.851245 0.056486
O11   O     O_2   0.471359 0.242986 0.934602 -0.404921
C42   C     C_2   0.490585 0.683138 0.917591 0.583027
H10   H     H_    0.503235 0.691425 0.850485 0.108628
O12   O     O_2   0.496167 0.752706 0.962395 -0.408183
C43   C     C_2   0.638093 0.625099 0.086959 0.588242
H11   H     H_    0.643498 0.635848 0.155117 0.096697
O13   O     O_2   0.649657 0.693151 0.041447 -0.504799
C44   C     C_2   0.684506 0.465575 0.101040 0.426969
H12   H     H_    0.665449 0.416314 0.150042 0.177039
O14   O     O_2   0.763972 0.474149 0.086112 -0.503395
C45   C     C_2   0.675634 0.584507 0.909399 0.698546
H13   H     H_    0.740742 0.600747 0.937269 0.136675
O15   O     O_2   0.655032 0.621678 0.842045 -0.520755
C46   C     C_2   0.666104 0.418313 0.929047 0.420919
H14   H     H_    0.670590 0.360012 0.973098 0.155440
O16   O     O_2   0.696107 0.406171 0.858212 -0.498919
F11   F     F_    0.047538 0.653510 0.435425 -0.610034
F12   F     F_    0.048994 0.345565 0.559124 -0.597988
C47   C     C_2   0.950808 0.397595 0.366197 0.644252
H15   H     H_    0.022661 0.403228 0.360113 0.048923
O17   O     O_2   0.910247 0.348163 0.315326 -0.429469
C48   C     C_2   0.958378 0.602545 0.629282 0.638286
H16   H     H_    0.030462 0.596355 0.634664 0.041077
O18   O     O_2   0.920838 0.652606 0.680309 -0.427748

loop_
_geom_bond_atom_site_label_1
_geom_bond_atom_site_label_2
_ccdc_geom_bond_type
C30   O5    A    
C4    C36   T    
C47   H15   S    
C5    C37   S    
C27   C29   A    
C41   H9    S    
C46   O16   D    
C1    C11   S    
C3    C43   S    
C32   F10   S    
C45   H13   S    
C24   N1    A    
C28   C29   S    
C42   O12   D    
C5    C6    T    
C2    C45   S    
C7    C9    A    
C15   O4    A    
C39   O9    D    
C24   F5    S    
C6    C15   S    
N1    Zn2   S    
C48   O18   D    
N2    Zn1   S    
C2    C46   S    
C18   C30   S    
O7    Zn1   S    
C47   O17   D    
C23   N2    A    
C41   O11   D    
C14   C17   A    
C25   F6    S    
C14   C48   S    
C17   C18   A    
C45   O15   D    
C7    C12   A    
O8    Zn2   S    
C35   C42   S    
C9    H5    S    
C13   C19   A    
C10   H6    S    
C32   C35   S    
C35   C38   S    
C42   H10   S    
C43   O13   D    
C20   H1    S    
C1    O1    A    
C20   C28   A    
O3    Zn1   S    
C21   C29   A    
C33   C37   S    
C13   C47   S    
C16   F3    S    
C40   O10   D    
C2    C38   S    
C8    C12   A    
C7    F11   S    
C48   H16   S    
C3    C44   S    
C33   C34   S    
C32   C37   S    
C31   O7    A    
C9    C11   A    
C33   F8    S    
C8    F12   S    
C16   C18   A    
C23   C40   S    
C20   C22   A    
C44   O14   D    
C21   C23   A    
O1    Zn1   S    
O2    Zn2   S    
C30   O6    A    
C34   C38   S    
C14   C19   A    
C24   C26   A    
C4    C38   S    
C1    O2    A    
C32   F7    S    
C25   C27   A    
C26   C28   A    
C35   F1    S    
C40   H8    S    
C2    C3    S    
C22   C39   S    
C27   H4    S    
C21   H2    S    
C12   C19   S    
C17   F4    S    
O5    Zn1   S    
C15   O3    A    
C31   O8    A    
C39   H7    S    
O4    Zn2   S    
C10   C11   A    
C33   F9    S    
C34   C41   S    
C43   H11   S    
C22   N1    A    
C46   H14   S    
C3    C37   S    
C8    C10   A    
C44   H12   S    
C13   C16   A    
C34   F2    S    
C31   C36   S    
C25   N2    A    
O6    Zn2   S    
C26   H3    S    
