data_mof_unit_30518.cif
_audit_creation_date              2012-12-10T17:16:43-0500
_audit_creation_method            fapswitch 2.2
_symmetry_space_group_name_H-M    P1
_symmetry_Int_Tables_number       1
_space_group_crystal_system       triclinic
_cell_length_a                    10.174521
_cell_length_b                    10.675256
_cell_length_c                    10.856337
_cell_angle_alpha                 90.097602
_cell_angle_beta                  96.211152
_cell_angle_gamma                 79.350118
_cell_volume                      1151.85187366

loop_
_atom_site_label
_atom_site_type_symbol
_atom_type_description
_atom_site_fract_x
_atom_site_fract_y
_atom_site_fract_z
_atom_type_partial_charge
C1    C     C_R   0.442525 0.512286 0.267625 0.918895
C2    C     C_R   0.493227 0.740952 0.485201 0.888934
C3    C     C_R   0.753250 0.065680 0.475152 -0.109092
C4    C     C_R   0.246804 0.934325 0.525013 -0.109357
C5    C     C_R   0.843218 0.992837 0.403191 -0.152186
C6    C     C_R   0.156862 0.007162 0.597003 -0.151969
C7    C     C_R   0.807732 0.888427 0.340995 -0.101965
C8    C     C_R   0.192360 0.111577 0.659181 -0.101262
C9    C     C_R   0.686003 0.852537 0.357349 -0.031098
C10   C     C_R   0.314070 0.147478 0.642778 -0.030863
C11   C     C_R   0.596119 0.922436 0.434569 0.090038
C12   C     C_R   0.557476 0.487728 0.732377 0.918751
C13   C     C_R   0.403935 0.077571 0.565548 0.089935
C14   C     C_R   0.622713 0.038176 0.481552 0.076672
C15   C     C_R   0.377336 0.961828 0.518575 0.076578
C16   C     C_R   0.482107 0.878073 0.467748 -0.227932
C17   C     C_R   0.517929 0.121938 0.532345 -0.227969
C18   C     C_2   0.416506 0.372885 0.904941 0.914727
C19   C     C_2   0.583537 0.627134 0.095095 0.914905
C20   C     C_2   0.886877 0.580161 0.622482 0.999632
C21   C     C_2   0.113352 0.419122 0.377999 0.999593
C22   C     C_2   0.407903 0.507955 0.135773 -0.358026
C23   C     C_2   0.592098 0.492102 0.864226 -0.357899
C24   C     C_2   0.495749 0.532839 0.059560 -0.037129
C25   C     C_2   0.504255 0.467225 0.940446 -0.037042
C26   C     C_2   0.071450 0.494707 0.485450 -0.082350
C27   C     C_2   0.928642 0.505023 0.514744 -0.082373
C28   C     C_R   0.506782 0.259054 0.514826 0.888850
H1    H     H_    0.123862 0.167188 0.716947 0.144042
H2    H     H_    0.327478 0.457078 0.106417 0.204892
H3    H     H_    0.873390 0.396458 0.373965 0.195131
H4    H     H_    0.126476 0.603919 0.625782 0.194910
H5    H     H_    0.228075 0.339328 0.863250 0.337974
H6    H     H_    0.771963 0.660626 0.136841 0.337862
H7    H     H_    0.822301 0.753661 0.690807 0.338768
H8    H     H_    0.177469 0.245237 0.310220 0.338784
H9    H     H_    0.876242 0.832821 0.283237 0.144004
H10   H     H_    0.789320 0.140688 0.528019 0.165728
H11   H     H_    0.210705 0.859332 0.472146 0.165665
H12   H     H_    0.940172 0.017996 0.394956 0.149399
H13   H     H_    0.059914 0.982002 0.605264 0.149270
H14   H     H_    0.662953 0.769462 0.309531 0.170143
H15   H     H_    0.337115 0.230577 0.690551 0.170114
H16   H     H_    0.672508 0.543006 0.893565 0.204639
N1    N     N_2   0.157300 0.551390 0.551120 -0.235264
N2    N     N_2   0.842700 0.448610 0.448880 -0.235290
O1    O     O_R   0.568940 0.489660 0.307530 -0.597638
O2    O     O_R   0.276918 0.412513 0.884046 -0.777836
O3    O     O_2   0.532585 0.739080 0.105556 -0.644312
O4    O     O_R   0.723092 0.587468 0.116024 -0.777998
O5    O     O_2   0.899064 0.527919 0.724226 -0.613511
O6    O     O_R   0.845565 0.712156 0.609968 -0.808097
O7    O     O_2   0.101672 0.471043 0.276133 -0.613459
O8    O     O_R   0.154083 0.287077 0.390890 -0.808409
O9    O     O_R   0.431060 0.510340 0.692470 -0.597577
O10   O     O_R   0.348880 0.522640 0.340350 -0.585174
O11   O     O_R   0.651120 0.477360 0.659650 -0.585446
O12   O     O_R   0.610030 0.300280 0.483580 -0.626860
O13   O     O_R   0.389970 0.699720 0.516420 -0.626971
O14   O     O_R   0.389970 0.333270 0.516400 -0.598785
O15   O     O_R   0.610030 0.666730 0.483600 -0.598418
O16   O     O_2   0.467524 0.260932 0.894475 -0.644224
Zn1   Zn    Zn3+2 0.646940 0.477980 0.478080 0.992495
Zn2   Zn    Zn3+2 0.353060 0.522020 0.521920 0.992450

loop_
_geom_bond_atom_site_label_1
_geom_bond_atom_site_label_2
_ccdc_geom_bond_type
C6    C8    A    
C21   C26   S    
O10   Zn2   S    
C20   C27   S    
C28   O12   A    
C2    C16   S    
H4    N1    S    
C19   O3    D    
N1    Zn2   S    
C19   O4    S    
C2    O15   A    
C13   C17   A    
N2    Zn1   S    
O14   Zn2   S    
O9    Zn2   S    
C17   C28   S    
C4    C15   A    
C23   C25   D    
C19   C24   S    
C7    H9    S    
C1    C22   S    
C20   O6    S    
C21   O7    D    
C9    C11   A    
C14   C17   A    
C26   C27   S    
C18   C25   S    
C3    C14   A    
C9    H14   S    
C12   O11   A    
C27   N2    D    
C8    C10   A    
C1    O10   A    
O11   Zn1   S    
C20   O5    D    
C7    C9    A    
C28   O14   A    
C13   C15   A    
O1    Zn1   S    
C21   O8    S    
C11   C14   A    
C22   C24   D    
H6    O4    S    
C12   O9    A    
H8    O8    S    
C8    H1    S    
C15   C16   A    
O13   Zn2   S    
O12   Zn1   S    
C24   C25   S    
H3    N2    S    
C4    C6    A    
C11   C16   A    
C5    H12   S    
H7    O6    S    
C5    C7    A    
H5    O2    S    
C2    O13   A    
C18   O16   D    
C12   C23   S    
C22   H2    S    
C26   N1    D    
C10   H15   S    
C4    H11   S    
C6    H13   S    
O15   Zn1   S    
C1    O1    A    
C23   H16   S    
C3    H10   S    
C3    C5    A    
C10   C13   A    
C18   O2    S    
