data_mof_unit_24894.cif
_audit_creation_date              2012-10-26T20:26:12-0400
_audit_creation_method            fapswitch 2.2
_symmetry_space_group_name_H-M    P1
_symmetry_Int_Tables_number       1
_space_group_crystal_system       triclinic
_cell_length_a                    19.369894
_cell_length_b                    15.90798
_cell_length_c                    14.620232
_cell_angle_alpha                 90.050216
_cell_angle_beta                  91.174536
_cell_angle_gamma                 89.810022
_cell_volume                      4504.04537474

loop_
_atom_site_label
_atom_site_type_symbol
_atom_type_description
_atom_site_fract_x
_atom_site_fract_y
_atom_site_fract_z
_atom_type_partial_charge
C1    C     C_R   0.499922 0.339582 0.499938 0.553588
C2    C     C_3   0.503254 0.972123 0.412874 0.142327
C3    C     C_3   0.500034 0.083754 0.499560 -0.007725
C4    C     C_3   0.501124 0.915964 0.499419 -0.009503
C5    C     C_1   0.499792 0.175059 0.499642 -0.051006
C6    C     C_1   0.501740 0.824735 0.500019 -0.057506
C7    C     C_3   0.499926 0.578512 0.969559 0.166984
C8    C     C_3   0.499851 0.422233 0.030277 0.167235
C9    C     C_3   0.442730 0.541108 0.029578 -0.107180
C10   C     C_3   0.557053 0.459600 0.970279 -0.108431
C11   C     C_3   0.556846 0.539643 0.031676 0.008642
C12   C     C_R   0.500906 0.660361 0.500100 0.534080
C13   C     C_3   0.442981 0.461118 0.968106 0.010589
C14   C     C_3   0.500196 0.500837 0.091882 -0.013494
C15   C     C_3   0.499667 0.499923 0.908015 -0.012914
C16   C     C_R   0.367247 0.503642 0.498868 0.541574
C17   C     C_R   0.633079 0.502047 0.501296 0.537702
C18   C     C_1   0.500063 0.500327 0.194285 0.111206
C19   C     C_1   0.499897 0.500049 0.805685 0.105384
C20   C     C_R   0.256272 0.456337 0.557424 -0.150000
C21   C     C_R   0.743816 0.473800 0.427345 -0.153662
C22   C     C_R   0.184403 0.452287 0.556094 0.095123
C23   C     C_3   0.555979 0.972583 0.547241 0.153253
C24   C     C_R   0.815641 0.470271 0.425132 0.103829
C25   C     C_R   0.146004 0.502283 0.493968 0.068632
C26   C     C_R   0.854871 0.498769 0.500594 0.060900
C27   C     C_R   0.180224 0.555865 0.432626 0.114783
C28   C     C_R   0.821938 0.529315 0.579379 0.114184
C29   C     C_R   0.253497 0.558704 0.432723 -0.011169
C30   C     C_R   0.748922 0.533595 0.581648 0.010579
C31   C     C_R   0.291268 0.507206 0.495894 -0.029261
C32   C     C_R   0.709566 0.503962 0.504364 -0.039928
C33   C     C_R   0.930375 0.499013 0.496278 0.371302
C34   C     C_3   0.445115 0.027172 0.451653 0.150719
C35   C     C_R   0.069935 0.500684 0.494694 0.396728
C36   C     C_3   0.377852 0.420123 0.927748 -0.247729
C37   C     C_3   0.329158 0.390444 0.002280 -0.298752
C38   C     C_3   0.263264 0.353187 0.960394 -0.456978
C39   C     C_3   0.622459 0.580635 0.070566 -0.245701
C40   C     C_3   0.669779 0.610880 0.994643 -0.302719
C41   C     C_3   0.737010 0.646350 0.034442 -0.455397
C42   C     C_3   0.151272 0.311856 0.597471 -0.292529
C43   C     C_3   0.852980 0.349640 0.339764 -0.294443
C44   C     C_3   0.128346 0.691681 0.392945 -0.281598
C45   C     C_3   0.558182 0.027657 0.460697 0.159841
C46   C     C_3   0.880409 0.487438 0.719561 -0.318998
C47   C     C_3   0.290176 0.620576 0.370600 -0.238825
C48   C     C_3   0.316946 0.696677 0.425089 -0.281541
C49   C     C_3   0.351131 0.760485 0.362835 -0.464329
C50   C     C_3   0.714979 0.572241 0.665404 -0.225288
C51   C     C_3   0.682108 0.658105 0.643454 -0.274102
C52   C     C_3   0.640824 0.690552 0.724024 -0.448154
C53   C     C_3   0.667201 0.999168 0.383834 -0.298143
C54   C     C_3   0.333785 0.000013 0.615022 -0.300394
C55   C     C_3   0.663667 0.000206 0.633696 -0.307392
C56   C     C_3   0.442897 0.972000 0.538152 0.157423
C57   C     C_3   0.337206 0.000350 0.365197 -0.314705
C58   C     C_3   0.505814 0.997844 0.246923 -0.320575
C59   C     C_3   0.495016 0.001140 0.751856 -0.321310
C60   C     C_3   0.492090 0.730168 0.999016 -0.313636
C61   C     C_3   0.507592 0.270498 0.001223 -0.314020
C62   C     C_1   0.499802 0.250288 0.499795 -0.030678
C63   C     C_1   0.501639 0.749556 0.500253 -0.039402
C64   C     C_3   0.497803 0.027509 0.586040 0.144519
Cu1   Cu    Cu3+1 0.500010 0.500000 0.590220 0.953786
Cu2   Cu    Cu3+1 0.499990 0.500000 0.409780 0.959039
H1    H     H_    0.285137 0.417720 0.605974 0.129623
H2    H     H_    0.350760 0.467206 0.883702 0.147829
H3    H     H_    0.392841 0.366428 0.883782 0.140695
H4    H     H_    0.726166 0.700558 0.079961 0.151967
H5    H     H_    0.765475 0.597204 0.073975 0.152749
H6    H     H_    0.770045 0.668105 0.978024 0.140817
H7    H     H_    0.682161 0.557821 0.948188 0.154520
H8    H     H_    0.643539 0.660815 0.953926 0.159870
H9    H     H_    0.608096 0.634082 0.115255 0.141184
H10   H     H_    0.650310 0.533373 0.113545 0.145441
H11   H     H_    0.167909 0.410607 0.686795 0.243665
H12   H     H_    0.714584 0.451280 0.368293 0.137274
H13   H     H_    0.204826 0.286575 0.601148 0.123576
H14   H     H_    0.129373 0.301678 0.527524 0.177328
H15   H     H_    0.119286 0.276890 0.646701 0.141248
H16   H     H_    0.827882 0.465861 0.285817 0.244816
H17   H     H_    0.800553 0.321942 0.332215 0.125371
H18   H     H_    0.878939 0.323582 0.402009 0.178807
H19   H     H_    0.883633 0.331620 0.279434 0.142812
H20   H     H_    0.149056 0.593412 0.300884 0.240807
H21   H     H_    0.074586 0.709340 0.373370 0.170261
H22   H     H_    0.164014 0.732980 0.355251 0.113726
H23   H     H_    0.396204 0.574859 0.053496 0.095372
H24   H     H_    0.135650 0.702538 0.467687 0.158395
H25   H     H_    0.902636 0.594301 0.644028 0.274393
H26   H     H_    0.916179 0.442607 0.686350 0.165891
H27   H     H_    0.833430 0.453471 0.741167 0.144680
H28   H     H_    0.906468 0.513814 0.781487 0.141746
H29   H     H_    0.395987 0.731560 0.328478 0.164970
H30   H     H_    0.313574 0.783885 0.310293 0.134112
H31   H     H_    0.369554 0.814697 0.404261 0.158528
H32   H     H_    0.273333 0.727880 0.459994 0.158860
H33   H     H_    0.354909 0.676185 0.478407 0.171195
H34   H     H_    0.603563 0.425819 0.946354 0.095949
H35   H     H_    0.332522 0.589681 0.333542 0.170002
H36   H     H_    0.255835 0.643790 0.314741 0.135954
H37   H     H_    0.675014 0.698461 0.785324 0.133368
H38   H     H_    0.598829 0.645902 0.740001 0.171251
H39   H     H_    0.617280 0.752253 0.706410 0.136715
H40   H     H_    0.723469 0.703949 0.628049 0.161097
H41   H     H_    0.647221 0.654391 0.582518 0.180104
H42   H     H_    0.677448 0.527926 0.694820 0.160658
H43   H     H_    0.752461 0.582499 0.722595 0.168295
H44   H     H_    0.611189 0.111283 0.377547 0.242413
H45   H     H_    0.235323 0.401098 0.918455 0.150833
H46   H     H_    0.716573 0.030278 0.367152 0.124882
H47   H     H_    0.645221 0.970648 0.320457 0.165251
H48   H     H_    0.678397 0.948817 0.434530 0.186923
H49   H     H_    0.389738 0.887794 0.620522 0.242608
H50   H     H_    0.284298 0.968844 0.631014 0.124113
H51   H     H_    0.322864 0.050854 0.564812 0.185292
H52   H     H_    0.355566 0.027905 0.678848 0.164775
H53   H     H_    0.602005 0.893837 0.644433 0.240765
H54   H     H_    0.708064 0.966950 0.666679 0.129024
H55   H     H_    0.639124 0.040859 0.685436 0.136472
H56   H     H_    0.275791 0.298264 0.916702 0.148048
H57   H     H_    0.683814 0.040114 0.578276 0.188042
H58   H     H_    0.399249 0.106542 0.354697 0.245914
H59   H     H_    0.293332 0.033924 0.331380 0.129462
H60   H     H_    0.316247 0.961305 0.420781 0.183970
H61   H     H_    0.361712 0.958953 0.314118 0.134436
H62   H     H_    0.474363 0.887502 0.309966 0.245031
H63   H     H_    0.521165 0.965720 0.183023 0.131132
H64   H     H_    0.542510 0.049859 0.260474 0.154523
H65   H     H_    0.453265 0.024231 0.236191 0.135600
H66   H     H_    0.526541 0.111767 0.689382 0.248314
H67   H     H_    0.228981 0.332038 0.015742 0.142601
H68   H     H_    0.479259 0.032917 0.815777 0.131543
H69   H     H_    0.547618 0.974997 0.762882 0.134169
H70   H     H_    0.458587 0.948951 0.737790 0.154738
H71   H     H_    0.534239 0.674015 0.883756 0.238326
H72   H     H_    0.481808 0.790248 0.962570 0.133895
H73   H     H_    0.540810 0.736713 0.039492 0.134057
H74   H     H_    0.448603 0.718314 0.045554 0.148299
H75   H     H_    0.464943 0.327030 0.116000 0.244026
H76   H     H_    0.517875 0.210522 0.037870 0.134083
H77   H     H_    0.551157 0.282307 0.954802 0.150119
H78   H     H_    0.355003 0.341727 0.045202 0.163251
H79   H     H_    0.458947 0.263775 0.960623 0.134223
H80   H     H_    0.315121 0.444223 0.046861 0.157642
N1    N     N_R   0.035194 0.426741 0.494524 -0.219935
N2    N     N_2   0.861990 0.554952 0.657430 -0.538319
N3    N     N_2   0.620113 0.060827 0.420372 -0.521790
N4    N     N_2   0.380925 0.938598 0.578153 -0.525535
N5    N     N_2   0.615090 0.939110 0.597619 -0.516587
N6    N     N_2   0.386118 0.061039 0.401295 -0.514290
N7    N     N_2   0.506844 0.937804 0.321203 -0.514633
N8    N     N_2   0.494092 0.061485 0.677848 -0.514212
N9    N     N_2   0.498048 0.663061 0.932927 -0.513356
N10   N     N_2   0.501435 0.337749 0.067101 -0.513440
N11   N     N_R   0.964958 0.572855 0.495956 -0.250724
N12   N     N_R   0.966506 0.425897 0.495410 -0.235930
N13   N     N_R   0.033530 0.573609 0.495408 -0.222291
N14   N     N_1   0.499980 0.500000 0.274190 -0.201616
N15   N     N_1   0.500020 0.500000 0.725810 -0.204655
N16   N     N_2   0.150761 0.400340 0.620460 -0.504846
N17   N     N_2   0.848454 0.440279 0.345242 -0.502371
N18   N     N_2   0.139940 0.604375 0.369090 -0.508753
O1    O     O_R   0.500010 0.379080 0.576170 -0.488692
O2    O     O_R   0.499990 0.620920 0.423830 -0.494835
O3    O     O_R   0.500000 0.379080 0.423800 -0.486580
O4    O     O_R   0.500000 0.620920 0.576200 -0.495823
O5    O     O_R   0.400150 0.499990 0.576210 -0.492424
O6    O     O_R   0.599850 0.500010 0.423790 -0.494013
O7    O     O_R   0.400140 0.499990 0.423840 -0.501668
O8    O     O_R   0.599860 0.500010 0.576160 -0.502236

loop_
_geom_bond_atom_site_label_1
_geom_bond_atom_site_label_2
_ccdc_geom_bond_type
C50   H42   S    
C55   H55   S    
C52   H37   S    
C34   C56   S    
C8    C13   S    
C23   C45   S    
C37   H78   S    
C64   N8    S    
C27   C29   A    
C43   H17   S    
C14   C18   S    
C20   H1    S    
C2    C4    S    
H44   N3    S    
C1    C62   S    
Cu2   N14   S    
C17   O8    A    
C54   N4    S    
C3    C64   S    
C53   H48   S    
C16   C31   S    
C15   C19   S    
Cu1   O4    S    
C40   H8    S    
Cu2   O3    S    
C29   C47   S    
C47   H35   S    
C36   C37   S    
C24   C26   A    
C10   C15   S    
C57   H59   S    
C42   H14   S    
C22   N16   S    
C11   C14   S    
C46   H26   S    
H16   N17   S    
C1    O3    A    
C58   H63   S    
C57   N6    S    
Cu1   O1    S    
C59   H70   S    
C40   H7    S    
H71   N9    S    
C19   N15   T    
C38   H67   S    
C59   H69   S    
C61   H79   S    
C9    C13   S    
C16   O5    A    
C61   H77   S    
C46   N2    S    
C33   N11   A    
C22   C25   A    
C54   H50   S    
C21   H12   S    
H66   N8    S    
C56   C64   S    
C39   H9    S    
C37   H80   S    
C44   H21   S    
C41   H5    S    
C2    C34   S    
C7    C15   S    
H58   N6    S    
C42   H13   S    
N11   N13   A    
C47   H36   S    
C4    C56   S    
C53   N3    S    
C43   H18   S    
C42   H15   S    
H25   N2    S    
C59   N8    S    
C53   H47   S    
C55   H54   S    
C2    C45   S    
H53   N5    S    
C21   C32   A    
C55   H57   S    
C28   N2    S    
Cu2   O2    S    
Cu1   O8    S    
C51   C52   S    
C43   H19   S    
C11   C39   S    
Cu2   O7    S    
C13   C36   S    
C4    C6    S    
C9    H23   S    
C39   C40   S    
C4    C23   S    
C34   N6    S    
C17   O6    A    
C3    C34   S    
C12   O2    A    
C3    C45   S    
C50   H43   S    
Cu1   O5    S    
C6    C63   T    
C7    C11   S    
C9    C14   S    
C57   H61   S    
C37   C38   S    
C58   N7    S    
C27   N18   S    
C26   C33   S    
C47   C48   S    
C46   H28   S    
C1    O1    A    
C58   H65   S    
C42   N16   S    
C50   C51   S    
C35   N1    A    
C39   H10   S    
C49   H29   S    
C10   H34   S    
C38   H56   S    
H62   N7    S    
C60   H74   S    
C41   H6    S    
C53   H46   S    
C51   H41   S    
C23   C64   S    
C25   C35   S    
C52   H39   S    
C2    N7    S    
C13   C15   S    
C21   C24   A    
C24   N17   S    
H20   N18   S    
C56   N4    S    
C61   N10   S    
C57   H60   S    
C44   H24   S    
C33   N12   A    
H11   N16   S    
C7    C9    S    
C48   H33   S    
C23   N5    S    
C48   C49   S    
C8    C14   S    
Cu2   O6    S    
C20   C22   A    
C3    C5    S    
C12   O4    A    
C36   H2    S    
H75   N10   S    
C55   N5    S    
C25   C27   A    
C48   H32   S    
C59   H68   S    
C26   C28   A    
C54   H52   S    
C60   N9    S    
C29   C31   A    
C44   H22   S    
C30   C32   A    
C16   O7    A    
C46   H27   S    
C58   H64   S    
C51   H40   S    
H49   N4    S    
C28   C30   A    
C52   H38   S    
C5    C62   T    
C45   N3    S    
C49   H30   S    
C30   C50   S    
C36   H3    S    
C8    N10   S    
C35   N13   A    
C18   N14   T    
C10   C11   S    
C60   H73   S    
C49   H31   S    
C61   H76   S    
C7    N9    S    
C8    C10   S    
Cu1   Cu2   S    
C54   H51   S    
Cu1   N15   S    
C17   C32   S    
C40   C41   S    
C44   N18   S    
C38   H45   S    
C12   C63   S    
N1    N12   A    
C60   H72   S    
C41   H4    S    
C20   C31   A    
C43   N17   S    
