data_mof_unit_15429.cif
_audit_creation_date              2012-12-10T16:59:21-0500
_audit_creation_method            fapswitch 2.2
_symmetry_space_group_name_H-M    P1
_symmetry_Int_Tables_number       1
_space_group_crystal_system       triclinic
_cell_length_a                    7.725853
_cell_length_b                    8.552342
_cell_length_c                    27.588551
_cell_angle_alpha                 91.033085
_cell_angle_beta                  85.832097
_cell_angle_gamma                 93.672227
_cell_volume                      1814.1720828

loop_
_atom_site_label
_atom_site_type_symbol
_atom_type_description
_atom_site_fract_x
_atom_site_fract_y
_atom_site_fract_z
_atom_type_partial_charge
C1    C     C_R   0.545949 0.794922 0.498729 0.977612
C2    C     C_R   0.662902 0.520395 0.125133 -0.179350
C3    C     C_R   0.508452 0.492094 0.646778 -0.093760
C4    C     C_R   0.492812 0.483729 0.353382 -0.051520
C5    C     C_R   0.681556 0.512022 0.022969 -0.091000
C6    C     C_R   0.463247 0.298848 0.973482 -0.086195
C7    C     C_R   0.436778 0.316171 0.024536 0.126716
C8    C     C_R   0.661871 0.532987 0.973090 0.119595
C9    C     C_R   0.552529 0.417974 0.049403 0.045619
C10   C     C_R   0.559079 0.420781 0.947843 0.045929
C11   C     C_R   0.822245 0.581690 0.047392 0.274850
C12   C     C_R   0.454050 0.205077 0.501256 0.973977
C13   C     C_R   0.397859 0.167047 0.947222 0.263198
C14   C     C_R   0.812901 0.586899 0.098372 0.386585
C15   C     C_R   0.396818 0.172341 0.896359 0.385509
C16   C     C_R   0.502384 0.499187 0.594075 0.886280
C17   C     C_R   0.497500 0.497646 0.405993 0.878409
C18   C     C_R   0.728125 0.669513 0.949133 -0.131610
C19   C     C_R   0.289899 0.246782 0.050622 -0.142083
C20   C     C_2   0.570335 0.958320 0.497980 -0.376364
C21   C     C_2   0.429664 0.041682 0.501982 -0.373437
C22   C     C_R   0.605968 0.580125 0.823086 0.545517
C23   C     C_R   0.549044 0.432690 0.897291 -0.146470
C24   C     C_R   0.380223 0.364283 0.177601 0.564130
C25   C     C_R   0.452633 0.328433 0.820955 0.572521
C26   C     C_R   0.636071 0.537373 0.175825 0.620851
C27   C     C_R   0.666430 0.435266 0.716474 0.137618
C28   C     C_R   0.624099 0.391872 0.276555 0.133437
C29   C     C_R   0.659759 0.446664 0.666487 -0.174729
C30   C     C_R   0.623971 0.405938 0.326856 -0.252292
C31   C     C_R   0.363240 0.526986 0.677654 -0.199644
C32   C     C_R   0.359084 0.545276 0.329390 -0.228081
C33   C     C_R   0.369682 0.517045 0.727711 -0.078447
C34   C     C_R   0.536511 0.429061 0.100497 -0.146408
C35   C     C_R   0.360368 0.533877 0.278952 -0.126525
C36   C     C_R   0.520516 0.471349 0.747163 0.255715
C37   C     C_R   0.493607 0.458809 0.252493 0.301010
C38   C     C_R   0.622597 0.568971 0.873151 0.024509
C39   C     C_R   0.392442 0.351044 0.126649 0.037883
C40   C     C_R   0.708413 0.689503 0.899908 0.140774
C41   C     C_R   0.265995 0.263529 0.101005 0.135893
C42   C     C_R   0.463317 0.309788 0.871291 -0.169412
Cl1   Cl    Cl    0.997377 0.668036 0.126933 -0.485420
Cl2   Cl    Cl    0.315849 0.001414 0.865866 -0.468359
Cl3   Cl    Cl    0.024075 0.635146 0.015117 -0.520390
Cl4   Cl    Cl    0.348939 0.983984 0.976125 -0.527531
H1    H     H_    0.245195 0.562011 0.663179 0.173442
H2    H     H_    0.186627 0.186131 0.031893 0.193170
H3    H     H_    0.703155 0.009448 0.494155 0.180380
H4    H     H_    0.296843 0.990555 0.505805 0.180950
H5    H     H_    0.909142 0.846594 0.882428 0.239308
H6    H     H_    0.716239 0.925857 0.896133 0.220885
H7    H     H_    0.003773 0.240480 0.111124 0.198305
H8    H     H_    0.105081 0.073302 0.117724 0.245080
H9    H     H_    0.877483 0.365661 0.256667 0.236044
H10   H     H_    0.753133 0.196224 0.262564 0.206106
H11   H     H_    0.787282 0.285889 0.756706 0.218594
H12   H     H_    0.256426 0.604878 0.349461 0.169354
H13   H     H_    0.871654 0.473549 0.757726 0.208039
H14   H     H_    0.014327 0.382694 0.463348 0.192517
H15   H     H_    0.985665 0.617282 0.536658 0.193487
H16   H     H_    0.257503 0.544242 0.751485 0.159258
H17   H     H_    0.259656 0.585229 0.260311 0.179517
H18   H     H_    0.725996 0.354894 0.345100 0.161728
H19   H     H_    0.772475 0.417833 0.643136 0.173657
H20   H     H_    0.787364 0.766536 0.969020 0.197779
N1    N     N_R   0.524970 0.460298 0.798551 -0.376543
N2    N     N_R   0.501218 0.455417 0.200598 -0.361110
N3    N     N_2   0.950320 0.457960 0.486880 -0.174328
N4    N     N_2   0.049680 0.542040 0.513120 -0.174103
N5    N     N_3   0.775861 0.833319 0.877749 -0.342593
N6    N     N_3   0.110691 0.193624 0.125431 -0.352221
N7    N     N_3   0.756983 0.310589 0.249586 -0.420334
N8    N     N_3   0.821032 0.384559 0.735398 -0.448594
O1    O     O_R   0.389250 0.738570 0.503220 -0.612532
O2    O     O_2   0.250929 0.285489 0.204332 -0.527990
O3    O     O_2   0.741149 0.636286 0.200709 -0.486683
O4    O     O_2   0.370377 0.217694 0.794093 -0.472959
O5    O     O_R   0.610750 0.261430 0.496780 -0.614443
O6    O     O_R   0.678390 0.711630 0.494810 -0.627929
O7    O     O_R   0.321610 0.288370 0.505190 -0.628525
O8    O     O_R   0.355440 0.513440 0.575450 -0.615911
O9    O     O_R   0.644560 0.486560 0.424550 -0.618607
O10   O     O_R   0.644590 0.486500 0.567040 -0.631855
O11   O     O_R   0.355410 0.513500 0.432960 -0.628527
O12   O     O_2   0.670591 0.708547 0.798541 -0.497063
Zn1   Zn    Zn3+2 0.306940 0.517990 0.505620 0.951526
Zn2   Zn    Zn3+2 0.693060 0.482010 0.494380 0.948610

loop_
_geom_bond_atom_site_label_1
_geom_bond_atom_site_label_2
_ccdc_geom_bond_type
H15   N4    S    
C12   O5    A    
C40   N5    S    
C30   H18   S    
C27   C29   A    
C25   N1    A    
C32   H12   S    
C33   C36   A    
C36   N1    S    
C39   C41   A    
C23   C42   A    
C17   O11   A    
H14   N3    S    
C35   C37   A    
C15   Cl2   S    
C5    C11   A    
C13   Cl4   S    
C11   C14   A    
C28   N7    S    
O8    Zn1   S    
C22   C38   A    
C37   N2    S    
C16   O10   A    
C24   C39   A    
C3    C29   A    
C18   C40   A    
O5    Zn2   S    
C33   H16   S    
C31   C33   A    
C27   N8    S    
C2    C34   A    
O9    Zn2   S    
C31   H1    S    
H5    N5    S    
N4    Zn1   S    
C21   H4    S    
O11   Zn1   S    
C26   O3    S    
C34   C39   A    
C1    O1    A    
C32   C35   A    
C19   H2    S    
C24   O2    S    
C12   C21   S    
C8    C18   A    
C25   O4    S    
C17   O9    A    
H11   N8    S    
C5    C9    A    
C20   H3    S    
C16   O8    A    
C2    C26   A    
C4    C32   A    
C3    C31   A    
H13   N8    S    
O7    Zn1   S    
N3    Zn2   S    
C41   N6    S    
C29   H19   S    
C4    C17   S    
O1    Zn1   S    
C7    C19   A    
C13   C15   A    
C9    C34   A    
C10   C23   A    
C11   Cl3   S    
C7    C9    A    
C1    C20   S    
H10   N7    S    
O10   Zn2   S    
C15   C42   A    
C25   C42   A    
C6    C10   A    
C5    C8    A    
C6    C7    A    
C27   C36   A    
C18   H20   S    
C23   C38   A    
C26   N2    A    
C28   C30   A    
O6    Zn2   S    
H6    N5    S    
C6    C13   A    
C38   C40   A    
C28   C37   A    
C12   O7    A    
C22   O12   S    
N3    N4    D    
C2    C14   A    
C22   N1    A    
C24   N2    A    
H9    N7    S    
H8    N6    S    
C20   C21   D    
C8    C10   A    
C1    O6    A    
C35   H17   S    
H7    N6    S    
C4    C30   A    
C3    C16   S    
C19   C41   A    
C14   Cl1   S    
