data_mof_unit_60609.cif
_audit_creation_date              2012-12-10T19:02:37-0500
_audit_creation_method            fapswitch 2.2
_symmetry_space_group_name_H-M    P1
_symmetry_Int_Tables_number       1
_space_group_crystal_system       triclinic
_cell_length_a                    19.335812
_cell_length_b                    14.259519
_cell_length_c                    13.358984
_cell_angle_alpha                 90.000849
_cell_angle_beta                  90.0
_cell_angle_gamma                 90.000068
_cell_volume                      3683.33076673

loop_
_atom_site_label
_atom_site_type_symbol
_atom_type_description
_atom_site_fract_x
_atom_site_fract_y
_atom_site_fract_z
_atom_type_partial_charge
C1    C     C_1   0.500000 0.500000 0.049526 0.013148
C2    C     C_R   0.500000 0.673474 0.500000 0.915831
C3    C     C_R   0.363483 0.500000 0.500000 1.049584
C4    C     C_R   0.636517 0.500000 0.500000 1.049585
C5    C     C_1   0.500000 0.225887 0.499999 -0.168480
C6    C     C_1   0.500000 0.774113 0.500001 -0.168480
C7    C     C_1   0.500000 0.141327 0.499999 0.029550
C8    C     C_1   0.500000 0.858673 0.500001 0.029550
C9    C     C_1   0.500000 0.042277 0.500000 0.048863
C10   C     C_1   0.500000 0.957723 0.500000 0.048863
C11   C     C_R   0.251883 0.498338 0.591150 0.543589
C12   C     C_1   0.500000 0.500000 0.950474 0.013148
C13   C     C_R   0.748117 0.501668 0.408850 0.543589
C14   C     C_R   0.748117 0.498331 0.591149 0.543590
C15   C     C_R   0.251883 0.501662 0.408849 0.543588
C16   C     C_R   0.180056 0.498322 0.591364 0.303519
C17   C     C_R   0.819944 0.501684 0.408635 0.303519
C18   C     C_R   0.819944 0.498315 0.591364 0.303518
C19   C     C_R   0.180056 0.501679 0.408634 0.303518
C20   C     C_R   0.144121 0.500001 0.499999 -0.332146
C21   C     C_R   0.855879 0.500000 0.499999 -0.332145
C22   C     C_R   0.288132 0.500000 0.500000 -0.498826
C23   C     C_R   0.711868 0.500000 0.500000 -0.498825
C24   C     C_R   0.930613 0.500000 0.499999 0.460740
C25   C     C_R   0.069386 0.500001 0.499999 0.460738
C26   C     C_1   0.500000 0.500000 0.169399 0.186757
C27   C     C_1   0.500000 0.500000 0.830600 0.186756
C28   C     C_R   0.500000 0.326526 0.499999 0.915831
Cl1   Cl    Cl    0.136519 0.492521 0.707405 -0.382276
Cl2   Cl    Cl    0.863480 0.507493 0.292595 -0.382279
Cl3   Cl    Cl    0.863481 0.492507 0.707403 -0.382278
Cl4   Cl    Cl    0.136520 0.507480 0.292594 -0.382276
F1    F     F_    0.286002 0.496100 0.680069 -0.576525
F2    F     F_    0.713997 0.503912 0.319930 -0.576525
F3    F     F_    0.713998 0.496087 0.680069 -0.576525
F4    F     F_    0.286003 0.503899 0.319930 -0.576524
N1    N     N_1   0.500000 0.500000 0.261870 -0.039451
N2    N     N_1   0.500000 0.500000 0.738130 -0.039452
N3    N     N_R   0.034295 0.430849 0.452662 -0.088168
N4    N     N_R   0.965705 0.569152 0.547336 -0.088170
N5    N     N_R   0.965705 0.430849 0.452661 -0.088169
N6    N     N_R   0.034295 0.569153 0.547336 -0.088169
O1    O     O_R   0.500000 0.373710 0.576470 -0.601917
O2    O     O_R   0.500000 0.626290 0.423530 -0.601917
O3    O     O_R   0.500000 0.626290 0.576470 -0.603715
O4    O     O_R   0.500000 0.373710 0.423530 -0.603715
O5    O     O_R   0.398140 0.500000 0.576480 -0.564511
O6    O     O_R   0.601860 0.500000 0.423520 -0.564511
O7    O     O_R   0.601860 0.500000 0.576480 -0.564511
O8    O     O_R   0.398140 0.500000 0.423520 -0.564511
Zn1   Zn    Zn3+2 0.500000 0.500000 0.602090 1.068814
Zn2   Zn    Zn3+2 0.500000 0.500000 0.397910 1.068814

loop_
_geom_bond_atom_site_label_1
_geom_bond_atom_site_label_2
_ccdc_geom_bond_type
C25   N6    A    
C14   C23   A    
O8    Zn2   S    
C26   N1    T    
C24   N5    A    
C11   F1    S    
C18   C21   A    
C9    C10   T    
C14   C18   A    
C11   C22   A    
C19   C20   A    
C13   C17   A    
C4    O7    A    
C16   C20   A    
O1    Zn1   S    
N1    Zn2   S    
O2    Zn2   S    
N4    N6    A    
C13   F2    S    
N3    N5    A    
C25   N3    A    
C15   C19   A    
C17   Cl2   S    
C28   O4    A    
C2    C6    S    
C1    C12   T    
C28   O1    A    
C19   Cl4   S    
C3    O5    A    
C24   N4    A    
C3    O8    A    
C5    C7    T    
C2    O3    A    
C1    C26   S    
C17   C21   A    
C11   C16   A    
C20   C25   S    
O3    Zn1   S    
C27   N2    T    
C5    C28   S    
O4    Zn2   S    
C15   F4    S    
O6    Zn2   S    
C13   C23   A    
C8    C10   S    
C4    O6    A    
C21   C24   S    
C14   F3    S    
C7    C9    S    
C4    C23   S    
C3    C22   S    
C6    C8    T    
N2    Zn1   S    
C12   C27   S    
C16   Cl1   S    
C15   C22   A    
O5    Zn1   S    
C18   Cl3   S    
C2    O2    A    
O7    Zn1   S    
