data_mof_unit_61977.cif
_audit_creation_date              2012-12-10T19:27:00-0500
_audit_creation_method            fapswitch 2.2
_symmetry_space_group_name_H-M    P1
_symmetry_Int_Tables_number       1
_space_group_crystal_system       triclinic
_cell_length_a                    17.728991
_cell_length_b                    16.535193
_cell_length_c                    14.352802
_cell_angle_alpha                 90.000016
_cell_angle_beta                  91.900779
_cell_angle_gamma                 90.0
_cell_volume                      4205.24159909

loop_
_atom_site_label
_atom_site_type_symbol
_atom_type_description
_atom_site_fract_x
_atom_site_fract_y
_atom_site_fract_z
_atom_type_partial_charge
C1    C     C_R   0.355288 0.500000 0.499928 0.820889
C2    C     C_R   0.644712 0.500000 0.500072 0.820889
C3    C     C_1   0.966174 0.500000 0.500000 -0.043340
C4    C     C_1   0.033826 0.500000 0.500000 -0.043340
C5    C     C_R   0.547877 0.829945 0.560457 -0.274664
C6    C     C_R   0.452123 0.170055 0.439543 -0.274665
C7    C     C_R   0.452123 0.829945 0.439543 -0.274664
C8    C     C_R   0.547877 0.170055 0.560457 -0.274664
C9    C     C_R   0.547475 0.744488 0.559981 0.406436
C10   C     C_R   0.452525 0.255512 0.440019 0.406436
C11   C     C_R   0.452525 0.744488 0.440019 0.406436
C12   C     C_R   0.547475 0.255512 0.559981 0.406436
C13   C     C_R   0.500000 0.873780 0.500000 0.040526
C14   C     C_R   0.500000 0.126220 0.500000 0.040526
C15   C     C_1   0.500000 0.962916 0.500000 0.014486
C16   C     C_1   0.500000 0.037084 0.500000 0.014486
C17   C     C_R   0.499858 0.500000 0.330808 0.847694
C18   C     C_R   0.500142 0.500000 0.669192 0.847695
C19   C     C_1   0.499841 0.500000 0.228577 -0.133000
C20   C     C_1   0.500159 0.500000 0.771423 -0.132999
C21   C     C_1   0.499869 0.500000 0.143235 0.027964
C22   C     C_1   0.500131 0.500000 0.856765 0.027964
C23   C     C_1   0.499956 0.500000 0.042673 0.031505
C24   C     C_1   0.500044 0.500000 0.957327 0.031505
C25   C     C_R   0.846364 0.573304 0.499929 -0.144283
C26   C     C_R   0.153636 0.426696 0.500071 -0.144283
C27   C     C_R   0.153636 0.573304 0.500071 -0.144283
C28   C     C_R   0.846364 0.426696 0.499929 -0.144283
C29   C     C_R   0.767728 0.573401 0.499864 -0.156145
C30   C     C_R   0.232272 0.426599 0.500136 -0.156145
C31   C     C_R   0.232272 0.573401 0.500136 -0.156145
C32   C     C_R   0.767728 0.426599 0.499864 -0.156145
C33   C     C_R   0.727688 0.500000 0.499967 -0.043849
C34   C     C_R   0.272311 0.500000 0.500033 -0.043849
C35   C     C_R   0.885583 0.500000 0.499992 0.136161
C36   C     C_R   0.114417 0.500000 0.500008 0.136161
Cu1   Cu    Cu3+1 0.500000 0.580420 0.500000 1.019701
Cu2   Cu    Cu3+1 0.500000 0.419580 0.500000 1.019701
H1    H     H_    0.876543 0.630293 0.499884 0.142978
H2    H     H_    0.123457 0.369706 0.500116 0.142978
H3    H     H_    0.123457 0.630293 0.500117 0.142978
H4    H     H_    0.876543 0.369706 0.499883 0.142978
H5    H     H_    0.738417 0.630851 0.499645 0.182483
H6    H     H_    0.261583 0.369149 0.500355 0.182483
H7    H     H_    0.261583 0.630851 0.500356 0.182483
H8    H     H_    0.738417 0.369149 0.499644 0.182483
H9    H     H_    0.585770 0.861997 0.608346 0.182020
H10   H     H_    0.414230 0.138003 0.391654 0.182020
H11   H     H_    0.414230 0.861997 0.391654 0.182020
H12   H     H_    0.585770 0.138003 0.608346 0.182020
N1    N     N_R   0.500000 0.701220 0.500000 -0.209081
N2    N     N_R   0.500000 0.298780 0.500000 -0.209081
O1    O     O_R   0.391260 0.567930 0.500000 -0.557161
O2    O     O_R   0.608740 0.432070 0.500000 -0.557161
O3    O     O_R   0.608740 0.567930 0.500000 -0.557161
O4    O     O_R   0.391260 0.432070 0.500000 -0.557161
O5    O     O_R   0.500000 0.567920 0.376050 -0.534790
O6    O     O_R   0.500000 0.432080 0.623950 -0.534790
O7    O     O_R   0.500000 0.567920 0.623950 -0.534790
O8    O     O_R   0.500000 0.432080 0.376050 -0.534790
Br1   Br    Br    0.616464 0.693934 0.647540 -0.501702
Br2   Br    Br    0.383536 0.306066 0.352460 -0.501702
Br3   Br    Br    0.383536 0.693934 0.352460 -0.501702
Br4   Br    Br    0.616464 0.306066 0.647540 -0.501702

loop_
_geom_bond_atom_site_label_1
_geom_bond_atom_site_label_2
_ccdc_geom_bond_type
C6    C10   A    
C30   H6    S    
C23   C24   T    
C4    C36   S    
C5    C9    A    
Cu1   Cu2   S    
Cu2   N2    S    
C8    H12   S    
C27   C36   A    
C6    C14   A    
C27   H3    S    
C18   C20   S    
C9    N1    A    
C3    C35   S    
C8    C12   A    
C10   N2    A    
C32   C33   A    
C13   C15   S    
C31   C34   A    
Cu1   O1    S    
C10   Br2   S    
C29   H5    S    
C7    C11   A    
C5    H9    S    
Cu2   O8    S    
C26   H2    S    
Cu1   O7    S    
C6    H10   S    
C25   C35   A    
C9    Br1   S    
C5    C13   A    
C22   C24   S    
C28   H4    S    
C12   N2    A    
C1    O4    A    
C20   C22   T    
C1    C34   S    
C26   C30   A    
C11   Br3   S    
C2    O3    A    
C21   C23   S    
C25   C29   A    
Cu1   O5    S    
Cu1   N1    S    
C14   C16   S    
C11   N1    A    
C30   C34   A    
C17   O8    A    
C27   C31   A    
C3    C4    T    
Cu1   O3    S    
C29   C33   A    
C18   O7    A    
C7    C13   A    
Cu2   O4    S    
C2    C33   S    
C7    H11   S    
C2    O2    A    
C26   C36   A    
C12   Br4   S    
C1    O1    A    
C8    C14   A    
C31   H7    S    
C17   C19   S    
Cu2   O6    S    
C32   H8    S    
C18   O6    A    
C28   C32   A    
C25   H1    S    
C15   C16   T    
C28   C35   A    
C17   O5    A    
C19   C21   T    
Cu2   O2    S    
