data_mof_unit_51507.cif
_audit_creation_date              2012-12-10T20:34:49-0500
_audit_creation_method            fapswitch 2.2
_symmetry_space_group_name_H-M    P1
_symmetry_Int_Tables_number       1
_space_group_crystal_system       triclinic
_cell_length_a                    10.619583
_cell_length_b                    10.655154
_cell_length_c                    9.890361
_cell_angle_alpha                 87.968285
_cell_angle_beta                  89.936599
_cell_angle_gamma                 91.382954
_cell_volume                      1118.0954394

loop_
_atom_site_label
_atom_site_type_symbol
_atom_type_description
_atom_site_fract_x
_atom_site_fract_y
_atom_site_fract_z
_atom_type_partial_charge
C1    C     C_R   0.515572 0.261167 0.501354 0.870977
C2    C     C_3   0.878365 0.492363 0.501182 0.143837
C3    C     C_3   0.931046 0.629039 0.502295 -0.384752
C4    C     C_3   0.926420 0.427036 0.374014 -0.369479
C5    C     C_R   0.561079 0.058404 0.619128 0.126475
C6    C     C_R   0.554217 0.131981 0.500543 -0.260974
C7    C     C_R   0.572475 0.072768 0.376350 -0.090775
C8    C     C_R   0.532433 0.946732 0.369764 0.223748
C9    C     C_R   0.521711 0.874569 0.492609 -0.232439
C10   C     C_R   0.551320 0.930491 0.614142 0.090201
C11   C     C_3   0.483194 0.918278 0.746384 -0.397601
C12   C     C_R   0.257729 0.494946 0.500448 0.831244
C13   C     C_3   0.493085 0.059602 0.750792 -0.455330
C14   C     C_R   0.404060 0.441375 0.073861 0.167150
C15   C     C_R   0.586521 0.569789 0.066992 0.222599
C16   C     C_R   0.586242 0.568790 0.923926 -0.155696
C17   C     C_R   0.404300 0.441999 0.930958 0.200347
C18   C     C_3   0.372027 0.306294 0.928457 -0.490133
C19   C     C_3   0.371435 0.303981 0.081841 -0.241181
C20   C     C_R   0.499437 0.741146 0.497327 0.917742
C21   C     C_R   0.742028 0.495373 0.500308 0.829548
C22   C     C_3   0.069859 0.418635 0.629171 -0.380587
C23   C     C_3   0.925631 0.418140 0.628655 -0.379702
C24   C     C_3   0.075437 0.629067 0.501641 -0.400869
C25   C     C_3   0.069947 0.427109 0.374602 -0.346301
C26   C     C_3   0.121123 0.492378 0.501543 0.130317
H1    H     H_    0.104209 0.462743 0.723092 0.205068
H2    H     H_    0.894664 0.476570 0.279739 0.219547
H3    H     H_    0.111573 0.682883 0.410509 0.184910
H4    H     H_    0.897312 0.684023 0.412368 0.200010
H5    H     H_    0.384640 0.881974 0.736475 0.202229
H6    H     H_    0.539821 0.869509 0.825883 0.232916
H7    H     H_    0.399713 0.104107 0.741849 0.202299
H8    H     H_    0.556170 0.090434 0.833438 0.232501
H9    H     H_    0.103298 0.320347 0.631046 0.161345
H10   H     H_    0.656903 0.622511 0.866300 0.168387
H11   H     H_    0.279907 0.287490 0.878832 0.222761
H12   H     H_    0.452297 0.256188 0.888386 0.200381
H13   H     H_    0.447478 0.246906 0.127122 0.166101
H14   H     H_    0.888085 0.319631 0.629491 0.166936
H15   H     H_    0.892503 0.461369 0.722782 0.201234
H16   H     H_    0.111955 0.677122 0.592291 0.174348
H17   H     H_    0.897413 0.676181 0.593860 0.173728
H18   H     H_    0.104932 0.477306 0.280824 0.226785
H19   H     H_    0.102176 0.328631 0.374730 0.164727
H20   H     H_    0.888627 0.328690 0.372518 0.158657
N1    N     N_R   0.499150 0.499140 0.142800 -0.147087
N2    N     N_R   0.499150 0.499180 0.857150 -0.126987
O1    O     O_R   0.500020 0.316790 0.614690 -0.608553
O2    O     O_R   0.500000 0.316760 0.385350 -0.657696
O3    O     O_R   0.314800 0.500000 0.614670 -0.620510
O4    O     O_R   0.314790 0.499960 0.385330 -0.620003
O5    O     O_R   0.500000 0.683240 0.614650 -0.617539
O6    O     O_R   0.499980 0.683210 0.385310 -0.559259
O7    O     O_R   0.685210 0.500040 0.614670 -0.630041
O8    O     O_R   0.685200 0.500000 0.385330 -0.611504
Zn1   Zn    Zn3+2 0.500010 0.500020 0.653130 0.944733
Zn2   Zn    Zn3+2 0.499990 0.499980 0.346870 0.974293
C27   C     C_2   0.639551 0.138685 0.260726 0.423927
H21   H     H_    0.676336 0.233774 0.270118 0.081835
O9    O     O_2   0.662087 0.085557 0.156417 -0.540545
I1    I     I_    0.441644 0.891531 0.186378 -0.321488
I2    I     I_    0.728313 0.685925 0.150839 -0.330029
C28   C     C_2   0.244620 0.273471 0.143602 0.467444
H22   H     H_    0.238823 0.213129 0.234150 0.055999
O10   O     O_2   0.148359 0.315229 0.093814 -0.590225

loop_
_geom_bond_atom_site_label_1
_geom_bond_atom_site_label_2
_ccdc_geom_bond_type
C21   O8    A    
C2    C4    S    
C13   H7    S    
C6    C7    A    
O3    Zn1   S    
C3    H4    S    
C24   H16   S    
C9    C10   A    
C9    C20   S    
C5    C13   S    
C23   H15   S    
C17   N2    A    
C15   N1    A    
C19   C28   S    
C28   H22   S    
C16   N2    A    
C2    C21   S    
C17   C18   S    
C18   H12   S    
C11   H5    S    
C13   H8    S    
C28   O10   D    
C4    H20   S    
C16   H10   S    
N1    Zn2   S    
C22   H9    S    
C11   C13   S    
C14   C17   A    
C3    H17   S    
C3    C24   S    
C14   N1    A    
C19   H13   S    
C12   C26   S    
C25   H18   S    
C7    C27   S    
C4    H2    S    
C18   H11   S    
O8    Zn2   S    
C11   H6    S    
C4    C25   S    
C2    C3    S    
C22   H1    S    
O7    Zn1   S    
O6    Zn2   S    
C5    C6    A    
O4    Zn2   S    
C27   O9    D    
C7    C8    A    
C10   C11   S    
C5    C10   A    
C23   H14   S    
O2    Zn2   S    
C25   H19   S    
C27   H21   S    
N2    Zn1   S    
O1    Zn1   S    
C12   O3    A    
C20   O6    A    
C18   C19   S    
C1    O2    A    
C8    I1    S    
C2    C23   S    
C21   O7    A    
C15   I2    S    
C22   C23   S    
C8    C9    A    
C22   C26   S    
C1    C6    S    
C12   O4    A    
C25   C26   S    
C24   H3    S    
C1    O1    A    
C14   C19   S    
C15   C16   A    
C24   C26   S    
C20   O5    A    
O5    Zn1   S    
