data_mof_unit_38759.cif
_audit_creation_date              2013-03-05T16:49:25-0500
_audit_creation_method            fapswitch 2.2
_symmetry_space_group_name_H-M    P1
_symmetry_Int_Tables_number       1
_space_group_crystal_system       triclinic
_cell_length_a                    10.806057
_cell_length_b                    8.896735
_cell_length_c                    8.195422
_cell_angle_alpha                 89.968049
_cell_angle_beta                  91.493743
_cell_angle_gamma                 90.140315
_cell_volume                      787.626403853

loop_
_atom_site_label
_atom_site_type_symbol
_atom_site_description
_atom_site_fract_x
_atom_site_fract_y
_atom_site_fract_z
_atom_type_partial_charge
O1    O     O_R   0.499990 0.285340 0.636850 -0.617106
O2    O     O_R   0.500010 0.714660 0.363150 -0.618217
O3    O     O_R   0.500010 0.285350 0.363100 -0.622839
O4    O     O_R   0.499990 0.714650 0.636900 -0.604145
C1    C     C_R   0.500655 0.218445 0.500009 0.922226
C2    C     C_R   0.500366 0.781579 0.500005 0.947685
O5    O     O_R   0.316750 0.500000 0.636870 -0.649945
O6    O     O_R   0.683250 0.500000 0.363130 -0.660991
O7    O     O_R   0.316770 0.500020 0.363120 -0.616360
O8    O     O_R   0.683230 0.499980 0.636880 -0.594093
C3    C     C_R   0.260115 0.497448 0.497820 0.850979
C4    C     C_R   0.740918 0.493445 0.501895 0.885440
Zn1   Zn    Zn3+2 0.499990 0.499990 0.682780 0.984690
Zn2   Zn    Zn3+2 0.500010 0.500010 0.317220 0.955235
H1    H     H_    0.254423 0.059858 0.917196 0.151580
H2    H     H_    0.683125 0.321234 0.131261 0.194534
C5    C     C_R   0.208032 0.287681 0.978258 -0.131836
C6    C     C_R   0.808192 0.261102 0.946465 -0.155497
H3    H     H_    0.238970 0.332549 0.863942 0.172090
H4    H     H_    0.792208 0.141703 0.960532 0.166329
C7    C     C_R   0.158205 0.383314 0.094635 -0.173596
C8    C     C_R   0.885440 0.313634 0.826572 -0.205095
C9    C     C_R   0.118013 0.325012 0.243277 0.024921
C10   C     C_R   0.900215 0.469175 0.803024 0.014027
C11   C     C_R   0.126319 0.169215 0.273838 0.554609
C12   C     C_R   0.850640 0.572397 0.911372 0.553803
C13   C     C_R   0.175121 0.074128 0.154852 -0.239164
C14   C     C_R   0.771050 0.518699 0.029091 -0.188453
C15   C     C_R   0.216806 0.133577 0.008384 -0.199270
C16   C     C_R   0.746437 0.363686 0.042365 -0.184552
C17   C     C_R   0.933809 0.426072 0.370385 -0.224364
C18   C     C_R   0.069775 0.539005 0.635123 -0.245852
H5    H     H_    0.881937 0.365382 0.279880 0.173811
H6    H     H_    0.122088 0.573476 0.743622 0.156370
C19   C     C_R   0.874809 0.484304 0.504920 -0.107714
C20   C     C_R   0.128531 0.492553 0.494446 -0.092128
C21   C     C_R   0.944808 0.518290 0.646059 0.105598
C22   C     C_R   0.061083 0.424390 0.365005 0.048081
C23   C     C_1   0.501185 0.065385 0.500018 -0.200806
C24   C     C_1   0.501051 0.934672 0.499981 -0.202317
N1    N     N_1   0.500020 0.500030 0.073640 -0.063086
N2    N     N_1   0.499980 0.499970 0.926360 -0.039313
H7    H     H_    0.150835 0.502369 0.069128 0.132098
H8    H     H_    0.926103 0.233964 0.743628 0.180822
O9    O     O_3   0.074323 0.109204 0.412035 -0.620497
C25   C     C_3   0.169769 0.064991 0.522018 -0.329652
H9    H     H_    0.230748 0.161605 0.556165 0.149282
H10   H     H_    0.224863 0.971120 0.471774 0.161410
H11   H     H_    0.127262 0.023698 0.635440 0.199134
O10   O     O_3   0.861876 0.725031 0.883255 -0.610135
C26   C     C_3   0.940007 0.787355 0.006062 -0.348247
H12   H     H_    0.033569 0.735352 0.005772 0.146308
H13   H     H_    0.899202 0.776791 0.128831 0.177691
H14   H     H_    0.951720 0.908984 0.980638 0.206092
H15   H     H_    0.178841 0.953921 0.174946 0.145437
H16   H     H_    0.724221 0.599615 0.103260 0.184984

loop_
_geom_bond_atom_site_label_1
_geom_bond_atom_site_label_2
_geom_bond_distance
_ccdc_geom_bond_type
O6    Zn2   2.005873 S    
O7    Zn2   2.025128 S    
C17   H5    1.064507 S    
C6    C16   1.388202 A    
C11   C13   1.405196 A    
C9    C22   1.480216 S    
C5    C15   1.395958 A    
N1    N2    1.207010 T    
C12   C14   1.392629 A    
C17   C22   1.377310 A    
O6    C4    1.283824 A    
C26   H14   1.109427 S    
C12   O10   1.382807 S    
C10   C21   1.452109 S    
C14   H16   1.078000 S    
O10   C26   1.409702 S    
C7    H7    1.082243 S    
O9    C25   1.408569 S    
C4    C19   1.448881 S    
O5    C3    1.279561 A    
O7    C3    1.276373 A    
C25   H11   1.109529 S    
O2    C2    1.270011 A    
O3    Zn2   1.946230 S    
O8    C4    1.285302 A    
Zn2   N1    1.996244 S    
O1    C1    1.270086 A    
C18   C20   1.393942 A    
C8    C10   1.406374 A    
C14   C16   1.408569 A    
C3    C20   1.422017 S    
C5    H3    1.078931 S    
C10   C12   1.395317 A    
C8    H8    1.084064 S    
H1    C15   1.082391 S    
C2    C24   1.362032 S    
C1    C23   1.361762 S    
C7    C9    1.402649 A    
O2    Zn2   1.946635 S    
C13   H15   1.082653 S    
O1    Zn1   1.946633 S    
C26   H13   1.112839 S    
H2    C16   1.079768 S    
C26   H12   1.112952 S    
C25   H10   1.112230 S    
C11   O9    1.383664 S    
O5    Zn1   2.005873 S    
C9    C11   1.411049 A    
C20   C22   1.408035 A    
C13   C15   1.396363 A    
C6    H4    1.082368 S    
O4    C2    1.269942 A    
C23   C24   1.162916 T    
C25   H9    1.113199 S    
Zn1   N2    1.996244 S    
C17   C19   1.389042 A    
C18   C21   1.367713 A    
C19   C21   1.398276 A    
C6    C8    1.386007 A    
C5    C7    1.397631 A    
O4    Zn1   1.946230 S    
O3    C1    1.269711 A    
O8    Zn1   2.025128 S    
C18   H6    1.085142 S    
