data_mof_unit_13731.cif
_audit_creation_date              2012-12-10T18:01:43-0500
_audit_creation_method            fapswitch 2.2
_symmetry_space_group_name_H-M    P1
_symmetry_Int_Tables_number       1
_space_group_crystal_system       triclinic
_cell_length_a                    10.829308
_cell_length_b                    9.516562
_cell_length_c                    19.301454
_cell_angle_alpha                 89.990358
_cell_angle_beta                  90.171019
_cell_angle_gamma                 90.076097
_cell_volume                      1989.15437702

loop_
_atom_site_label
_atom_site_type_symbol
_atom_type_description
_atom_site_fract_x
_atom_site_fract_y
_atom_site_fract_z
_atom_type_partial_charge
C1    C     C_R   0.262054 0.499948 0.499942 0.801989
C2    C     C_R   0.737946 0.500052 0.500058 0.801989
C3    C     C_R   0.498072 0.499762 0.930118 0.326522
C4    C     C_R   0.501932 0.500240 0.069882 0.326525
C5    C     C_R   0.499708 0.499992 0.367611 0.792556
C6    C     C_R   0.500292 0.500008 0.632389 0.792556
C7    C     C_R   0.063691 0.372268 0.500314 -0.164062
C8    C     C_R   0.936309 0.627732 0.499686 -0.164062
C9    C     C_R   0.935964 0.372328 0.500405 -0.129924
C10   C     C_R   0.064036 0.627672 0.499594 -0.129925
C11   C     C_R   0.871779 0.500063 0.500070 -0.022484
C12   C     C_R   0.128221 0.499937 0.499930 -0.022484
C13   C     C_R   0.420630 0.074325 0.458406 -0.005952
C14   C     C_R   0.579370 0.925675 0.541594 -0.005953
C15   C     C_R   0.579381 0.074512 0.541580 -0.007438
C16   C     C_R   0.420619 0.925487 0.458420 -0.007438
C17   C     C_R   0.405062 0.568991 0.254720 -0.055484
C18   C     C_R   0.594942 0.431014 0.745280 -0.055484
C19   C     C_R   0.404115 0.569133 0.744409 -0.055534
C20   C     C_R   0.595884 0.430862 0.255591 -0.055534
C21   C     C_R   0.405782 0.570681 0.181504 -0.025257
C22   C     C_R   0.594224 0.429327 0.818496 -0.025257
C23   C     C_R   0.402986 0.570202 0.817631 -0.027769
C24   C     C_R   0.597014 0.429795 0.182369 -0.027771
C25   C     C_R   0.502686 0.501964 0.145915 -0.097176
C26   C     C_R   0.497318 0.498038 0.854085 -0.097179
C27   C     C_R   0.500084 0.499819 0.291348 -0.180760
C28   C     C_R   0.499916 0.500181 0.708652 -0.180761
Cu1   Cu    Cu3+1 0.500000 0.640660 0.500000 0.971712
Cu2   Cu    Cu3+1 0.500000 0.359340 0.500000 0.971712
H1    H     H_    0.111608 0.272421 0.500565 0.155401
H2    H     H_    0.888392 0.727578 0.499435 0.155401
H3    H     H_    0.887773 0.272506 0.500737 0.159468
H4    H     H_    0.112227 0.727494 0.499263 0.159468
H5    H     H_    0.357070 0.130349 0.425075 0.129958
H6    H     H_    0.642930 0.869651 0.574925 0.129958
H7    H     H_    0.642971 0.130664 0.574868 0.138833
H8    H     H_    0.357029 0.869336 0.425132 0.138834
N1    N     N_R   0.500000 0.852070 0.500000 -0.164543
N2    N     N_R   0.500000 0.147930 0.500000 -0.164543
N3    N     N_R   0.422427 0.415448 0.035085 -0.197390
N4    N     N_R   0.577577 0.584554 0.964915 -0.197392
N5    N     N_R   0.420724 0.414957 0.966171 -0.218608
N6    N     N_R   0.579280 0.585045 0.033829 -0.218608
O1    O     O_R   0.319640 0.618740 0.500000 -0.583287
O2    O     O_R   0.680360 0.381260 0.500000 -0.583287
O3    O     O_R   0.680360 0.618740 0.500000 -0.591148
O4    O     O_R   0.319640 0.381260 0.500000 -0.591148
O5    O     O_R   0.499980 0.618820 0.400140 -0.573615
O6    O     O_R   0.500020 0.381180 0.599860 -0.573615
O7    O     O_R   0.500020 0.618820 0.599860 -0.572500
O8    O     O_R   0.499980 0.381180 0.400140 -0.572500
C29   C     C_1   0.307376 0.638208 0.293104 0.342898
N7    N     N_1   0.229567 0.693075 0.323891 -0.266704
C30   C     C_1   0.692630 0.361802 0.706895 0.342894
N8    N     N_1   0.770441 0.306939 0.676107 -0.266702
C31   C     C_1   0.303449 0.631289 0.705136 0.359019
N9    N     N_1   0.223350 0.680517 0.673605 -0.244091
C32   C     C_1   0.696548 0.368700 0.294864 0.359015
N10   N     N_1   0.776644 0.319469 0.326395 -0.244092
C33   C     C_2   0.307611 0.645085 0.140882 0.414403
H9    H     H_    0.325868 0.680392 0.088453 0.089487
O9    O     O_2   0.204592 0.665064 0.164372 -0.502291
C34   C     C_2   0.692399 0.354929 0.859117 0.414406
H10   H     H_    0.674143 0.319622 0.911546 0.089487
O10   O     O_2   0.795418 0.334957 0.835627 -0.502291
C35   C     C_2   0.305210 0.647070 0.857139 0.409250
H11   H     H_    0.286008 0.620525 0.910640 0.099664
O11   O     O_2   0.247065 0.743770 0.831378 -0.505138
C36   C     C_2   0.694787 0.352921 0.142862 0.409243
H12   H     H_    0.713996 0.379473 0.089362 0.099662
O12   O     O_2   0.752922 0.256209 0.168621 -0.505133

loop_
_geom_bond_atom_site_label_1
_geom_bond_atom_site_label_2
_ccdc_geom_bond_type
C23   C26   A    
C19   C23   A    
C30   N8    T    
C1    O4    A    
Cu1   Cu2   S    
C20   C27   A    
C6    O7    A    
C17   C21   A    
N3    N5    A    
C17   C27   A    
C21   C33   S    
C3    N4    A    
C5    C27   S    
C3    N5    A    
C34   H10   S    
Cu1   N1    S    
C33   O9    D    
C4    C25   S    
Cu2   O6    S    
Cu2   N2    S    
C32   N10   T    
C10   H4    S    
Cu1   O5    S    
C29   N7    T    
C2    O2    A    
C20   C32   S    
C9    H3    S    
C19   C28   A    
C9    C11   A    
C1    O1    A    
C31   N9    T    
C7    C12   A    
C1    C12   S    
N4    N6    A    
C18   C30   S    
Cu1   O3    S    
C8    C11   A    
C2    C11   S    
C10   C12   A    
Cu2   O4    S    
Cu2   O2    S    
C13   H5    S    
C14   H6    S    
C33   H9    S    
C2    O3    A    
C6    C28   S    
C15   N2    A    
C5    O5    A    
Cu1   O1    S    
C7    H1    S    
C4    N3    A    
C16   N1    A    
C24   C36   S    
C35   H11   S    
C8    H2    S    
C6    O6    A    
C17   C29   S    
C36   H12   S    
C18   C28   A    
C24   C25   A    
C8    C10   A    
Cu1   O7    S    
C13   C16   A    
C23   C35   S    
C7    C9    A    
C21   C25   A    
C14   C15   A    
C15   H7    S    
C13   N2    A    
C22   C26   A    
C4    N6    A    
C5    O8    A    
C14   N1    A    
C18   C22   A    
C22   C34   S    
C36   O12   D    
C3    C26   S    
C19   C31   S    
C20   C24   A    
C16   H8    S    
Cu2   O8    S    
C35   O11   D    
C34   O10   D    
