data_mof_unit_18191.cif
_audit_creation_date              2012-12-10T20:44:47-0500
_audit_creation_method            fapswitch 2.2
_symmetry_space_group_name_H-M    P1
_symmetry_Int_Tables_number       1
_space_group_crystal_system       triclinic
_cell_length_a                    9.84837
_cell_length_b                    10.718928
_cell_length_c                    16.816746
_cell_angle_alpha                 88.575641
_cell_angle_beta                  94.211667
_cell_angle_gamma                 88.638689
_cell_volume                      1769.31866708

loop_
_atom_site_label
_atom_site_type_symbol
_atom_type_description
_atom_site_fract_x
_atom_site_fract_y
_atom_site_fract_z
_atom_type_partial_charge
C1    C     C_R   0.500637 0.259596 0.496695 0.875456
C2    C     C_R   0.648619 0.505887 0.790841 0.078162
C3    C     C_R   0.584069 0.569162 0.140553 -0.167503
C4    C     C_R   0.591926 0.545539 0.221834 -0.230921
C5    C     C_R   0.456945 0.573513 0.097302 0.324639
C6    C     C_R   0.472554 0.527441 0.260761 -0.029804
C7    C     C_R   0.344803 0.538202 0.217833 -0.220562
C8    C     C_R   0.337256 0.561834 0.135999 -0.194091
C9    C     C_R   0.616684 0.059766 0.470384 0.137961
C10   C     C_R   0.498073 0.128377 0.482154 -0.103534
C11   C     C_R   0.372310 0.068119 0.475643 -0.229415
C12   C     C_R   0.517718 0.501205 0.653898 0.859142
C13   C     C_R   0.370138 0.938970 0.476091 -0.232874
C14   C     C_R   0.493857 0.871278 0.482115 -0.105905
C15   C     C_R   0.614108 0.932305 0.471104 0.138427
C16   C     C_3   0.750710 0.916233 0.514793 -0.466851
C17   C     C_3   0.755103 0.056933 0.513273 -0.519505
C18   C     C_R   0.080528 0.443070 0.561951 0.176996
C19   C     C_R   0.063264 0.566221 0.443843 -0.144699
C20   C     C_R   0.919220 0.566429 0.443948 -0.130256
C21   C     C_R   0.937243 0.443260 0.560890 0.165197
C22   C     C_3   0.933156 0.309585 0.581747 -0.590863
C23   C     C_R   0.498117 0.740052 0.496874 0.873127
C24   C     C_3   0.087605 0.305779 0.585606 -0.057831
C25   C     C_R   0.482496 0.505720 0.346593 0.866664
C26   C     C_R   0.525232 0.500947 0.741510 -0.099262
C27   C     C_R   0.400619 0.492778 0.776843 -0.290919
C28   C     C_R   0.394368 0.482334 0.858781 0.119096
C29   C     C_R   0.517288 0.485980 0.907040 0.269475
C30   C     C_R   0.641738 0.495157 0.873344 -0.258233
H1    H     H_    0.691534 0.540457 0.253840 0.158930
H2    H     H_    0.273408 0.893291 0.477862 0.171517
H3    H     H_    0.746297 0.875026 0.575878 0.207595
H4    H     H_    0.826452 0.871508 0.477919 0.203939
H5    H     H_    0.755758 0.096826 0.573709 0.209608
H6    H     H_    0.833039 0.090190 0.473794 0.200047
H7    H     H_    0.110614 0.617601 0.397585 0.143453
H8    H     H_    0.857668 0.618103 0.397801 0.140726
H9    H     H_    0.885456 0.292514 0.638768 0.189067
H10   H     H_    0.887851 0.260512 0.530246 0.212220
H11   H     H_    0.676912 0.579298 0.110454 0.138724
H12   H     H_    0.127116 0.245907 0.539122 0.176185
H13   H     H_    0.733638 0.499975 0.912724 0.144219
H14   H     H_    0.251376 0.526849 0.247135 0.157201
H15   H     H_    0.239176 0.564990 0.102245 0.132519
H16   H     H_    0.305924 0.494627 0.740208 0.176917
H17   H     H_    0.276441 0.119101 0.476207 0.165495
N1    N     N_2   0.519713 0.486784 0.990248 -0.202340
N2    N     N_2   0.450061 0.574685 0.014015 -0.209225
N3    N     N_R   0.142860 0.499130 0.500540 -0.113988
N4    N     N_R   0.857210 0.499170 0.500530 -0.095437
O1    O     O_R   0.614690 0.316790 0.499990 -0.609829
O2    O     O_R   0.385350 0.316760 0.500000 -0.624950
O3    O     O_R   0.627460 0.498860 0.616130 -0.614519
O4    O     O_R   0.398120 0.498820 0.616130 -0.616863
O5    O     O_R   0.614650 0.683240 0.500000 -0.620503
O6    O     O_R   0.385310 0.683210 0.500010 -0.620262
O7    O     O_R   0.601880 0.501180 0.383870 -0.624202
O8    O     O_R   0.372540 0.501140 0.383870 -0.623820
Zn1   Zn    Zn3+2 0.653130 0.500020 0.499990 0.938555
Zn2   Zn    Zn3+2 0.346870 0.499980 0.500010 0.940511
C31   C     C_3   0.147617 0.273613 0.671424 -0.353504
C32   C     C_3   0.290328 0.214609 0.673943 -0.853184
H18   H     H_    0.288884 0.126863 0.640177 0.252777
H19   H     H_    0.362529 0.278714 0.648601 0.285033
H20   H     H_    0.327003 0.192171 0.736806 0.236521
H21   H     H_    0.146432 0.357092 0.708921 0.196208
H22   H     H_    0.083178 0.203599 0.699477 0.209604
C33   C     C_3   0.787081 0.531409 0.760558 -0.397049
C34   C     C_3   0.796853 0.669276 0.734895 -0.309582
C35   C     C_3   0.938892 0.699072 0.710318 -0.895882
H23   H     H_    0.016779 0.676588 0.760103 0.253921
H24   H     H_    0.962727 0.645095 0.657552 0.262620
H25   H     H_    0.943212 0.800036 0.694533 0.248358
H26   H     H_    0.721287 0.693333 0.684257 0.229068
H27   H     H_    0.773892 0.729161 0.785525 0.215349
H28   H     H_    0.868819 0.510370 0.808619 0.180255
H29   H     H_    0.810334 0.467975 0.712269 0.217187
C36   C     C_3   0.256200 0.465849 0.891925 -0.415905
C37   C     C_3   0.244698 0.335692 0.930360 -0.324574
C38   C     C_3   0.103395 0.317975 0.959939 -0.901146
H30   H     H_    0.082759 0.388080 0.005393 0.259889
H31   H     H_    0.024160 0.327848 0.909466 0.254177
H32   H     H_    0.097885 0.223199 0.987503 0.254539
H33   H     H_    0.263623 0.263488 0.885841 0.219076
H34   H     H_    0.321646 0.322049 0.981692 0.239500
H35   H     H_    0.236018 0.539288 0.935107 0.212849
H36   H     H_    0.173408 0.477967 0.843453 0.181094

loop_
_geom_bond_atom_site_label_1
_geom_bond_atom_site_label_2
_ccdc_geom_bond_type
C32   H19   S    
C18   C21   A    
C24   H12   S    
C13   H2    S    
C11   H17   S    
C19   C20   A    
C36   H35   S    
C38   H30   S    
C7    C8    A    
O3    Zn1   S    
C26   C27   A    
C29   C30   A    
C31   H21   S    
C18   C24   S    
C28   C29   A    
C20   N4    A    
C6    C25   S    
O7    Zn1   S    
C15   C16   S    
C28   C36   S    
C1    O2    A    
C8    H15   S    
C37   H34   S    
C19   H7    S    
C16   H4    S    
C33   H28   S    
C16   C17   S    
C34   C35   S    
C17   H6    S    
C2    C33   S    
O1    Zn1   S    
C9    C10   A    
C32   H20   S    
C13   C14   A    
C5    N2    S    
C33   H29   S    
O2    Zn2   S    
C36   H36   S    
C38   H31   S    
O8    Zn2   S    
C29   N1    S    
C4    H1    S    
C23   O5    A    
C4    C6    A    
C35   H24   S    
C32   H18   S    
C12   C26   S    
C14   C23   S    
C37   H33   S    
C16   H3    S    
C5    C8    A    
C20   H8    S    
C22   H10   S    
C31   C32   S    
C2    C26   A    
C7    H14   S    
C27   H16   S    
C9    C17   S    
N1    N2    D    
C34   H27   S    
C22   C24   S    
C30   H13   S    
C25   O7    A    
C3    C4    A    
C21   N4    A    
C38   H32   S    
C18   N3    A    
C23   O6    A    
C3    H11   S    
C24   C31   S    
C1    C10   S    
C37   C38   S    
C3    C5    A    
C35   H25   S    
O6    Zn2   S    
C6    C7    A    
C17   H5    S    
C31   H22   S    
C2    C30   A    
C9    C15   A    
C35   H23   S    
C11   C13   A    
C19   N3    A    
C22   H9    S    
O4    Zn2   S    
C33   C34   S    
C1    O1    A    
C12   O4    A    
C10   C11   A    
C36   C37   S    
O5    Zn1   S    
C34   H26   S    
N3    Zn2   S    
C14   C15   A    
N4    Zn1   S    
C25   O8    A    
C21   C22   S    
C12   O3    A    
C27   C28   A    
