data_mof_unit_29931.cif
_audit_creation_date              2012-12-11T20:37:41-0500
_audit_creation_method            fapswitch 2.2
_symmetry_space_group_name_H-M    P1
_symmetry_Int_Tables_number       1
_space_group_crystal_system       triclinic
_cell_length_a                    8.408089
_cell_length_b                    18.956559
_cell_length_c                    22.961631
_cell_angle_alpha                 97.271022
_cell_angle_beta                  89.580601
_cell_angle_gamma                 94.09725
_cell_volume                      3621.10430958

loop_
_atom_site_label
_atom_site_type_symbol
_atom_type_description
_atom_site_fract_x
_atom_site_fract_y
_atom_site_fract_z
_atom_type_partial_charge
Ba1   Ba    Ba6+2 0.849480 0.533290 0.473010 1.728896
Ba2   Ba    Ba6+2 0.340340 0.466770 0.527000 1.716303
C1    C     C_3   0.560694 0.760894 0.259792 -0.142697
C2    C     C_R   0.052496 0.569245 0.947514 -0.022503
C3    C     C_R   0.001889 0.568735 0.888679 0.621904
C4    C     C_3   0.040880 0.711006 0.320724 0.237732
C5    C     C_R   0.964194 0.441180 0.877106 0.627138
C6    C     C_R   0.011541 0.440034 0.936012 -0.026506
C7    C     C_R   0.057691 0.504272 0.971238 -0.042167
C8    C     C_R   0.099357 0.633213 0.983025 -0.060664
C9    C     C_R   0.152151 0.632749 0.040521 -0.073410
C10   C     C_R   0.158659 0.568339 0.064768 -0.034907
C11   C     C_R   0.109515 0.503637 0.030241 -0.043187
C12   C     C_3   0.598653 0.725795 0.315317 0.146959
C13   C     C_R   0.012198 0.375794 0.960385 -0.094694
C14   C     C_R   0.057369 0.374203 0.018913 -0.043530
C15   C     C_R   0.113480 0.438569 0.054269 -0.056187
C16   C     C_3   0.002678 0.754080 0.270023 -0.198269
C17   C     C_R   0.176401 0.440318 0.112034 0.607327
C18   C     C_R   0.212002 0.567735 0.122965 0.667804
C19   C     C_2   0.774131 0.484657 0.771369 -0.096881
C20   C     C_3   0.734279 0.489283 0.707583 -0.037644
C21   C     C_1   0.011694 0.518525 0.690185 -0.021300
C22   C     C_2   0.049300 0.525901 0.747836 -0.122806
C23   C     C_3   0.508869 0.332980 0.343774 0.240857
C24   C     C_2   0.924152 0.504446 0.791465 0.186187
C25   C     C_R   0.410482 0.535075 0.229851 -0.018497
C26   C     C_R   0.458482 0.532229 0.288013 0.047946
C27   C     C_R   0.201595 0.472381 0.308965 0.031461
C28   C     C_3   0.196166 0.682014 0.597316 0.284106
C29   C     C_R   0.152047 0.474392 0.249672 -0.060025
C30   C     C_R   0.259367 0.504698 0.209088 0.192234
C31   C     C_2   0.880944 0.481123 0.670329 -0.256139
C32   C     C_2   0.412467 0.700823 0.480357 -0.288465
C33   C     C_3   0.331703 0.745087 0.441776 -0.031490
C34   C     C_3   0.450680 0.283062 0.288772 -0.203267
C35   C     C_2   0.368982 0.824411 0.456886 -0.054969
C36   C     C_2   0.486272 0.850621 0.495256 -0.088274
C37   C     C_2   0.571113 0.798943 0.526874 -0.067634
C38   C     C_1   0.530545 0.728881 0.515494 0.007037
C39   C     C_R   0.638387 0.069418 0.513744 0.489023
C40   C     C_3   0.219955 0.762546 0.612787 -0.326905
C41   C     C_R   0.533049 0.928961 0.503048 0.494289
C42   C     C_R   0.609943 0.193707 0.493439 -0.074754
C43   C     C_R   0.657538 0.266401 0.499533 0.099320
C44   C     C_R   0.894218 0.245023 0.552139 -0.071206
C45   C     C_3   0.134021 0.320384 0.684851 0.350046
C46   C     C_R   0.845691 0.171201 0.547657 -0.102791
C47   C     C_R   0.699288 0.145656 0.518943 -0.094272
C48   C     C_R   0.795249 0.291965 0.530736 -0.261466
C49   C     C_3   0.004074 0.319777 0.409210 0.317221
C50   C     C_3   0.991844 0.238726 0.397155 -0.322113
C51   C     C_3   0.771622 0.660563 0.649582 0.360622
C52   C     C_3   0.757806 0.669055 0.716146 -0.339875
C53   C     C_2   0.685925 0.780442 0.361070 0.874183
C54   C     C_2   0.441307 0.817054 0.268707 0.931150
C55   C     C_2   0.397509 0.324979 0.242409 0.796396
C56   C     C_3   0.172946 0.302136 0.745554 -0.279726
C57   C     C_2   0.575182 0.234739 0.262506 0.935215
C58   C     C_2   0.950817 0.709266 0.213293 0.924014
C59   C     C_2   0.548786 0.238793 0.647508 0.854900
C60   C     C_2   0.033475 0.304249 0.041349 0.968767
C61   C     C_2   0.207827 0.556376 0.770597 0.963242
C62   C     C_2   0.990961 0.444828 0.229427 0.985136
C63   C     C_2   0.187205 0.671866 0.306105 0.786560
C64   C     C_2   0.703855 0.825857 0.567686 0.905137
C65   C     C_2   0.952292 0.120574 0.568218 0.921768
C66   C     C_3   0.647359 0.298160 0.682889 0.340635
C67   C     C_3   0.739126 0.269714 0.730958 -0.345699
C68   C     C_R   0.358982 0.495751 0.325098 -0.239265
H1    H     H_    0.318410 0.776141 0.645138 0.159256
H2    H     H_    0.597853 0.374963 0.331735 0.074142
H3    H     H_    0.347819 0.248589 0.302461 0.059235
H4    H     H_    0.518104 0.719045 0.224009 0.152914
H5    H     H_    0.009855 0.336505 0.684656 -0.083587
H6    H     H_    0.292299 0.280745 0.745649 0.154851
H7    H     H_    0.736417 0.321385 0.653305 -0.131862
H8    H     H_    0.820442 0.229491 0.711355 0.128818
H9    H     H_    0.946792 0.669389 0.326093 0.103375
H10   H     H_    0.810805 0.314355 0.756149 0.154243
H11   H     H_    0.972005 0.326171 0.934132 0.149456
H12   H     H_    0.108838 0.784049 0.631807 0.129280
H13   H     H_    0.490038 0.561560 0.200893 0.112530
H14   H     H_    0.096709 0.684033 0.966280 0.140946
H15   H     H_    0.680418 0.470719 0.801541 0.108471
H16   H     H_    0.397467 0.493910 0.369742 0.052915
H17   H     H_    0.502978 0.174666 0.468579 0.102080
H18   H     H_    0.381637 0.643815 0.473155 0.067601
H19   H     H_    0.910791 0.791039 0.283789 0.098086
H20   H     H_    0.108567 0.789093 0.260734 0.121136
H21   H     H_    0.310436 0.660657 0.582681 0.020800
H22   H     H_    0.106570 0.669849 0.561632 0.062635
H23   H     H_    0.096878 0.335953 0.443164 0.066629
H24   H     H_    0.728442 0.709235 0.415834 0.288226
H25   H     H_    0.249785 0.788123 0.572985 0.073129
H26   H     H_    0.888754 0.338712 0.425437 -0.008471
H27   H     H_    0.888392 0.219902 0.368262 0.168629
H28   H     H_    0.102553 0.219956 0.375610 0.131595
H29   H     H_    0.800748 0.605440 0.633531 -0.030721
H30   H     H_    0.871005 0.656480 0.735787 0.096985
H31   H     H_    0.658902 0.632683 0.729722 0.127798
H32   H     H_    0.320986 0.888269 0.231716 0.333895
H33   H     H_    0.463525 0.391470 0.182928 0.344865
H34   H     H_    0.976398 0.214948 0.438543 0.053259
H35   H     H_    0.806971 0.213718 0.255645 0.340594
H36   H     H_    0.888055 0.708434 0.128636 0.317177
H37   H     H_    0.215507 0.365782 0.675543 0.104417
H38   H     H_    0.172769 0.350809 0.777967 0.128935
H39   H     H_    0.083535 0.261229 0.758706 0.132055
H40   H     H_    0.473691 0.134546 0.633426 0.332878
H41   H     H_    0.655859 0.245125 0.761703 0.162720
H42   H     H_    0.062925 0.198786 0.027765 0.338583
H43   H     H_    0.187843 0.683359 0.066072 0.148719
H44   H     H_    0.391207 0.549504 0.825348 0.306411
H45   H     H_    0.867120 0.699832 0.638034 0.050581
H46   H     H_    0.820199 0.364748 0.227474 0.359535
H47   H     H_    0.325649 0.628510 0.359648 0.225386
H48   H     H_    0.886291 0.437718 0.634825 0.049811
H49   H     H_    0.305897 0.859941 0.433189 0.155394
H50   H     H_    0.785580 0.841259 0.650944 0.310695
H51   H     H_    0.068922 0.031251 0.548640 0.333157
H52   H     H_    0.833762 0.347973 0.533110 0.044316
H53   H     H_    0.671028 0.786139 0.242590 0.071264
H54   H     H_    0.733458 0.724831 0.732792 0.155129
H55   H     H_    0.488315 0.707591 0.335692 -0.051035
H56   H     H_    0.403963 0.358880 0.364288 -0.029654
N1    N     N_R   0.962566 0.504914 0.853574 -0.414842
N2    N     N_R   0.215815 0.504387 0.147051 -0.429222
N3    N     N_R   0.565012 0.037313 0.463782 -0.210085
N4    N     N_R   0.513986 0.968538 0.458477 -0.182691
N5    N     N_R   0.601625 0.961858 0.553644 -0.211179
N6    N     N_R   0.653327 0.030492 0.558894 -0.201401
O1    O     O_2   0.898140 0.461210 0.359840 -0.438534
O2    O     O_2   0.218505 0.246610 0.530613 -0.435562
O3    O     O_3   0.155190 0.261268 0.642955 -0.529787
O4    O     O_3   0.138540 0.461940 0.430900 -0.507464
O5    O     O_3   0.557600 0.585010 0.531050 -0.472322
O6    O     O_2   0.379790 0.327560 0.468300 -0.463077
O7    O     O_3   0.581875 0.291713 0.380955 -0.634505
O8    O     O_2   0.410595 0.461759 0.703104 -0.476735
O9    O     O_3   0.544112 0.347701 0.709929 -0.616660
O10   O     O_2   0.993559 0.625079 0.868621 -0.581156
O11   O     O_2   0.925447 0.385192 0.846614 -0.620672
O12   O     O_3   0.626260 0.674229 0.625714 -0.594732
O13   O     O_2   0.199276 0.384692 0.130879 -0.537541
O14   O     O_2   0.255358 0.623984 0.152110 -0.538905
O15   O     O_3   0.654260 0.589640 0.397760 -0.516975
O16   O     O_2   0.780144 0.542809 0.298005 -0.418801
O17   O     O_3   0.043846 0.347015 0.356755 -0.570758
O18   O     O_3   0.694086 0.668705 0.296344 -0.638310
O19   O     O_2   0.809910 0.672460 0.531740 -0.494265
O20   O     O_3   0.065030 0.625960 0.427320 -0.458819
O21   O     O_2   0.022348 0.755127 0.487611 -0.419774
O22   O     O_2   0.705012 0.843113 0.353358 -0.537867
O23   O     O_3   0.050838 0.758396 0.373740 -0.568381
O24   O     O_R   0.742872 0.761665 0.413239 -0.687684
O25   O     O_2   0.379457 0.832501 0.316559 -0.619431
O26   O     O_R   0.401822 0.851560 0.221076 -0.703347
O27   O     O_2   0.258568 0.318146 0.226270 -0.503654
O28   O     O_R   0.509048 0.369661 0.216560 -0.776407
O29   O     O_2   0.534037 0.182476 0.227660 -0.553905
O30   O     O_R   0.736365 0.249855 0.276825 -0.711458
O31   O     O_2   0.934472 0.644218 0.209739 -0.548245
O32   O     O_R   0.921677 0.743315 0.164324 -0.728124
O33   O     O_2   0.468418 0.252718 0.607119 -0.571975
O34   O     O_2   0.291560 0.538810 0.640200 -0.425805
O35   O     O_R   0.546956 0.168553 0.660457 -0.748524
O36   O     O_2   0.958994 0.298962 0.086739 -0.523064
O37   O     O_R   0.088543 0.243581 0.008610 -0.734591
O38   O     O_2   0.269413 0.610676 0.753964 -0.570527
O39   O     O_R   0.284734 0.523797 0.812787 -0.760737
O40   O     O_2   0.914569 0.476009 0.196801 -0.567681
O41   O     O_R   0.928544 0.379965 0.245660 -0.668495
O42   O     O_2   0.265349 0.679976 0.262503 -0.612978
O43   O     O_R   0.220580 0.618651 0.338431 -0.776770
O44   O     O_2   0.825642 0.854127 0.548969 -0.533285
O45   O     O_3   0.051160 0.538120 0.569110 -0.508831
O46   O     O_R   0.687205 0.820950 0.627630 -0.760781
O47   O     O_2   0.999026 0.129020 0.619053 -0.566561
O48   O     O_R   0.996854 0.062344 0.529512 -0.722788
O49   O     O_3   0.535440 0.410410 0.602240 -0.451203
O50   O     O_3   0.143829 0.652582 0.647367 -0.605573
O51   O     O_3   0.632100 0.415050 0.468960 -0.478248
O52   O     O_3   0.124670 0.374100 0.572690 -0.510059
P1    P     P_3+3 0.069200 0.440380 0.368230 1.066816
P2    P     P_3+3 0.634560 0.662100 0.548650 1.005526
P3    P     P_3+3 0.113922 0.719195 0.434584 1.018671
P4    P     P_3+3 0.120500 0.559680 0.631780 1.018054
P5    P     P_3+3 0.097712 0.281719 0.574286 1.019151
P6    P     P_3+3 0.638045 0.585332 0.320796 0.974268
P7    P     P_3+3 0.563011 0.325121 0.454888 0.984934
P8    P     P_3+3 0.562097 0.427716 0.678863 0.996796

loop_
_geom_bond_atom_site_label_1
_geom_bond_atom_site_label_2
_ccdc_geom_bond_type
C42   C47   A    
O19   P2    D    
C60   O36   D    
C19   C24   D    
O17   P1    S    
O4    P1    S    
C53   O22   D    
C56   H39   S    
C50   H27   S    
C52   H31   S    
O6    P7    D    
C48   H52   S    
C34   C57   S    
C52   H30   S    
H32   O26   S    
C5    O11   D    
Ba1   O51   S    
C56   H6    S    
C5    C6    A    
C13   H11   S    
O12   P2    S    
C51   C52   S    
C51   H29   S    
C64   O46   S    
C17   O13   D    
C12   H55   S    
H46   O41   S    
C32   C38   D    
O2    P5    D    
C23   O7    S    
C35   C36   D    
C22   C24   S    
C32   C33   S    
O7    P7    S    
C65   O48   S    
C36   C37   S    
C63   O42   D    
O49   P8    S    
H33   O28   S    
C38   P2    S    
O15   P6    S    
C13   C14   A    
C17   N2    Am   
C58   O31   D    
C7    C11   A    
Ba1   O20   S    
Ba1   Ba2   S    
C1    C54   S    
C50   H28   S    
C60   O37   S    
C1    H4    S    
H50   O46   S    
O3    P5    S    
C54   O26   S    
C15   C17   A    
Ba1   O45   S    
C43   P7    S    
C4    C63   S    
C29   C30   A    
C66   C67   S    
C21   C31   D    
C40   H12   S    
C21   C22   D    
Ba2   O45   S    
H36   O32   S    
C42   H17   S    
Ba2   O34   S    
C59   O33   D    
C4    O23   S    
H24   O24   S    
O1    P1    D    
C49   H26   S    
C24   N1    S    
C45   O3    S    
H47   O43   S    
C12   C53   S    
C55   O27   D    
C31   H48   S    
C19   C20   S    
C63   O43   S    
C28   O50   S    
C64   O44   D    
C67   H8    S    
H44   O39   S    
O9    P8    S    
C14   C60   S    
O20   P3    S    
Ba1   O1    S    
C39   C47   S    
C1    H53   S    
H51   O48   S    
C44   C46   A    
O16   P6    D    
C53   O24   S    
C4    C16   S    
C3    O10   D    
C19   H15   S    
C40   H25   S    
Ba2   O6    S    
C28   H22   S    
C34   C55   S    
C34   H3    S    
C37   C38   D    
C6    C7    A    
C61   O38   D    
Ba2   O52   S    
O21   P3    D    
Ba1   P2    S    
Ba2   O4    S    
C49   C50   S    
O51   P7    S    
C59   O35   S    
Ba2   O49   S    
C16   H20   S    
C62   O40   D    
C27   C68   A    
C23   H56   S    
C54   O25   D    
C57   O29   D    
O18   P6    S    
H40   O35   S    
C61   O39   S    
H42   O37   S    
C35   H49   S    
C10   C18   A    
C66   O9    S    
C23   H2    S    
C32   H18   S    
O45   P4    S    
C1    C12   S    
C41   N5    A    
C49   H23   S    
C21   P4    S    
C16   C58   S    
C46   C47   A    
C55   O28   S    
C22   C61   S    
C45   H37   S    
O8    P8    D    
C37   C64   S    
C18   O14   D    
Ba1   O15   S    
O5    P2    S    
C44   P5    S    
C2    C8    A    
N5    N6    A    
Ba1   O4    S    
Ba1   O5    S    
C42   C43   A    
C16   H19   S    
N3    N4    A    
C66   H7    S    
C20   C31   S    
C52   H54   S    
C50   H34   S    
C3    N1    Am   
C33   C35   S    
C25   C30   A    
O52   P5    S    
Ba2   O5    S    
C29   C62   S    
C41   N4    A    
C26   C68   A    
C28   H21   S    
C26   P6    S    
C39   N6    A    
C9    C10   A    
C18   N2    Am   
Ba1   P1    S    
C6    C13   A    
C44   C48   A    
C11   C15   A    
C51   O12   S    
C30   N2    S    
C25   H13   S    
C62   O41   S    
C45   H5    S    
C36   C41   S    
C27   C29   A    
C57   O30   S    
O23   P3    S    
C45   C56   S    
C39   N3    A    
C67   H41   S    
C59   C66   S    
C4    H9    S    
C14   C15   A    
C43   C48   A    
C8    H14   S    
C40   H1    S    
C58   O32   S    
C27   P1    S    
Ba1   O19   S    
C56   H38   S    
Ba2   O51   S    
C46   C65   S    
C9    H43   S    
Ba2   P4    S    
C8    C9    A    
C23   C34   S    
C12   O18   S    
C51   H45   S    
C2    C3    A    
C10   C11   A    
C49   O17   S    
C33   P3    S    
C25   C26   A    
H35   O30   S    
C28   C40   S    
C67   H10   S    
C65   O47   D    
C5    N1    Am   
C2    C7    A    
O50   P4    S    
C20   P8    S    
O34   P4    D    
C68   H16   S    
