data_mof_unit_41271.cif
_audit_creation_date              2012-12-10T17:48:38-0500
_audit_creation_method            fapswitch 2.2
_symmetry_space_group_name_H-M    P1
_symmetry_Int_Tables_number       1
_space_group_crystal_system       triclinic
_cell_length_a                    15.682236
_cell_length_b                    10.539557
_cell_length_c                    9.941574
_cell_angle_alpha                 89.713452
_cell_angle_beta                  88.13956
_cell_angle_gamma                 92.297601
_cell_volume                      1640.96217936

loop_
_atom_site_label
_atom_site_type_symbol
_atom_type_description
_atom_site_fract_x
_atom_site_fract_y
_atom_site_fract_z
_atom_type_partial_charge
C1    C     C_R   0.509129 0.260485 0.500686 0.915111
C2    C     C_R   0.632256 0.066313 0.835140 -0.139695
C3    C     C_R   0.641660 0.936194 0.825832 -0.150806
C4    C     C_R   0.338741 0.506236 0.501951 0.939974
C5    C     C_R   0.614283 0.871504 0.712489 -0.167282
C6    C     C_R   0.572989 0.934908 0.609725 0.064002
C7    C     C_R   0.565818 0.067697 0.615344 0.130954
C8    C     C_R   0.531892 0.129052 0.501571 -0.201338
C9    C     C_R   0.528017 0.065369 0.378866 -0.334259
C10   C     C_R   0.543748 0.938558 0.373065 0.509476
C11   C     C_R   0.545842 0.870582 0.494114 -0.272470
C12   C     C_3   0.947722 0.407095 0.583247 -0.507200
C13   C     C_R   0.407069 0.311569 0.149305 -0.228810
C14   C     C_R   0.386142 0.196485 0.090584 -0.456337
C15   C     C_R   0.392386 0.185257 0.950374 0.447426
C16   C     C_R   0.516754 0.737883 0.498395 0.881513
C17   C     C_R   0.406936 0.298081 0.874313 0.439340
C18   C     C_R   0.453500 0.403990 0.931892 -0.028399
C19   C     C_R   0.453456 0.406827 0.076259 0.128788
C20   C     C_R   0.546048 0.586801 0.068490 -0.110989
C21   C     C_R   0.545649 0.587571 0.926215 -0.107053
C22   C     C_R   0.661609 0.500449 0.497792 0.847283
C23   C     C_3   0.918063 0.512843 0.488102 0.178720
C24   C     C_3   0.045783 0.403465 0.576418 -0.439721
C25   C     C_3   0.057920 0.513499 0.351604 -0.080536
C26   C     C_3   0.958743 0.497019 0.343020 0.049714
C27   C     C_1   0.750697 0.503487 0.492027 -0.200798
C28   C     C_3   0.083244 0.524242 0.502034 0.166719
C29   C     C_3   0.928827 0.863747 0.494504 0.039238
C30   C     C_3   0.840836 0.891317 0.557155 -0.331787
C31   C     C_3   0.832829 0.033252 0.581976 -0.977634
C32   C     C_3   0.651547 0.870027 0.234694 0.082387
C33   C     C_3   0.704567 0.996387 0.233432 -0.390252
C34   C     C_3   0.948037 0.645495 0.543344 0.211992
C35   C     C_3   0.796154 0.977333 0.183053 -0.972254
C36   C     C_3   0.340507 0.970130 0.951340 0.035440
C37   C     C_3   0.404966 0.889760 0.022374 -0.313165
C38   C     C_3   0.359446 0.785497 0.108000 -0.886728
C39   C     C_3   0.278466 0.284515 0.762356 0.157725
C40   C     C_3   0.247727 0.173121 0.674304 -0.358582
C41   C     C_3   0.267734 0.193174 0.524355 -0.832162
C42   C     C_3   0.108836 0.600502 0.131622 -0.791646
C43   C     C_3   0.855476 0.358536 0.217900 -0.797056
C44   C     C_3   0.044379 0.743756 0.786814 0.068626
C45   C     C_3   0.045946 0.643757 0.572117 0.294916
C46   C     C_3   0.123413 0.833516 0.788939 -0.358538
C47   C     C_3   0.106840 0.946330 0.880672 -1.013049
C48   C     C_1   0.826269 0.507060 0.487599 -0.020751
C49   C     C_1   0.174976 0.525666 0.507639 -0.025374
C50   C     C_1   0.250266 0.519289 0.506334 -0.212250
C51   C     C_R   0.597249 0.132494 0.729765 -0.142587
H1    H     H_    0.919283 0.312559 0.556557 0.194891
H2    H     H_    0.065345 0.316433 0.522489 0.159957
H3    H     H_    0.389138 0.320667 0.252890 0.238891
H4    H     H_    0.363696 0.119536 0.156405 0.182957
H5    H     H_    0.583939 0.658565 0.872128 0.127984
H6    H     H_    0.087702 0.426544 0.310760 0.169592
H7    H     H_    0.936002 0.572727 0.276051 0.194664
H8    H     H_    0.080231 0.730259 0.529973 0.077019
H9    H     H_    0.910246 0.661322 0.638027 0.093257
H10   H     H_    0.941121 0.928428 0.406859 0.175671
H11   H     H_    0.980880 0.887438 0.563677 0.117194
H12   H     H_    0.070168 0.396364 0.680009 0.224844
H13   H     H_    0.790122 0.858309 0.488526 0.231154
H14   H     H_    0.830688 0.839855 0.654424 0.195481
H15   H     H_    0.881327 0.067613 0.653723 0.260180
H16   H     H_    0.768423 0.051158 0.625142 0.280409
H17   H     H_    0.841652 0.087415 0.486032 0.262544
H18   H     H_    0.664114 0.824923 0.136185 0.149809
H19   H     H_    0.674111 0.804423 0.312998 0.125379
H20   H     H_    0.674974 0.066205 0.167083 0.230569
H21   H     H_    0.706314 0.035603 0.336899 0.222361
H22   H     H_    0.824661 0.899734 0.240125 0.282071
H23   H     H_    0.925857 0.426588 0.688543 0.201388
H24   H     H_    0.835386 0.065900 0.196874 0.265934
H25   H     H_    0.797395 0.953091 0.074417 0.259818
H26   H     H_    0.308612 0.908184 0.876595 0.166549
H27   H     H_    0.288215 0.001227 0.020324 0.129631
H28   H     H_    0.447698 0.845804 0.945955 0.239678
H29   H     H_    0.445292 0.950419 0.087572 0.257595
H30   H     H_    0.315932 0.827573 0.184464 0.253646
H31   H     H_    0.407082 0.730833 0.161277 0.305451
H32   H     H_    0.322073 0.719550 0.043466 0.251406
H33   H     H_    0.247723 0.371645 0.729529 0.149049
H34   H     H_    0.516479 0.114123 0.285441 0.200452
H35   H     H_    0.252853 0.267372 0.867169 0.047876
H36   H     H_    0.276754 0.084336 0.706029 0.256649
H37   H     H_    0.177416 0.159314 0.689008 0.167893
H38   H     H_    0.227091 0.266588 0.483280 0.230534
H39   H     H_    0.253655 0.103359 0.469966 0.228746
H40   H     H_    0.335919 0.220868 0.505625 0.280481
H41   H     H_    0.063367 0.707376 0.292687 0.252347
H42   H     H_    0.136679 0.688652 0.083423 0.238726
H43   H     H_    0.048762 0.572051 0.081675 0.244757
H44   H     H_    0.155633 0.524827 0.118199 0.250473
H45   H     H_    0.601176 0.234256 0.738034 0.161493
H46   H     H_    0.956676 0.294179 0.330504 0.226309
H47   H     H_    0.861610 0.287935 0.136155 0.238735
H48   H     H_    0.836124 0.448928 0.172199 0.242389
H49   H     H_    0.805227 0.322738 0.291296 0.247681
H50   H     H_    0.028099 0.713289 0.891771 0.171597
H51   H     H_    0.988065 0.794256 0.754850 0.110545
H52   H     H_    0.178101 0.781246 0.826408 0.227538
H53   H     H_    0.140196 0.869459 0.685905 0.205126
H54   H     H_    0.052795 0.000380 0.843805 0.268484
H55   H     H_    0.164189 0.010962 0.881638 0.253386
H56   H     H_    0.656356 0.117368 0.921066 0.134897
H57   H     H_    0.091771 0.913276 0.985328 0.269439
H58   H     H_    0.673697 0.886262 0.903528 0.125099
H59   H     H_    0.631213 0.773879 0.700407 0.137746
H60   H     H_    0.584148 0.656221 0.119930 0.152523
N1    N     N_R   0.499210 0.498800 0.142780 -0.102885
N2    N     N_R   0.499180 0.498720 0.857170 -0.095779
N3    N     N_2   0.091868 0.622707 0.273266 -0.307995
N4    N     N_2   0.936444 0.374282 0.283110 -0.316624
O1    O     O_R   0.500000 0.316780 0.614690 -0.568999
O2    O     O_3   0.562025 0.885562 0.249032 -0.652514
O3    O     O_3   0.382200 0.071927 0.879126 -0.629122
O4    O     O_3   0.369035 0.304977 0.750876 -0.556576
O5    O     O_3   0.060209 0.632406 0.712611 -0.658727
O6    O     O_R   0.499990 0.316750 0.385360 -0.646586
O7    O     O_R   0.377150 0.500020 0.614720 -0.554026
O8    O     O_R   0.377140 0.499990 0.385380 -0.634946
O9    O     O_R   0.500010 0.683250 0.614640 -0.620323
O10   O     O_R   0.500000 0.683220 0.385310 -0.584475
O11   O     O_R   0.622860 0.500010 0.614620 -0.641074
O12   O     O_R   0.622850 0.499980 0.385280 -0.618755
O13   O     O_3   0.931035 0.738640 0.444303 -0.696183
Zn1   Zn    Zn3+2 0.500010 0.500020 0.653130 0.964024
Zn2   Zn    Zn3+2 0.499990 0.499980 0.346870 0.932785

loop_
_geom_bond_atom_site_label_1
_geom_bond_atom_site_label_2
_ccdc_geom_bond_type
C27   C48   T    
C31   H15   S    
C41   H38   S    
C12   H23   S    
C38   H32   S    
C42   H42   S    
C43   H47   S    
C32   O2    S    
C7    C8    A    
C19   N1    A    
C25   C28   S    
C31   H16   S    
C37   H28   S    
C12   C23   S    
C35   H24   S    
C37   C38   S    
N2    Zn1   S    
C40   H36   S    
C36   C37   S    
C43   H48   S    
C39   H33   S    
C30   H13   S    
C36   H26   S    
C30   C31   S    
C22   O11   A    
C5    H59   S    
C44   O5    S    
C1    C8    S    
C2    H56   S    
C18   C19   A    
C11   C16   S    
C23   C26   S    
C26   N4    S    
C33   H21   S    
C9    H34   S    
C20   N1    A    
C17   O4    S    
O10   Zn2   S    
C42   N3    S    
C35   H22   S    
O1    Zn1   S    
C8    C9    A    
C47   H54   S    
C1    O1    A    
H46   N4    S    
C36   O3    S    
C9    C10   A    
O6    Zn2   S    
O7    Zn1   S    
C51   H45   S    
C43   N4    S    
C47   H55   S    
C14   H4    S    
C13   C14   A    
C38   H31   S    
C34   H9    S    
C25   H6    S    
C18   N2    A    
C12   H1    S    
C44   C46   S    
C31   H17   S    
C35   H25   S    
C37   H29   S    
C29   H10   S    
C28   C45   S    
C13   C19   A    
C42   H44   S    
C43   H49   S    
C21   N2    A    
C10   C11   A    
C6    C11   A    
C44   H51   S    
C32   H19   S    
O11   Zn1   S    
C25   C26   S    
C46   H53   S    
C4    O8    A    
C4    C50   S    
C29   C30   S    
C20   H60   S    
C28   C49   S    
C23   C34   S    
C17   C18   A    
C4    O7    A    
C34   C45   S    
C46   C47   S    
C26   H7    S    
C6    C7    A    
C45   O5    S    
C40   C41   S    
C41   H40   S    
C49   C50   T    
C24   H12   S    
C22   C27   S    
O8    Zn2   S    
C39   C40   S    
C13   H3    S    
C16   O10   A    
C15   C17   A    
C29   H11   S    
C45   H8    S    
C23   C48   S    
C42   H43   S    
C24   C28   S    
C3    C5    A    
C21   H5    S    
C44   H50   S    
C32   H18   S    
C46   H52   S    
C12   C24   S    
C15   O3    S    
C32   C33   S    
C40   H37   S    
C2    C3    A    
C24   H2    S    
O12   Zn2   S    
C7    C51   A    
C38   H30   S    
C10   O2    S    
C36   H27   S    
C25   N3    S    
C22   O12   A    
C5    C6    A    
C3    H58   S    
C39   O4    S    
C33   C35   S    
O9    Zn1   S    
C41   H39   S    
C16   O9    A    
C1    O6    A    
C30   H14   S    
C2    C51   A    
C33   H20   S    
C20   C21   A    
C34   O13   S    
C47   H57   S    
C29   O13   S    
C14   C15   A    
C39   H35   S    
N1    Zn2   S    
H41   N3    S    
