data_mof_unit_20503.cif
_audit_creation_date              2012-12-11T15:10:51-0500
_audit_creation_method            fapswitch 2.2
_symmetry_space_group_name_H-M    P1
_symmetry_Int_Tables_number       1
_space_group_crystal_system       triclinic
_cell_length_a                    21.168836
_cell_length_b                    7.236352
_cell_length_c                    18.259056
_cell_angle_alpha                 90.000193
_cell_angle_beta                  93.353084
_cell_angle_gamma                 90.000292
_cell_volume                      2792.2278727

loop_
_atom_site_label
_atom_site_type_symbol
_atom_type_description
_atom_site_fract_x
_atom_site_fract_y
_atom_site_fract_z
_atom_type_partial_charge
O1    O     O_R   0.448880 0.506250 0.415280 -0.527717
O2    O     O_R   0.551120 0.006250 0.584720 -0.527714
O3    O     O_R   0.434830 0.174000 0.557310 -0.521403
O4    O     O_R   0.565170 0.674000 0.442690 -0.521408
C1    C     C_R   0.417014 0.344588 0.579696 0.701713
C2    C     C_R   0.582986 0.844588 0.420304 0.701718
O5    O     O_R   0.441680 0.176440 0.414130 -0.525576
O6    O     O_R   0.558320 0.676440 0.585870 -0.525579
O7    O     O_R   0.558020 0.007570 0.440520 -0.511462
O8    O     O_R   0.441980 0.507570 0.559480 -0.511467
C3    C     C_R   0.428341 0.344808 0.388143 0.736125
C4    C     C_R   0.571659 0.844810 0.611856 0.736128
O9    O     O_3   0.538160 0.339670 0.508820 -0.367327
O10   O     O_3   0.461840 0.839670 0.491180 -0.367327
V1    V     V_3+5 0.492920 0.064260 0.498360 1.510405
V2    V     V_3+5 0.507080 0.564260 0.501640 1.510392
C5    C     C_R   0.876614 0.922949 0.687697 -0.163054
C6    C     C_R   0.123390 0.423031 0.312303 -0.163056
C7    C     C_R   0.886455 0.938327 0.820323 -0.144822
C8    C     C_R   0.113546 0.438335 0.179676 -0.144824
C9    C     C_R   0.581516 0.805208 0.746764 0.249739
C10   C     C_R   0.418480 0.305148 0.253239 0.249742
C11   C     C_R   0.617731 0.783776 0.812264 -0.111703
C12   C     C_R   0.382262 0.283692 0.187742 -0.111706
C13   C     C_R   0.682807 0.812947 0.815279 -0.143801
C14   C     C_R   0.317188 0.312886 0.184727 -0.143805
C15   C     C_R   0.713685 0.875082 0.753537 0.106309
C16   C     C_R   0.286315 0.375071 0.246463 0.106310
C17   C     C_R   0.677375 0.881822 0.684801 0.020539
C18   C     C_R   0.322626 0.381839 0.315197 0.020541
C19   C     C_R   0.780629 0.910858 0.756281 0.047044
C20   C     C_R   0.219372 0.410867 0.243718 0.047045
C21   C     C_R   0.810543 0.917443 0.688658 0.045003
C22   C     C_R   0.189460 0.417502 0.311341 0.045002
C23   C     C_R   0.774464 0.919388 0.621938 -0.145623
C24   C     C_R   0.225541 0.419475 0.378060 -0.145628
C25   C     C_R   0.708870 0.908930 0.620118 -0.162436
C26   C     C_R   0.291134 0.408995 0.379879 -0.162442
C27   C     C_R   0.819579 0.941317 0.822338 0.137551
C28   C     C_R   0.180421 0.441300 0.177659 0.137549
C29   C     C_R   0.914363 0.925598 0.752686 0.214224
C30   C     C_R   0.085639 0.425657 0.247315 0.214222
C31   C     C_R   0.610783 0.850038 0.681904 -0.150843
C32   C     C_R   0.389217 0.350029 0.318095 -0.150843
H1    H     H_    0.708669 0.773968 0.865409 0.188222
H2    H     H_    0.291323 0.273887 0.134601 0.188223
C33   C     C_1   0.864591 0.938955 0.132169 -0.112155
C34   C     C_1   0.135409 0.438955 0.867831 -0.112146
C35   C     C_1   0.821748 0.924934 0.175938 0.059134
C36   C     C_1   0.178252 0.424935 0.824062 0.059138
C37   C     C_1   0.771182 0.905847 0.228059 0.043119
C38   C     C_1   0.228818 0.405847 0.771941 0.043122
C39   C     C_1   0.728605 0.889227 0.272045 0.039338
C40   C     C_1   0.271395 0.389227 0.727954 0.039341
C41   C     C_1   0.678047 0.870088 0.324174 0.045780
C42   C     C_1   0.321953 0.370087 0.675826 0.045781
C43   C     C_1   0.635216 0.855991 0.367955 -0.146937
C44   C     C_1   0.364784 0.355991 0.632045 -0.146938
O11   O     O_R   0.058070 0.289240 0.940580 -0.523071
O12   O     O_R   0.941930 0.789240 0.059420 -0.523069
O13   O     O_R   0.058330 0.616740 0.085880 -0.519571
O14   O     O_R   0.941670 0.116740 0.914120 -0.519568
C45   C     C_R   0.072106 0.448471 0.111576 0.809505
C46   C     C_R   0.927894 0.948470 0.888424 0.809500
O15   O     O_R   0.065180 0.619040 0.942700 -0.513717
O16   O     O_R   0.934820 0.119040 0.057300 -0.513719
O17   O     O_R   0.948870 0.787780 0.915270 -0.530842
O18   O     O_R   0.051130 0.287780 0.084730 -0.530844
C47   C     C_R   0.083165 0.450325 0.920167 0.734221
C48   C     C_R   0.916835 0.950325 0.079833 0.734211
O19   O     O_3   0.961870 0.453310 0.991210 -0.368935
O20   O     O_3   0.038130 0.953310 0.008790 -0.368937
V3    V     V_3+5 0.007070 0.728770 0.001630 1.566644
V4    V     V_3+5 0.992930 0.228770 0.998370 1.566643
Br1   Br    Br    0.004636 0.923712 0.746345 -0.544620
Br2   Br    Br    0.995366 0.423809 0.253658 -0.544620
H3    H     H_    0.797242 0.930318 0.570458 0.131564
H4    H     H_    0.202764 0.430443 0.429539 0.131565
H5    H     H_    0.899229 0.922589 0.635938 0.164466
H6    H     H_    0.100775 0.422710 0.364063 0.164467
Br3   Br    Br    0.786057 0.032962 0.911897 -0.569353
Br4   Br    Br    0.213945 0.532883 0.088093 -0.569359
Br5   Br    Br    0.492091 0.759840 0.747531 -0.516881
Br6   Br    Br    0.507902 0.259738 0.252473 -0.516885
H7    H     H_    0.595499 0.738755 0.861117 0.176343
H8    H     H_    0.404491 0.238631 0.138892 0.176345
H9    H     H_    0.683264 0.913139 0.567047 0.094875
H10   H     H_    0.316742 0.413227 0.432949 0.094885

loop_
_geom_bond_atom_site_label_1
_geom_bond_atom_site_label_2
_ccdc_geom_bond_type
C15   C17   A    
O1    C3    A    
C34   C47   S    
O2    C4    A    
C2    O7    A    
C33   C35   T    
O5    C3    A    
C1    C44   S    
C23   C25   A    
C12   C14   A    
C4    C31   S    
C6    C30   A    
C8    C28   A    
O18   V4    S    
O16   V4    S    
O12   V3    S    
C5    H5    S    
O15   V3    S    
C18   C26   A    
O13   C45   A    
O14   C46   A    
C9    C31   A    
C10   C32   A    
C9    Br5   S    
C42   C44   T    
C35   C37   S    
C36   C38   S    
C19   C21   A    
O17   V3    S    
O5    V1    S    
O6    V2    S    
C17   C31   A    
C2    C43   S    
C18   C32   A    
C5    C21   A    
C38   C40   T    
C39   C41   S    
C40   C42   S    
C15   C19   A    
C46   O17   A    
C28   Br4   S    
C16   C20   A    
C27   Br3   S    
O4    C2    A    
O13   V3    S    
C23   H3    S    
C26   H10   S    
C37   C39   T    
C10   Br6   S    
O4    V2    S    
C33   C48   S    
C29   Br1   S    
O12   C48   A    
C7    C46   S    
O6    C4    A    
C3    C32   S    
O1    V2    S    
O2    V1    S    
C6    C22   A    
O11   V4    S    
C7    C27   A    
O11   C47   A    
C41   C43   T    
C10   C12   A    
C24   C26   A    
C13   H1    S    
O3    V1    S    
C45   O18   A    
C30   Br2   S    
C25   H9    S    
O20   V3    S    
O3    C1    A    
O19   V4    S    
C8    C30   A    
C13   C15   A    
C14   C16   A    
C8    C45   S    
C9    C11   A    
O7    V1    S    
C16   C18   A    
O8    V2    S    
O16   C48   A    
O15   C47   A    
C34   C36   T    
C21   C23   A    
C19   C27   A    
C22   C24   A    
C20   C28   A    
C5    C29   A    
C14   H2    S    
C1    O8    A    
C11   C13   A    
C6    H6    S    
C11   H7    S    
O9    V2    S    
C17   C25   A    
O10   V1    S    
O14   V4    S    
C24   H4    S    
C12   H8    S    
C7    C29   A    
C20   C22   A    
