data_mof_unit_39054.cif
_audit_creation_date              2012-12-10T19:45:43-0500
_audit_creation_method            fapswitch 2.2
_symmetry_space_group_name_H-M    P1
_symmetry_Int_Tables_number       1
_space_group_crystal_system       triclinic
_cell_length_a                    10.794778
_cell_length_b                    14.873602
_cell_length_c                    14.891076
_cell_angle_alpha                 64.119622
_cell_angle_beta                  106.058584
_cell_angle_gamma                 102.122286
_cell_volume                      2056.10201667

loop_
_atom_site_label
_atom_site_type_symbol
_atom_type_description
_atom_site_fract_x
_atom_site_fract_y
_atom_site_fract_z
_atom_type_partial_charge
C1    C     C_R   0.479376 0.119369 0.312449 0.783174
C2    C     C_R   0.620666 0.777394 0.974675 -0.210233
C3    C     C_R   0.400647 0.154043 0.126882 -0.209653
C4    C     C_R   0.599352 0.845958 0.873119 -0.209671
C5    C     C_R   0.512452 0.288372 0.178313 -0.261431
C6    C     C_R   0.487543 0.711629 0.821690 -0.261427
C7    C     C_R   0.483713 0.360382 0.077611 0.091637
C8    C     C_R   0.516288 0.639620 0.922392 0.091640
C9    C     C_R   0.417886 0.325441 0.000394 0.170822
C10   C     C_R   0.582116 0.674562 0.999608 0.170822
C11   C     C_R   0.516293 0.465611 0.051929 0.069073
C12   C     C_R   0.520623 0.880631 0.687551 0.783171
C13   C     C_R   0.483711 0.534391 0.948074 0.069073
C14   C     C_R   0.422055 0.495505 0.873238 -0.229463
C15   C     C_R   0.577954 0.504497 0.126765 -0.229461
C16   C     C_R   0.263464 0.998993 0.502293 0.780746
C17   C     C_R   0.736536 0.001007 0.497707 0.780746
C18   C     C_R   0.389930 0.393276 0.899184 -0.243655
C19   C     C_R   0.610077 0.606727 0.100818 -0.243655
C20   C     C_R   0.664585 0.256806 0.698418 -0.325330
C21   C     C_R   0.335422 0.743197 0.301580 -0.325337
C22   C     C_R   0.658122 0.189266 0.655320 0.048912
C23   C     C_R   0.870117 0.001776 0.495479 -0.077871
C24   C     C_R   0.341886 0.810737 0.344677 0.048916
C25   C     C_R   0.526587 0.293036 0.500472 0.309948
C26   C     C_R   0.473407 0.706961 0.499530 0.309952
C27   C     C_R   0.549387 0.371460 0.535735 -0.020250
C28   C     C_R   0.450606 0.628537 0.464268 -0.020248
C29   C     C_R   0.603690 0.345009 0.640647 0.137197
C30   C     C_R   0.396309 0.654990 0.359355 0.137202
C31   C     C_R   0.506767 0.470239 0.475350 0.075790
C32   C     C_R   0.493225 0.529757 0.524653 0.075791
C33   C     C_R   0.518945 0.486986 0.632335 -0.250472
C34   C     C_R   0.129884 0.998223 0.504521 -0.077875
C35   C     C_R   0.481049 0.513010 0.367669 -0.250486
C36   C     C_R   0.584668 0.401728 0.688619 -0.208682
C37   C     C_R   0.415331 0.598271 0.311384 -0.208685
C38   C     C_R   0.365138 0.045554 0.788017 -0.126317
C39   C     C_R   0.634870 0.954336 0.212022 -0.126334
C40   C     C_R   0.274867 0.010189 0.719975 -0.093818
C41   C     C_R   0.725130 0.989740 0.280039 -0.093822
C42   C     C_R   0.193933 0.075805 0.635568 0.125717
C43   C     C_R   0.806073 0.924151 0.364465 0.125733
C44   C     C_R   0.204240 0.176918 0.620592 -0.146984
C45   C     C_R   0.903228 0.961394 0.436184 -0.003478
C46   C     C_R   0.795786 0.823026 0.379488 -0.146997
C47   C     C_R   0.294702 0.211932 0.688777 -0.128448
C48   C     C_R   0.705337 0.787973 0.311328 -0.128464
C49   C     C_R   0.374869 0.146263 0.772539 -0.120667
C50   C     C_R   0.625163 0.853616 0.227547 -0.120640
C51   C     C_R   0.966765 0.040530 0.557750 -0.238389
C52   C     C_R   0.033237 0.959470 0.442251 -0.238396
C53   C     C_3   0.582747 0.700726 0.590977 -0.783197
C54   C     C_3   0.417245 0.299271 0.409026 -0.783195
C55   C     C_R   0.096774 0.038599 0.563822 -0.003466
C56   C     C_R   0.465366 0.187213 0.204018 -0.049988
C57   C     C_R   0.534632 0.812788 0.795983 -0.049987
C58   C     C_R   0.379333 0.222609 0.025326 -0.210228
Cu1   Cu    Cu3+1 0.466270 0.918260 0.475690 0.935031
Cu2   Cu    Cu3+1 0.533730 0.081740 0.524310 0.935037
H1    H     H_    0.444683 0.173492 0.825325 0.120430
H2    H     H_    0.288921 0.762289 0.221988 0.139189
H3    H     H_    0.490187 0.519277 0.674487 0.155457
H4    H     H_    0.509807 0.480718 0.325517 0.155461
H5    H     H_    0.427241 0.994827 0.852962 0.122172
H6    H     H_    0.572760 0.005040 0.147063 0.122155
H7    H     H_    0.267848 0.931895 0.732992 0.103324
H8    H     H_    0.732135 0.068042 0.266986 0.103337
H9    H     H_    0.142773 0.228567 0.555877 0.126297
H10   H     H_    0.857260 0.771399 0.444220 0.126303
H11   H     H_    0.941029 0.069633 0.604760 0.155461
H12   H     H_    0.555358 0.826355 0.174780 0.120435
H13   H     H_    0.058974 0.930363 0.395244 0.155468
H14   H     H_    0.429166 0.691330 0.760908 0.147475
H15   H     H_    0.570821 0.308670 0.239095 0.147482
H16   H     H_    0.635176 0.924268 0.854947 0.144825
H17   H     H_    0.364822 0.075734 0.145052 0.144821
H18   H     H_    0.329047 0.195694 0.966458 0.132759
H19   H     H_    0.670950 0.804311 0.033542 0.132761
H20   H     H_    0.545093 0.671567 0.661483 0.204912
H21   H     H_    0.656793 0.653889 0.600474 0.198779
H22   H     H_    0.640888 0.771491 0.583977 0.269885
H23   H     H_    0.396396 0.541663 0.793099 0.133440
H24   H     H_    0.343201 0.346109 0.399530 0.198780
H25   H     H_    0.454897 0.328430 0.338520 0.204912
H26   H     H_    0.359101 0.228507 0.416026 0.269879
H27   H     H_    0.302651 0.289980 0.676693 0.135198
H28   H     H_    0.697404 0.709917 0.323450 0.135215
H29   H     H_    0.341609 0.367205 0.839324 0.140409
H30   H     H_    0.658404 0.632799 0.160678 0.140412
H31   H     H_    0.603622 0.458340 0.206904 0.133442
H32   H     H_    0.612804 0.376316 0.770930 0.149125
H33   H     H_    0.387201 0.623684 0.229073 0.149122
H34   H     H_    0.299025 0.880595 0.298466 0.127110
H35   H     H_    0.700992 0.119412 0.701528 0.127107
H36   H     H_    0.711098 0.237719 0.778008 0.139189
N1    N     N_R   0.584450 0.204570 0.560790 -0.172458
N2    N     N_R   0.415550 0.795430 0.439210 -0.172459
O1    O     O_R   0.455540 0.022090 0.338120 -0.586542
O2    O     O_R   0.544460 0.977910 0.661880 -0.586533
O3    O     O_R   0.512510 0.160150 0.379180 -0.584844
O4    O     O_R   0.487490 0.839850 0.620820 -0.584847
O5    O     O_R   0.291160 0.930970 0.479480 -0.582593
O6    O     O_R   0.708840 0.069030 0.520520 -0.582591
O7    O     O_R   0.348130 0.069020 0.520540 -0.579547
O8    O     O_R   0.651870 0.930980 0.479460 -0.579549

loop_
_geom_bond_atom_site_label_1
_geom_bond_atom_site_label_2
_ccdc_geom_bond_type
C8    C13   A    
C23   C45   A    
C27   C29   A    
Cu1   O1    S    
C22   H35   S    
C14   C18   A    
C5    C56   A    
C1    O1    A    
C54   H24   S    
C47   C49   A    
C38   C49   A    
C15   C19   A    
C29   C36   A    
C17   C23   S    
C51   H11   S    
C24   N2    A    
C35   C37   A    
C17   O6    A    
C33   C36   A    
Cu1   O4    S    
C53   H21   S    
C9    C58   A    
C50   H12   S    
C2    H19   S    
C16   C34   S    
C11   C15   A    
C40   H7    S    
C4    C57   A    
C48   H28   S    
C6    H14   S    
C35   H4    S    
C44   C47   A    
C36   H32   S    
C40   C42   A    
C20   H36   S    
Cu1   Cu2   S    
C22   N1    A    
C13   C14   A    
C41   C43   A    
C6    C57   A    
C42   C44   A    
C14   H23   S    
C7    C11   A    
C41   H8    S    
C20   C29   A    
C46   C48   A    
Cu1   O8    S    
C49   H1    S    
C27   C31   A    
C28   C32   A    
C53   H20   S    
C25   C54   S    
C39   C41   A    
C52   H13   S    
C5    C7    A    
C6    C8    A    
C45   C52   A    
C30   C37   A    
C53   H22   S    
C47   H27   S    
C5    H15   S    
C2    C4    A    
C12   O4    A    
C24   H34   S    
C42   C55   S    
C3    C56   A    
C16   O5    A    
C23   C51   A    
C31   C32   A    
C38   H5    S    
C10   C19   A    
C33   H3    S    
C37   H33   S    
C44   H9    S    
C43   C45   S    
C21   H2    S    
C16   O7    A    
C26   N2    A    
C12   C57   S    
C25   N1    A    
C20   C22   A    
Cu2   N1    S    
C39   H6    S    
C31   C35   A    
Cu2   O3    S    
C3    H17   S    
C26   C53   S    
C1    O3    A    
C46   H10   S    
C54   H26   S    
C7    C9    A    
C18   H29   S    
C26   C28   A    
C1    C56   S    
Cu2   O2    S    
C54   H25   S    
C25   C27   A    
C21   C30   A    
C34   C52   A    
Cu1   O5    S    
C32   C33   A    
C28   C30   A    
C19   H30   S    
C17   O8    A    
C38   C40   A    
C11   C13   A    
C48   C50   A    
C51   C55   A    
C43   C46   A    
C12   O2    A    
C58   H18   S    
C15   H31   S    
C3    C58   A    
C9    C18   A    
C34   C55   A    
C39   C50   A    
C4    H16   S    
C8    C10   A    
C21   C24   A    
Cu1   N2    S    
Cu2   O6    S    
Cu2   O7    S    
C2    C10   A    
