data_mof_unit_37084.cif
_audit_creation_date              2012-10-26T19:53:29-0400
_audit_creation_method            fapswitch 2.2
_symmetry_space_group_name_H-M    P1
_symmetry_Int_Tables_number       1
_space_group_crystal_system       triclinic
_cell_length_a                    9.086286
_cell_length_b                    7.795648
_cell_length_c                    10.668043
_cell_angle_alpha                 89.826429
_cell_angle_beta                  90.042335
_cell_angle_gamma                 90.083177
_cell_volume                      755.650220709

loop_
_atom_site_label
_atom_site_type_symbol
_atom_type_description
_atom_site_fract_x
_atom_site_fract_y
_atom_site_fract_z
_atom_type_partial_charge
C1    C     C_R   0.220071 0.499925 0.499910 0.555145
C2    C     C_3   0.628885 0.441527 0.040726 0.138868
C3    C     C_3   0.502189 0.498509 0.877206 0.033501
C4    C     C_3   0.501494 0.500748 0.122796 0.019572
C5    C     C_1   0.065391 0.499890 0.499748 -0.051193
C6    C     C_1   0.934600 0.500090 0.499683 -0.054707
C7    C     C_3   0.125657 0.656278 0.002755 -0.299928
C8    C     C_3   0.779830 0.209211 0.128697 -0.292560
C9    C     C_R   0.779926 0.500070 0.499755 0.548093
C10   C     C_R   0.501086 0.500248 0.258910 0.542587
C11   C     C_R   0.500573 0.499643 0.741087 0.560346
C12   C     C_3   0.481371 0.662476 0.040651 -0.137734
C13   C     C_3   0.522596 0.336612 0.958803 -0.104708
C14   C     C_3   0.611788 0.601756 0.957573 -0.133598
C15   C     C_3   0.391948 0.396851 0.042202 -0.116720
C16   C     C_3   0.374952 0.557265 0.959399 0.137413
Cu1   Cu    Cu3+1 0.500000 0.669080 0.500000 1.003420
Cu2   Cu    Cu3+1 0.500000 0.330920 0.500000 1.005905
H1    H     H_    0.462180 0.794818 0.075110 0.120389
H2    H     H_    0.894221 0.180676 0.158842 0.136692
H3    H     H_    0.751246 0.120708 0.051052 0.145953
H4    H     H_    0.704965 0.186605 0.209117 0.176207
H5    H     H_    0.540192 0.204722 0.922908 0.120707
H6    H     H_    0.703070 0.682426 0.921042 0.113713
H7    H     H_    0.301447 0.315129 0.078860 0.112858
H8    H     H_    0.250270 0.718026 0.845649 0.262527
H9    H     H_    0.022123 0.695359 0.955318 0.147770
H10   H     H_    0.162578 0.762182 0.064836 0.135374
H11   H     H_    0.102313 0.540127 0.059949 0.160646
H12   H     H_    0.819207 0.471695 0.147333 0.240383
N1    N     N_1   0.500000 0.076820 0.500000 -0.088640
N2    N     N_1   0.500000 0.923180 0.500000 -0.087032
N3    N     N_2   0.236815 0.619989 0.909707 -0.506190
N4    N     N_2   0.770944 0.385407 0.086813 -0.517849
O1    O     O_R   0.288390 0.642760 0.500000 -0.497645
O2    O     O_R   0.711610 0.357240 0.500000 -0.499160
O3    O     O_R   0.711610 0.642760 0.500000 -0.498147
O4    O     O_R   0.288390 0.357240 0.500000 -0.493938
O5    O     O_R   0.499960 0.642760 0.316850 -0.512014
O6    O     O_R   0.500040 0.357240 0.683150 -0.501963
O7    O     O_R   0.500040 0.642760 0.683150 -0.508589
O8    O     O_R   0.499960 0.357240 0.316850 -0.515754

loop_
_geom_bond_atom_site_label_1
_geom_bond_atom_site_label_2
_ccdc_geom_bond_type
C9    O2    A    
C8    H4    S    
C7    H11   S    
C16   N3    S    
C4    C12   S    
H8    N3    S    
C2    C4    S    
N1    N2    T    
C3    C13   S    
C2    N4    S    
C6    C9    S    
C9    O3    A    
C8    H3    S    
Cu2   O4    S    
C7    H9    S    
C8    N4    S    
C7    N3    S    
C7    H10   S    
C13   H5    S    
C8    H2    S    
C3    C14   S    
C1    O4    A    
C4    C15   S    
C1    C5    S    
C5    C6    T    
C12   H1    S    
C12   C14   S    
C11   O7    A    
C13   C15   S    
C11   O6    A    
C2    C14   S    
Cu1   O7    S    
C15   H7    S    
C10   O8    A    
H12   N4    S    
C4    C10   S    
C15   C16   S    
C3    C11   S    
C1    O1    A    
Cu1   Cu2   S    
Cu1   O5    S    
C14   H6    S    
Cu1   N2    S    
C2    C13   S    
Cu2   O6    S    
Cu1   O3    S    
Cu2   N1    S    
Cu1   O1    S    
Cu2   O8    S    
Cu2   O2    S    
C3    C16   S    
C12   C16   S    
C10   O5    A    
