data_mof_unit_50259.cif
_audit_creation_date              2012-12-11T14:07:26-0500
_audit_creation_method            fapswitch 2.2
_symmetry_space_group_name_H-M    P1
_symmetry_Int_Tables_number       1
_space_group_crystal_system       triclinic
_cell_length_a                    19.910994
_cell_length_b                    16.993169
_cell_length_c                    15.475987
_cell_angle_alpha                 90.56414
_cell_angle_beta                  53.049374
_cell_angle_gamma                 90.575887
_cell_volume                      4184.3614856

loop_
_atom_site_label
_atom_site_type_symbol
_atom_type_description
_atom_site_fract_x
_atom_site_fract_y
_atom_site_fract_z
_atom_type_partial_charge
C1    C     C_R   0.354524 0.187557 0.026389 -0.087405
C2    C     C_R   0.650080 0.818615 0.073122 0.101814
C3    C     C_2   0.082440 0.221374 0.019010 0.958512
C4    C     C_R   0.152678 0.683758 0.071341 0.079123
C5    C     C_R   0.150070 0.318612 0.073137 0.101869
C6    C     C_R   0.694363 0.866176 0.679956 0.165168
C7    C     C_R   0.604526 0.185553 0.701022 0.052394
C8    C     C_R   0.194392 0.366194 0.679966 0.164838
C9    C     C_R   0.104533 0.685553 0.701019 0.052292
C10   C     C_3   0.355451 0.207481 0.486577 -0.424516
C11   C     C_3   0.203379 0.868058 0.518469 -0.413854
C12   C     C_3   0.855786 0.707723 0.486342 -0.424076
C13   C     C_R   0.344278 0.820741 0.042530 -0.063963
C14   C     C_3   0.703375 0.368051 0.518463 -0.413783
C15   C     C_3   0.306725 0.260003 0.588559 -0.251366
C16   C     C_3   0.130522 0.822986 0.617592 -0.207218
C17   C     C_3   0.806932 0.760172 0.588393 -0.251253
C18   C     C_3   0.630516 0.322981 0.617587 -0.207308
C19   C     C_3   0.370241 0.322958 0.373755 0.292267
C20   C     C_3   0.310820 0.755549 0.444920 0.221114
C21   C     C_3   0.869978 0.823041 0.373733 0.292368
C22   C     C_3   0.810822 0.255546 0.444929 0.220949
C23   C     C_3   0.745832 0.728465 0.455108 0.374953
C24   C     C_R   0.854533 0.687562 0.026376 -0.087434
C25   C     C_3   0.700476 0.254352 0.412639 0.388195
C26   C     C_3   0.245836 0.228771 0.454878 0.374831
C27   C     C_3   0.200463 0.754366 0.412648 0.388368
C28   C     C_3   0.341012 0.235234 0.403168 0.070483
C29   C     C_3   0.259296 0.809008 0.422838 0.090098
C30   C     C_3   0.841054 0.735248 0.403141 0.070363
C31   C     C_3   0.759300 0.308999 0.422837 0.090121
C32   C     C_3   0.753857 0.822338 0.578247 0.069838
C33   C     C_3   0.656646 0.233632 0.603186 0.082689
C34   C     C_3   0.253923 0.322361 0.578233 0.069330
C35   C     C_R   0.844274 0.320745 0.042537 -0.063905
C36   C     C_3   0.156650 0.733635 0.603186 0.082569
C37   C     C_3   0.810437 0.876402 0.475171 -0.393862
C38   C     C_3   0.751066 0.220736 0.559108 -0.367741
C39   C     C_3   0.310886 0.376424 0.475235 -0.394487
C40   C     C_3   0.251071 0.720740 0.559100 -0.367840
C41   C     C_R   0.361468 0.817684 0.221162 -0.110215
C42   C     C_R   0.393787 0.198350 0.211920 -0.145979
C43   C     C_R   0.861475 0.317678 0.221163 -0.110181
C44   C     C_R   0.893821 0.698360 0.211895 -0.146039
C45   C     C_3   0.695061 0.774019 0.561663 -0.426464
C46   C     C_R   0.635755 0.897561 0.101906 -0.110205
C47   C     C_3   0.649176 0.201765 0.513768 -0.548331
C48   C     C_3   0.195110 0.274346 0.561391 -0.425829
C49   C     C_3   0.149175 0.701771 0.513771 -0.548415
C50   C     C_2   0.195060 0.737220 0.098181 -0.203319
C51   C     C_2   0.207194 0.268717 0.073794 -0.133073
C52   C     C_2   0.695053 0.237224 0.098187 -0.203135
C53   C     C_2   0.707210 0.768724 0.073773 -0.133017
C54   C     C_2   0.708186 0.313272 0.069291 -0.086607
C55   C     C_2   0.753373 0.719372 0.990132 -0.095421
C56   C     C_2   0.208190 0.813268 0.069287 -0.087101
C57   C     C_R   0.634816 0.104940 0.102912 -0.125326
C58   C     C_2   0.253352 0.219358 0.990160 -0.095440
C59   C     C_R   0.328357 0.912084 0.955727 -0.103073
C60   C     C_R   0.346886 0.102202 0.922768 -0.130759
C61   C     C_R   0.828355 0.412087 0.955730 -0.103038
C62   C     C_R   0.846894 0.602207 0.922756 -0.130815
C63   C     C_R   0.405810 0.107349 0.304317 -0.093826
C64   C     C_R   0.362299 0.917439 0.315771 -0.093217
C65   C     C_R   0.905856 0.607370 0.304287 -0.093717
C66   C     C_R   0.862302 0.417435 0.315774 -0.093347
C67   C     C_R   0.313340 0.170091 0.983129 0.140202
C68   C     C_R   0.135750 0.397559 0.101913 -0.110255
C69   C     C_R   0.288848 0.849037 0.026492 0.105408
C70   C     C_R   0.813354 0.670100 0.983108 0.140252
C71   C     C_R   0.788844 0.349041 0.026497 0.105261
C72   C     C_R   0.318907 0.851063 0.322744 0.115641
C73   C     C_R   0.384860 0.184356 0.306320 0.097043
C74   C     C_R   0.818914 0.351055 0.322745 0.115656
C75   C     C_R   0.884945 0.684392 0.306267 0.096731
C76   C     C_R   0.626158 0.199569 0.008474 -0.025172
C77   C     C_R   0.616025 0.799360 0.020219 -0.112413
C78   C     C_R   0.126161 0.699567 0.008471 -0.025180
C79   C     C_R   0.134818 0.604939 0.102909 -0.125451
C80   C     C_R   0.116017 0.299359 0.020230 -0.112514
C81   C     C_R   0.652438 0.832602 0.781932 -0.085471
C82   C     C_R   0.597537 0.199157 0.793739 -0.075917
C83   C     C_R   0.152452 0.332625 0.781949 -0.085627
C84   C     C_R   0.097543 0.699156 0.793737 -0.075893
C85   C     C_R   0.588693 0.106815 0.699504 -0.110585
C86   C     C_R   0.643478 0.924767 0.686513 -0.098370
C87   C     C_R   0.088698 0.606815 0.699501 -0.109855
C88   C     C_R   0.143495 0.424778 0.686521 -0.096815
C89   C     C_2   0.362665 0.290618 0.617633 0.992044
C90   C     C_R   0.652673 0.183761 0.071346 0.079130
C91   C     C_2   0.094557 0.864430 0.724194 1.014503
C92   C     C_2   0.862818 0.790866 0.617503 0.992812
C93   C     C_2   0.594550 0.364428 0.724189 1.014474
C94   C     C_2   0.853148 0.948140 0.483139 1.112706
C95   C     C_2   0.772405 0.246230 0.634539 1.122763
C96   C     C_2   0.353779 0.447780 0.483767 1.115437
C97   C     C_2   0.272417 0.746233 0.634524 1.122902
C98   C     C_2   0.618499 0.275586 0.971270 0.931188
C99   C     C_2   0.582455 0.721374 0.018993 0.958424
C100  C     C_2   0.118509 0.775586 0.971261 0.931192
H1    H     H_    0.351428 0.240817 0.067283 0.101728
H2    H     H_    0.577106 0.326147 0.612478 0.173752
H3    H     H_    0.261997 0.219476 0.655687 0.127649
H4    H     H_    0.077113 0.826156 0.612483 0.173702
H5    H     H_    0.734166 0.755571 0.399653 0.009630
H6    H     H_    0.737632 0.214245 0.341598 0.007935
H7    H     H_    0.234388 0.256031 0.399292 0.009481
H8    H     H_    0.237610 0.714265 0.341600 0.007698
H9    H     H_    0.655200 0.732709 0.630449 0.223566
H10   H     H_    0.582314 0.198527 0.544642 0.213249
H11   H     H_    0.155022 0.233081 0.630164 0.223546
H12   H     H_    0.340342 0.766850 0.080407 0.097742
H13   H     H_    0.082313 0.698525 0.544651 0.213397
H14   H     H_    0.650606 0.812937 0.561138 0.136523
H15   H     H_    0.674854 0.141067 0.488845 0.137470
H16   H     H_    0.150879 0.313468 0.560673 0.136202
H17   H     H_    0.174861 0.641076 0.488837 0.137316
H18   H     H_    0.363715 0.342484 0.310814 0.097498
H19   H     H_    0.335294 0.705525 0.386355 0.115398
H20   H     H_    0.863400 0.842406 0.310782 0.098262
H21   H     H_    0.835306 0.205522 0.386363 0.115654
H22   H     H_    0.355805 0.758448 0.201091 0.086009
H23   H     H_    0.851441 0.740824 0.067265 0.101770
H24   H     H_    0.387327 0.253936 0.184545 0.131908
H25   H     H_    0.855816 0.258441 0.201088 0.086122
H26   H     H_    0.887354 0.753931 0.184501 0.132033
H27   H     H_    0.767112 0.903659 0.461163 0.057098
H28   H     H_    0.762364 0.155946 0.549018 0.146148
H29   H     H_    0.267755 0.404094 0.461189 0.056865
H30   H     H_    0.262368 0.655950 0.549010 0.146755
H31   H     H_    0.231329 0.707755 0.119167 0.125771
H32   H     H_    0.215055 0.275553 0.137090 0.116822
H33   H     H_    0.731320 0.207760 0.119178 0.125742
H34   H     H_    0.840334 0.266855 0.080420 0.097763
H35   H     H_    0.715066 0.775555 0.137074 0.116825
H36   H     H_    0.666044 0.346562 0.062131 0.166342
H37   H     H_    0.747365 0.714592 0.924974 0.123101
H38   H     H_    0.166045 0.846559 0.062132 0.166370
H39   H     H_    0.247341 0.214573 0.925005 0.123173
H40   H     H_    0.304178 0.946485 0.921821 0.132145
H41   H     H_    0.334806 0.075924 0.869401 0.120260
H42   H     H_    0.804177 0.446488 0.921825 0.132127
H43   H     H_    0.834816 0.575930 0.869387 0.120189
H44   H     H_    0.413716 0.078037 0.359236 0.094680
H45   H     H_    0.331879 0.146164 0.512405 0.210599
H46   H     H_    0.351641 0.954190 0.380154 0.098902
H47   H     H_    0.913761 0.578053 0.359201 0.094785
H48   H     H_    0.851643 0.454190 0.380155 0.099016
H49   H     H_    0.673061 0.784740 0.805780 0.102164
H50   H     H_    0.604435 0.254141 0.821630 0.137448
H51   H     H_    0.173085 0.284799 0.805836 0.102237
H52   H     H_    0.104443 0.754140 0.821627 0.137417
H53   H     H_    0.581172 0.076339 0.644183 0.097297
H54   H     H_    0.654375 0.959701 0.621272 0.091182
H55   H     H_    0.081180 0.576339 0.644177 0.097059
H56   H     H_    0.177381 0.913931 0.495323 0.212014
H57   H     H_    0.154398 0.459703 0.621268 0.091703
H58   H     H_    0.647784 0.928409 0.152828 0.098287
H59   H     H_    0.640120 0.077305 0.161222 0.096801
H60   H     H_    0.147778 0.428408 0.152836 0.098235
H61   H     H_    0.140123 0.577303 0.161218 0.096766
H62   H     H_    0.423779 0.205578 0.448728 0.175448
H63   H     H_    0.241586 0.899163 0.538542 0.199565
H64   H     H_    0.924160 0.706145 0.448312 0.175762
H65   H     H_    0.741577 0.399165 0.538539 0.199615
H66   H     H_    0.442641 0.263059 0.651830 0.329439
H67   H     H_    0.832512 0.646334 0.512143 0.210356
H68   H     H_    0.991435 0.883616 0.877123 0.324788
H69   H     H_    0.942874 0.763407 0.651603 0.329422
H70   H     H_    0.491429 0.383616 0.877117 0.324721
H71   H     H_    0.462163 0.329509 0.387425 0.334574
H72   H     H_    0.366519 0.842469 0.464922 0.338130
H73   H     H_    0.961803 0.830452 0.387543 0.333555
H74   H     H_    0.866506 0.342476 0.464940 0.338161
H75   H     H_    0.943656 0.031396 0.403685 0.338004
H76   H     H_    0.809987 0.212730 0.724063 0.342741
H77   H     H_    0.446221 0.529400 0.405415 0.338196
H78   H     H_    0.677378 0.413918 0.495307 0.211956
H79   H     H_    0.310006 0.712731 0.724039 0.342652
H80   H     H_    0.720428 0.630500 0.412885 0.323486
H81   H     H_    0.622747 0.263777 0.376514 0.323097
H82   H     H_    0.220274 0.130979 0.412514 0.323565
H83   H     H_    0.122706 0.763801 0.376568 0.323099
H84   H     H_    0.541827 0.360418 0.987194 0.331352
H85   H     H_    0.561728 0.607509 0.064605 0.337862
H86   H     H_    0.041844 0.860425 0.987183 0.331483
H87   H     H_    0.061684 0.107516 0.064656 0.338122
H88   H     H_    0.762327 0.719560 0.655482 0.127383
N1    N     N_R   0.408680 0.130160 0.995800 -0.046643
N2    N     N_R   0.403730 0.078230 0.935950 -0.054392
N3    N     N_R   0.903730 0.421770 0.935950 -0.058556
N4    N     N_R   0.903730 0.578230 0.935950 -0.054419
N5    N     N_R   0.426630 0.075970 0.212960 -0.055220
N6    N     N_R   0.426630 0.924030 0.212960 -0.049033
N7    N     N_R   0.926630 0.575970 0.212960 -0.055260
N8    N     N_R   0.926630 0.424030 0.212960 -0.049025
N9    N     N_R   0.591320 0.134600 0.004200 -0.069396
N10   N     N_R   0.591320 0.865400 0.004200 -0.061830
N11   N     N_R   0.091320 0.634600 0.004200 -0.069384
N12   N     N_R   0.408680 0.869840 0.995800 -0.043753
N13   N     N_R   0.091320 0.365400 0.004200 -0.061826
N14   N     N_R   0.578320 0.867660 0.846880 -0.033877
N15   N     N_R   0.578320 0.132340 0.846880 -0.043420
N16   N     N_R   0.078320 0.367660 0.846880 -0.033920
N17   N     N_R   0.078320 0.632340 0.846880 -0.043387
N18   N     N_R   0.573370 0.074390 0.787040 -0.038102
N19   N     N_R   0.573370 0.925610 0.787040 -0.058315
N20   N     N_R   0.073370 0.574390 0.787040 -0.038068
N21   N     N_R   0.073370 0.425610 0.787040 -0.058582
N22   N     N_R   0.596270 0.927870 0.064040 -0.048119
N23   N     N_R   0.908680 0.630160 0.995800 -0.046659
N24   N     N_R   0.596270 0.072130 0.064040 -0.047734
N25   N     N_R   0.096270 0.427870 0.064040 -0.048105
N26   N     N_R   0.096270 0.572130 0.064040 -0.047714
N27   N     N_R   0.908680 0.369840 0.995800 -0.043746
N28   N     N_R   0.421680 0.867580 0.153120 -0.045123
N29   N     N_R   0.421680 0.132420 0.153120 -0.043500
N30   N     N_R   0.921680 0.367580 0.153120 -0.045129
N31   N     N_R   0.921680 0.632420 0.153120 -0.043522
N32   N     N_R   0.403730 0.921770 0.935950 -0.058538
Ni1   Ni    Ni4+2 0.500000 0.131190 0.000000 0.266684
Ni2   Ni    Ni4+2 0.500000 0.868810 0.000000 0.284809
Ni3   Ni    Ni4+2 0.000000 0.631190 0.000000 0.266697
Ni4   Ni    Ni4+2 0.000000 0.368810 0.000000 0.284850
Ni5   Ni    Ni4+2 0.488650 1.000000 0.862740 0.229755
Ni6   Ni    Ni4+2 0.988650 0.500000 0.862740 0.229722
Ni7   Ni    Ni4+2 0.511350 1.000000 0.137260 0.222383
Ni8   Ni    Ni4+2 0.011350 0.500000 0.137260 0.222354
O1    O     O_2   0.364036 0.360180 0.636868 -0.595543
O2    O     O_3   0.382887 0.791645 0.425701 -0.723645
O3    O     O_3   0.955885 0.831205 0.328381 -0.685597
O4    O     O_3   0.882881 0.291649 0.425724 -0.723695
O5    O     O_2   0.822632 0.980880 0.569941 -0.588235
O6    O     O_R   0.922619 0.982394 0.388727 -0.756801
O7    O     O_2   0.768350 0.315227 0.659993 -0.603346
O8    O     O_R   0.797463 0.189454 0.674543 -0.763834
O9    O     O_2   0.321780 0.481585 0.570251 -0.590590
O10   O     O_R   0.425278 0.480540 0.390050 -0.755319
O11   O     O_2   0.268368 0.815230 0.659974 -0.603424
O12   O     O_R   0.410070 0.236947 0.628185 -0.815986
O13   O     O_R   0.297474 0.689456 0.674527 -0.763658
O14   O     O_3   0.718634 0.649343 0.475176 -0.727297
O15   O     O_3   0.647076 0.299798 0.402114 -0.726358
O16   O     O_3   0.218375 0.149729 0.474916 -0.727195
O17   O     O_3   0.147052 0.799818 0.402151 -0.726465
O18   O     O_2   0.681591 0.310145 0.897951 -0.622048
O19   O     O_R   0.538997 0.307295 0.018446 -0.813249
O20   O     O_2   0.546739 0.714081 0.977047 -0.660728
O21   O     O_R   0.587940 0.656975 0.069982 -0.779652
O22   O     O_2   0.181604 0.810141 0.897941 -0.622013
O23   O     O_2   0.136210 0.911853 0.733998 -0.574630
O24   O     O_R   0.039009 0.807300 0.018435 -0.813092
O25   O     O_2   0.046741 0.214080 0.977041 -0.660625
O26   O     O_R   0.087900 0.156980 0.070028 -0.779547
O27   O     O_R   0.010217 0.851305 0.810777 -0.813040
O28   O     O_2   0.864024 0.860405 0.636932 -0.593443
O29   O     O_R   0.910366 0.737263 0.627887 -0.816281
O30   O     O_2   0.636202 0.411854 0.733991 -0.574615
O31   O     O_R   0.510210 0.351304 0.810773 -0.813056
O32   O     O_3   0.456192 0.330701 0.328324 -0.684704

loop_
_geom_bond_atom_site_label_1
_geom_bond_atom_site_label_2
_ccdc_geom_bond_type
C58   H39   S    
C25   C31   S    
C6    C32   S    
N8    Ni8   S    
C89   O1    D    
C23   C45   S    
C13   N12   A    
C1    H1    S    
C27   C29   S    
N2    Ni5   S    
C96   O9    D    
C14   C18   S    
C52   C90   S    
C53   H35   S    
C62   H43   S    
C99   O21   S    
C42   N29   A    
C96   O10   S    
N27   Ni4   S    
C43   H25   S    
C12   H67   S    
N7    N31   A    
C92   O29   S    
C42   H24   S    
C8    C88   A    
C91   O23   D    
C2    C46   A    
N11   N26   A    
N5    N29   A    
C39   C96   S    
C17   C92   S    
C44   H26   S    
N32   Ni5   S    
N9    Ni1   S    
C13   C69   A    
N7    Ni8   S    
C59   H40   S    
H71   O32   S    
N10   Ni2   S    
C98   O18   D    
C21   H20   S    
C100  O22   D    
C76   N9    A    
C27   O17   S    
N31   Ni3   S    
N6    N28   A    
C82   N15   A    
C20   C40   S    
C45   H9    S    
C12   H64   S    
C3    C80   S    
C17   H88   S    
H66   O12   S    
C66   C74   A    
C62   C70   A    
C18   H2    S    
C81   H49   S    
N14   Ni2   S    
C88   N21   A    
C64   H46   S    
C14   H65   S    
H73   O3    S    
N20   Ni6   S    
C93   O31   S    
N24   Ni7   S    
C84   N17   A    
C16   H4    S    
C79   N26   A    
C49   H17   S    
C54   C71   S    
C60   C67   A    
C34   C48   S    
C64   N6    A    
N16   N21   A    
C85   N18   A    
C9    C36   S    
C63   H44   S    
C63   N5    A    
H70   O31   S    
C65   H47   S    
N26   Ni8   S    
C77   N10   A    
C14   C31   S    
C15   C34   S    
H86   O24   S    
C26   C48   S    
C95   O8    S    
C48   H16   S    
C29   C72   S    
N3    N27   A    
C61   C71   A    
C43   C74   A    
N4    Ni6   S    
C57   H59   S    
C57   N24   A    
C35   C71   A    
C10   H62   S    
C6    C81   A    
N16   Ni4   S    
H69   O29   S    
C52   H33   S    
C7    C33   S    
C89   O12   S    
C85   H53   S    
C44   N31   A    
C95   O7    D    
C79   H61   S    
C5    C68   A    
C28   C73   S    
C45   H14   S    
C35   H34   S    
C24   N23   A    
C52   C54   D    
C25   H6    S    
N1    Ni1   S    
C83   H51   S    
C20   C29   S    
C53   C55   D    
N29   Ni1   S    
C97   O11   D    
N15   N18   A    
C20   O2    S    
C57   C90   A    
C24   C70   A    
C34   C39   S    
C55   C70   S    
C23   C30   S    
H83   O17   S    
C36   C40   S    
N5    Ni7   S    
C4    C79   A    
C35   N27   A    
C22   C31   S    
C40   C97   S    
C41   N28   A    
H72   O2    S    
C94   O6    S    
C31   C74   S    
C62   N4    A    
C39   H29   S    
C32   C37   S    
H68   O27   S    
C97   O13   S    
N17   Ni3   S    
C24   H23   S    
C50   C56   D    
C4    C50   S    
C5    C80   A    
N6    Ni7   S    
C38   C95   S    
C44   C75   A    
C47   H15   S    
C3    O25   D    
N4    N23   A    
C4    C78   A    
C19   C28   S    
C60   H41   S    
C15   C89   S    
C46   H58   S    
C56   H38   S    
C11   C16   S    
C61   H42   S    
N8    N30   A    
C80   N13   A    
N22   Ni7   S    
H75   O6    S    
C54   H36   S    
C7    C82   A    
N18   Ni5   S    
C11   H63   S    
C49   H13   S    
N23   Ni3   S    
C21   C37   S    
C51   C58   D    
C8    C34   S    
C88   H57   S    
C32   C45   S    
H87   O26   S    
C37   H27   S    
C68   N25   A    
N13   N25   A    
C82   H50   S    
C19   C39   S    
C11   H56   S    
C59   C69   A    
C41   C72   A    
C92   O28   D    
C41   H22   S    
C56   C69   S    
N3    Ni6   S    
N14   N19   A    
C78   C100  S    
N12   N32   A    
H84   O19   S    
C87   H55   S    
C43   N30   A    
N11   Ni3   S    
C78   N11   A    
H79   O13   S    
C84   H52   S    
C19   O32   S    
C38   H28   S    
C14   H78   S    
C22   H21   S    
C61   N3    A    
N17   N20   A    
C10   C28   S    
C17   C32   S    
C40   H30   S    
C25   C47   S    
C42   C73   A    
C12   C30   S    
C10   C15   S    
C66   H48   S    
C5    C51   S    
C8    C83   A    
C83   N16   A    
C100  O24   S    
C2    C53   S    
C6    C86   A    
C26   H7    S    
C66   N8    A    
C51   H32   S    
C94   O5    D    
N30   Ni4   S    
C81   N14   A    
H80   O14   S    
C13   H12   S    
C47   H10   S    
C63   C73   A    
C21   C30   S    
C86   N19   A    
C26   C28   S    
C33   C38   S    
C55   H37   S    
C59   N32   A    
H82   O16   S    
N15   Ni1   S    
C86   H54   S    
C3    O26   S    
N12   Ni2   S    
C98   O19   S    
N25   Ni8   S    
C46   N22   A    
C9    C87   A    
C12   C17   S    
C30   C75   S    
C7    C85   A    
C91   O27   S    
C27   H8    S    
C23   H5    S    
C33   C47   S    
C19   H18   S    
C1    C67   A    
C37   C94   S    
C77   C99   S    
C25   O15   S    
C26   O16   S    
C64   C72   A    
C1    N1    A    
N1    N2    A    
N10   N22   A    
C18   C33   S    
N28   Ni2   S    
C87   N20   A    
H74   O4    S    
H76   O8    S    
C50   H31   S    
C36   C49   S    
C9    C84   A    
H85   O21   S    
C93   O30   D    
C27   C49   S    
C58   C67   S    
C48   H11   S    
C22   O4    S    
C11   C29   S    
C16   C91   S    
C60   N2    A    
C10   H45   S    
N21   Ni6   S    
N9    N24   A    
C18   C93   S    
C2    C77   A    
N19   Ni5   S    
C23   O14   S    
N13   Ni4   S    
C15   H3    S    
C99   O20   D    
C68   H60   S    
C76   C98   S    
C20   H19   S    
C16   C36   S    
C65   C75   A    
H81   O15   S    
C76   C90   A    
H77   O10   S    
C65   N7    A    
C22   C38   S    
C21   O3    S    
