data_mof_unit_39052.cif
_audit_creation_date              2012-12-10T17:02:19-0500
_audit_creation_method            fapswitch 2.2
_symmetry_space_group_name_H-M    P1
_symmetry_Int_Tables_number       1
_space_group_crystal_system       triclinic
_cell_length_a                    10.626189
_cell_length_b                    10.66215
_cell_length_c                    10.010901
_cell_angle_alpha                 86.6021
_cell_angle_beta                  88.576623
_cell_angle_gamma                 90.393457
_cell_volume                      1131.83244093

loop_
_atom_site_label
_atom_site_type_symbol
_atom_type_description
_atom_site_fract_x
_atom_site_fract_y
_atom_site_fract_z
_atom_type_partial_charge
C1    C     C_R   0.488918 0.261671 0.504733 0.905585
C2    C     C_2   0.450600 0.130185 0.522054 -0.295584
C3    C     C_2   0.430896 0.572248 0.922375 -0.032305
C4    C     C_R   0.260261 0.484002 0.503321 0.943451
C5    C     C_2   0.436400 0.577306 0.071979 -0.065331
C6    C     C_R   0.499963 0.737724 0.495505 1.023612
C7    C     C_R   0.740238 0.511257 0.497713 0.912316
C8    C     C_R   0.094519 0.458439 0.760838 -0.060443
C9    C     C_R   0.038177 0.521429 0.867638 -0.144649
C10   C     C_R   0.943830 0.609565 0.840580 -0.267769
C11   C     C_R   0.892304 0.623537 0.713279 0.008880
C12   C     C_R   0.055198 0.489628 0.628301 0.033267
C13   C     C_R   0.939784 0.548841 0.610768 0.006389
C14   C     C_2   0.461468 0.068768 0.660728 0.925270
C15   C     C_2   0.177541 0.348081 0.786743 0.977763
C16   C     C_2   0.071598 0.495343 0.009109 0.938366
C17   C     C_2   0.799407 0.725065 0.687337 0.939640
C18   C     C_2   0.269679 0.867283 0.413042 0.990624
C19   C     C_2   0.359977 0.130563 0.292150 1.046431
C20   C     C_R   0.125406 0.466218 0.510227 -0.109702
C21   C     C_R   0.065150 0.456227 0.389275 -0.082391
C22   C     C_R   0.938805 0.479084 0.382451 -0.147888
C23   C     C_R   0.874930 0.523442 0.493625 -0.095414
C24   C     C_2   0.392292 0.930792 0.434652 -0.049452
C25   C     C_2   0.494928 0.870568 0.480470 -0.343764
C26   C     C_2   0.400212 0.068202 0.420762 -0.155446
H1    H     H_    0.906347 0.663308 0.920910 0.199274
H2    H     H_    0.114606 0.676823 0.036774 0.320845
H3    H     H_    0.666067 0.836950 0.762533 0.364995
H4    H     H_    0.891393 0.460930 0.290887 0.196528
H5    H     H_    0.142812 0.734633 0.476493 0.344742
H6    H     H_    0.263101 0.270302 0.198643 0.377905
H7    H     H_    0.581659 0.920838 0.498365 0.168670
H8    H     H_    0.116167 0.431321 0.300252 0.244945
H9    H     H_    0.388460 0.947343 0.805263 0.359423
H10   H     H_    0.363920 0.632871 0.870683 0.160982
H11   H     H_    0.569611 0.448831 0.899135 0.183061
H12   H     H_    0.380083 0.647788 0.118820 0.184130
H13   H     H_    0.549010 0.429771 0.105383 0.182815
H14   H     H_    0.227167 0.175505 0.734721 0.372610
N1    N     N_2   0.501340 0.501330 0.852150 -0.166448
N2    N     N_2   0.501380 0.501360 0.147810 -0.191547
O1    O     O_R   0.499980 0.319060 0.613040 -0.577350
O2    O     O_R   0.369738 0.982706 0.711674 -0.782806
O3    O     O_2   0.252868 0.345865 0.877159 -0.606230
O4    O     O_R   0.169323 0.246329 0.705520 -0.784349
O5    O     O_2   0.063927 0.388149 0.058781 -0.576616
O6    O     O_R   0.107463 0.592375 0.088517 -0.800296
O7    O     O_2   0.790210 0.774426 0.574624 -0.654596
O8    O     O_R   0.724935 0.766972 0.792653 -0.786345
O9    O     O_2   0.199969 0.908872 0.326026 -0.581341
O10   O     O_R   0.230559 0.764577 0.497157 -0.798766
O11   O     O_2   0.389653 0.085643 0.186367 -0.580252
O12   O     O_R   0.500020 0.319100 0.386900 -0.600808
O13   O     O_R   0.283732 0.236799 0.292368 -0.780714
O14   O     O_R   0.316750 0.499980 0.613090 -0.624197
O15   O     O_R   0.316790 0.500020 0.386950 -0.584906
O16   O     O_R   0.499980 0.680900 0.613100 -0.591083
O17   O     O_R   0.500020 0.680940 0.386960 -0.614167
O18   O     O_R   0.683210 0.499980 0.613050 -0.622969
O19   O     O_R   0.683250 0.500020 0.386910 -0.618317
O20   O     O_2   0.550793 0.093815 0.729506 -0.582077
Zn1   Zn    Zn3+2 0.499970 0.499970 0.650990 1.031978
Zn2   Zn    Zn3+2 0.500030 0.500030 0.349010 1.011819

loop_
_geom_bond_atom_site_label_1
_geom_bond_atom_site_label_2
_ccdc_geom_bond_type
C4    O15   A    
C17   O8    S    
O19   Zn2   S    
C5    N2    D    
C19   O13   S    
H13   N2    S    
C9    C10   A    
C6    O16   A    
H6    O13   S    
C10   H1    S    
C8    C12   A    
H5    O10   S    
C1    O12   A    
C12   C20   A    
C19   O11   D    
O14   Zn1   S    
C18   O10   S    
C2    C26   D    
C5    H12   S    
C24   C25   D    
H14   O4    S    
H9    O2    S    
C11   C13   A    
C16   O6    S    
O17   Zn2   S    
C7    O19   A    
O12   Zn2   S    
C3    H10   S    
O18   Zn1   S    
C18   C24   S    
C16   O5    D    
C9    C16   S    
C24   C26   S    
C18   O9    D    
C8    C15   S    
H3    O8    S    
H2    O6    S    
H11   N1    S    
C2    C14   S    
C7    C23   S    
C6    C25   S    
C10   C11   A    
N1    Zn1   S    
O1    Zn1   S    
C4    C20   S    
N2    Zn2   S    
C7    O18   A    
C20   C21   A    
C13   C23   A    
O15   Zn2   S    
C14   O2    S    
C1    C2    S    
C17   O7    D    
O16   Zn1   S    
C19   C26   S    
C15   O3    D    
C22   C23   A    
C3    N1    D    
C21   H8    S    
C22   H4    S    
C15   O4    S    
C12   C13   A    
C21   C22   A    
C6    O17   A    
C1    O1    A    
C4    O14   A    
C11   C17   S    
C25   H7    S    
C8    C9    A    
C3    C5    S    
C14   O20   D    
