data_mof_unit_23793.cif
_audit_creation_date              2012-10-26T20:44:04-0400
_audit_creation_method            fapswitch 2.2
_symmetry_space_group_name_H-M    P1
_symmetry_Int_Tables_number       1
_space_group_crystal_system       triclinic
_cell_length_a                    10.896748
_cell_length_b                    9.608987
_cell_length_c                    19.489651
_cell_angle_alpha                 89.911499
_cell_angle_beta                  95.24423
_cell_angle_gamma                 89.95836
_cell_volume                      2032.15195813

loop_
_atom_site_label
_atom_site_type_symbol
_atom_type_description
_atom_site_fract_x
_atom_site_fract_y
_atom_site_fract_z
_atom_type_partial_charge
C1    C     C_R   0.871132 0.499820 0.486068 0.005731
C2    C     C_R   0.736640 0.499956 0.493275 0.540129
C3    C     C_R   0.512019 0.500105 0.368258 0.534760
C4    C     C_R   0.487505 0.499815 0.631688 0.535010
C5    C     C_R   0.063126 0.373308 0.512166 -0.007624
C6    C     C_R   0.937183 0.626746 0.488235 -0.007315
C7    C     C_R   0.937509 0.372929 0.489219 -0.007835
C8    C     C_R   0.062668 0.627024 0.511457 -0.007240
C9    C     C_R   0.456429 0.372512 0.744212 -0.004772
C10   C     C_R   0.539759 0.627732 0.255762 -0.003789
C11   C     C_R   0.541024 0.373248 0.255924 -0.003779
C12   C     C_R   0.129061 0.500224 0.514298 0.005997
C13   C     C_R   0.460522 0.626824 0.743994 -0.003990
C14   C     C_R   0.477133 0.372086 0.816907 0.012354
C15   C     C_R   0.519158 0.627996 0.183101 0.010486
C16   C     C_R   0.520573 0.373038 0.183242 0.010657
C17   C     C_R   0.483003 0.627051 0.816562 0.010131
C18   C     C_R   0.491283 0.499569 0.852554 0.024940
C19   C     C_R   0.509965 0.500545 0.147422 0.023315
C20   C     C_R   0.420074 0.074585 0.454268 0.120129
C21   C     C_R   0.580001 0.925422 0.545687 0.120524
C22   C     C_R   0.579781 0.074193 0.545794 0.120023
C23   C     C_R   0.610484 0.503403 0.967786 -0.130652
C24   C     C_R   0.420003 0.925812 0.454316 0.120040
C25   C     C_R   0.466746 0.499484 0.707087 0.000175
C26   C     C_R   0.532038 0.500378 0.292784 0.000036
C27   C     C_3   0.329303 0.147147 0.401828 -0.334886
C28   C     C_3   0.671419 0.852882 0.597776 -0.334463
C29   C     C_3   0.669577 0.146388 0.598676 -0.334891
C30   C     C_3   0.329004 0.853659 0.402048 -0.334752
C31   C     C_3   0.119271 0.240157 0.542618 -0.376414
C32   C     C_3   0.881733 0.760163 0.457655 -0.377010
C33   C     C_3   0.882092 0.238656 0.459997 -0.376721
C34   C     C_R   0.390750 0.498362 0.032142 -0.129445
C35   C     C_3   0.117716 0.760975 0.541320 -0.377274
C36   C     C_3   0.408544 0.239768 0.709245 -0.380378
C37   C     C_3   0.590676 0.758684 0.290931 -0.380050
C38   C     C_3   0.593019 0.242744 0.291374 -0.379885
C39   C     C_3   0.409212 0.757930 0.708836 -0.379467
C40   C     C_3   0.482234 0.234574 0.855895 -0.402569
C41   C     C_3   0.508497 0.763238 0.142420 -0.399358
C42   C     C_3   0.511498 0.237882 0.142678 -0.399731
C43   C     C_3   0.495943 0.762455 0.856826 -0.399705
C44   C     C_R   0.614384 0.503330 0.039434 -0.122886
C45   C     C_R   0.386836 0.498327 0.960494 -0.120556
C46   C     C_R   0.504561 0.500744 0.071677 0.033765
C47   C     C_R   0.496662 0.500936 0.928254 0.031037
C48   C     C_R   0.263430 0.500066 0.506824 0.540216
Cu1   Cu    Cu3+1 0.500000 0.640660 0.500000 0.878606
Cu2   Cu    Cu3+1 0.500000 0.359340 0.500000 0.877992
H1    H     H_    0.695560 0.505084 0.943100 0.103551
H2    H     H_    0.653915 0.882325 0.650834 0.082168
H3    H     H_    0.673142 0.258920 0.597015 0.212759
H4    H     H_    0.648385 0.118849 0.651401 0.084762
H5    H     H_    0.765202 0.113110 0.593082 0.074687
H6    H     H_    0.326939 0.741038 0.402905 0.212690
H7    H     H_    0.233610 0.885497 0.409224 0.076818
H8    H     H_    0.347341 0.882863 0.349058 0.082928
H9    H     H_    0.201822 0.260623 0.578241 0.145728
H10   H     H_    0.053444 0.187936 0.574512 0.108979
H11   H     H_    0.141646 0.167601 0.501726 0.133702
H12   H     H_    0.305682 0.496357 0.056832 0.101884
H13   H     H_    0.797148 0.741243 0.423490 0.147902
H14   H     H_    0.863281 0.834856 0.498429 0.131701
H15   H     H_    0.946732 0.809398 0.424225 0.108899
H16   H     H_    0.799058 0.257234 0.424436 0.147171
H17   H     H_    0.948075 0.186101 0.428348 0.108988
H18   H     H_    0.860893 0.166993 0.501582 0.132818
H19   H     H_    0.202537 0.742856 0.575487 0.148387
H20   H     H_    0.135613 0.835169 0.500141 0.131267
H21   H     H_    0.052630 0.810471 0.574578 0.108791
H22   H     H_    0.362370 0.257280 0.657383 0.157110
H23   H     H_    0.702635 0.505148 0.069885 0.104615
H24   H     H_    0.483452 0.162608 0.707520 0.126544
H25   H     H_    0.335201 0.193569 0.737974 0.108992
H26   H     H_    0.643513 0.736736 0.340671 0.152612
H27   H     H_    0.658942 0.808437 0.259727 0.111236
H28   H     H_    0.516030 0.833881 0.297712 0.129314
H29   H     H_    0.645569 0.265265 0.341105 0.152529
H30   H     H_    0.518993 0.166883 0.298298 0.129639
H31   H     H_    0.661824 0.193640 0.260344 0.111235
H32   H     H_    0.355102 0.735804 0.659509 0.151618
H33   H     H_    0.342075 0.808377 0.740497 0.111324
H34   H     H_    0.298587 0.496154 0.930048 0.106147
H35   H     H_    0.483833 0.832507 0.701122 0.130353
H36   H     H_    0.542208 0.159706 0.831270 0.120496
H37   H     H_    0.521511 0.243923 0.910151 0.139402
H38   H     H_    0.388217 0.190377 0.856064 0.122447
H39   H     H_    0.498520 0.856302 0.174938 0.117548
H40   H     H_    0.590925 0.776877 0.113550 0.130420
H41   H     H_    0.424853 0.760893 0.105350 0.132469
H42   H     H_    0.503678 0.144359 0.175277 0.117633
H43   H     H_    0.427277 0.238865 0.106047 0.131870
H44   H     H_    0.593517 0.226089 0.113326 0.130386
H45   H     H_    0.326658 0.259741 0.402899 0.212520
H46   H     H_    0.504439 0.855409 0.823915 0.118316
H47   H     H_    0.415258 0.776677 0.887018 0.131237
H48   H     H_    0.581170 0.759784 0.892655 0.131350
H49   H     H_    0.348515 0.118811 0.348892 0.083833
H50   H     H_    0.233836 0.114915 0.408593 0.075885
H51   H     H_    0.673201 0.740247 0.597193 0.212643
H52   H     H_    0.766721 0.884167 0.590071 0.077123
N1    N     N_R   0.500000 0.852070 0.500000 -0.229387
N2    N     N_R   0.500000 0.147930 0.500000 -0.229596
O1    O     O_R   0.319640 0.618740 0.500000 -0.517553
O2    O     O_R   0.680360 0.381260 0.500000 -0.517464
O3    O     O_R   0.680360 0.618740 0.500000 -0.517196
O4    O     O_R   0.319640 0.381260 0.500000 -0.517508
O5    O     O_R   0.500020 0.618830 0.400190 -0.516247
O6    O     O_R   0.499980 0.381170 0.599810 -0.517299
O7    O     O_R   0.499980 0.618830 0.599810 -0.515892
O8    O     O_R   0.500020 0.381170 0.400190 -0.515899

loop_
_geom_bond_atom_site_label_1
_geom_bond_atom_site_label_2
_ccdc_geom_bond_type
C6    C32   S    
Cu2   N2    S    
C22   C29   S    
C42   H43   S    
C14   C18   A    
C41   H39   S    
C43   H48   S    
C34   H12   S    
C12   C48   S    
C18   C47   S    
C4    C25   S    
C19   C46   S    
C9    C25   A    
Cu1   O3    S    
C15   C19   A    
C27   H49   S    
C29   H3    S    
C10   C37   S    
C40   H37   S    
C14   C40   S    
C10   C15   A    
C38   H29   S    
C40   H36   S    
C30   H7    S    
C2    O3    A    
Cu2   O6    S    
C22   N2    A    
C1    C2    S    
C31   H9    S    
C31   H11   S    
C27   H45   S    
C28   H51   S    
C20   C24   A    
C35   H20   S    
C9    C36   S    
C34   C46   A    
Cu1   O7    S    
C10   C26   A    
C41   H40   S    
C35   H21   S    
C42   H44   S    
C21   C22   A    
Cu2   O4    S    
C7    C33   S    
C13   C25   A    
C44   C46   A    
C33   H16   S    
C17   C18   A    
C45   C47   A    
C27   H50   S    
C23   C47   A    
C1    C6    A    
C15   C41   S    
C5    C12   A    
C5    C7    A    
C6    C8    A    
C29   H5    S    
C11   C26   A    
C30   H6    S    
C2    O2    A    
C23   C44   A    
C8    C35   S    
C31   H10   S    
C11   C38   S    
C9    C14   A    
C17   C43   S    
C36   H25   S    
C11   C16   A    
C23   H1    S    
C48   O1    A    
C3    O8    A    
C8    C12   A    
Cu2   O8    S    
C43   H46   S    
C34   C45   A    
C32   H14   S    
C36   H24   S    
C41   H41   S    
C4    O7    A    
C38   H31   S    
C45   H34   S    
C39   H35   S    
C16   C42   S    
C33   H17   S    
Cu1   O5    S    
C4    O6    A    
C1    C7    A    
C37   H26   S    
C3    C26   S    
C43   H47   S    
C39   H32   S    
Cu1   N1    S    
Cu1   O1    S    
C20   N2    A    
C20   C27   S    
C32   H13   S    
C37   H28   S    
C13   C17   A    
C24   N1    A    
C40   H38   S    
C39   H33   S    
C28   H2    S    
C48   O4    A    
C38   H30   S    
C3    O5    A    
C16   C19   A    
C30   H8    S    
C42   H42   S    
C44   H23   S    
C24   C30   S    
C13   C39   S    
C21   C28   S    
C21   N1    A    
C28   H52   S    
C37   H27   S    
C35   H19   S    
Cu1   Cu2   S    
C29   H4    S    
Cu2   O2    S    
C36   H22   S    
C33   H18   S    
C32   H15   S    
C5    C31   S    
