data_mof_unit_18833.cif
_audit_creation_date              2012-10-26T21:00:40-0400
_audit_creation_method            fapswitch 2.2
_symmetry_space_group_name_H-M    P1
_symmetry_Int_Tables_number       1
_space_group_crystal_system       triclinic
_cell_length_a                    10.849665
_cell_length_b                    9.497253
_cell_length_c                    10.790337
_cell_angle_alpha                 90.085916
_cell_angle_beta                  90.239948
_cell_angle_gamma                 90.507916
_cell_volume                      1111.80330077

loop_
_atom_site_label
_atom_site_type_symbol
_atom_type_description
_atom_site_fract_x
_atom_site_fract_y
_atom_site_fract_z
_atom_type_partial_charge
C1    C     C_R   0.261984 0.498722 0.499386 0.557649
C2    C     C_R   0.493044 0.500298 0.737516 0.539665
C3    C     C_R   0.313324 0.672115 0.129857 -0.167895
C4    C     C_R   0.324990 0.689650 0.872944 -0.169806
C5    C     C_R   0.237536 0.768378 0.066864 0.293065
C6    C     C_R   0.251284 0.784398 0.939025 0.301640
C7    C     C_R   0.402637 0.593717 0.935107 -0.036335
C8    C     C_R   0.399969 0.589277 0.065817 -0.028735
C9    C     C_R   0.481675 0.498318 0.128848 0.015383
C10   C     C_R   0.482214 0.500632 0.871263 0.013508
C11   C     C_R   0.555127 0.404172 0.063665 -0.156256
C12   C     C_R   0.737875 0.499895 0.496671 0.581076
C13   C     C_R   0.554463 0.404378 0.936067 -0.159446
C14   C     C_R   0.062860 0.374184 0.456062 0.282438
C15   C     C_R   0.934026 0.377924 0.449176 0.276919
C16   C     C_R   0.871679 0.497500 0.494357 -0.021770
C17   C     C_R   0.128069 0.494509 0.499226 -0.028784
C18   C     C_3   0.092925 0.789990 0.225140 0.004544
C19   C     C_3   0.969542 0.862616 0.245409 -0.244130
C20   C     C_3   0.878695 0.831669 0.140195 -0.390478
C21   C     C_3   0.263242 0.974598 0.806005 0.009019
C22   C     C_3   0.228817 0.129490 0.822176 -0.255927
C23   C     C_R   0.937402 0.613449 0.540666 -0.215069
C24   C     C_3   0.256329 0.182440 0.953257 -0.376145
C25   C     C_3   0.135377 0.152399 0.496395 -0.105357
C26   C     C_3   0.841223 0.158528 0.452023 -0.071548
C27   C     C_R   0.064693 0.612694 0.541604 -0.221387
C28   C     C_R   0.440037 0.073711 0.409110 -0.000518
C29   C     C_R   0.559292 0.075174 0.591367 -0.026264
C30   C     C_R   0.439415 0.924873 0.409546 0.001754
C31   C     C_R   0.559972 0.926279 0.590912 -0.013298
C32   C     C_R   0.493835 0.499703 0.262465 0.554008
Cu1   Cu    Cu3+1 0.500000 0.640660 0.500000 0.907256
Cu2   Cu    Cu3+1 0.500000 0.359340 0.500000 0.938341
H1    H     H_    0.615976 0.332530 0.111872 0.142642
H2    H     H_    0.608626 0.870802 0.663315 0.114804
H3    H     H_    0.148082 0.800760 0.311788 0.113884
H4    H     H_    0.074821 0.675887 0.206876 0.134169
H5    H     H_    0.928846 0.825499 0.334011 0.114922
H6    H     H_    0.985112 0.978165 0.251862 0.200858
H7    H     H_    0.916466 0.869212 0.050473 0.202406
H8    H     H_    0.790747 0.886888 0.158194 0.133572
H9    H     H_    0.859337 0.716794 0.134051 0.149077
H10   H     H_    0.250236 0.945161 0.707038 0.111720
H11   H     H_    0.363529 0.964561 0.828217 0.115663
H12   H     H_    0.614383 0.332220 0.887591 0.120737
H13   H     H_    0.282917 0.194239 0.755728 0.131041
H14   H     H_    0.129303 0.143427 0.801214 0.159892
H15   H     H_    0.199042 0.124763 0.021815 0.226899
H16   H     H_    0.234859 0.296350 0.959561 0.136847
H17   H     H_    0.355323 0.168143 0.976247 0.145328
H18   H     H_    0.228276 0.154505 0.538699 0.148360
H19   H     H_    0.125413 0.048778 0.449678 0.113901
H20   H     H_    0.066561 0.157070 0.572653 0.067170
H21   H     H_    0.750648 0.117147 0.420241 0.159173
H22   H     H_    0.834529 0.180739 0.553330 0.088847
H23   H     H_    0.303531 0.662233 0.228808 0.127218
H24   H     H_    0.907815 0.073333 0.436110 0.100997
H25   H     H_    0.319620 0.694047 0.773244 0.150813
H26   H     H_    0.890252 0.705201 0.575915 0.142548
H27   H     H_    0.113701 0.704507 0.576605 0.146275
H28   H     H_    0.391369 0.129160 0.336671 0.145889
H29   H     H_    0.607522 0.131840 0.664079 0.106416
H30   H     H_    0.390344 0.868466 0.337434 0.120587
N1    N     N_R   0.500000 0.852070 0.500000 -0.228307
N2    N     N_R   0.500000 0.147940 0.500000 -0.240143
O1    O     O_R   0.319640 0.618740 0.499990 -0.533633
O2    O     O_3   0.184672 0.888476 0.879293 -0.540050
O3    O     O_3   0.124227 0.260005 0.406160 -0.532918
O4    O     O_3   0.871470 0.277356 0.379062 -0.537331
O5    O     O_R   0.680360 0.618740 0.500010 -0.505313
O6    O     O_R   0.319620 0.381170 0.499990 -0.474279
O7    O     O_R   0.680380 0.381170 0.500010 -0.476285
O8    O     O_R   0.500000 0.618810 0.319650 -0.509262
O9    O     O_R   0.500000 0.618810 0.680350 -0.517966
O10   O     O_R   0.499970 0.381240 0.319640 -0.497363
O11   O     O_R   0.500030 0.381240 0.680360 -0.520222
O12   O     O_3   0.156283 0.857648 0.127158 -0.546702

loop_
_geom_bond_atom_site_label_1
_geom_bond_atom_site_label_2
_ccdc_geom_bond_type
C7    C10   A    
C22   H14   S    
C29   H29   S    
C30   H30   S    
C19   C20   S    
C26   H21   S    
Cu2   N2    S    
C20   H7    S    
Cu1   N1    S    
C7    C8    A    
C18   H3    S    
C25   H19   S    
Cu2   O11   S    
C32   O8    A    
C5    C6    A    
C15   C16   A    
C18   C19   S    
C27   H27   S    
C9    C32   S    
Cu1   O9    S    
C12   C16   S    
C8    C9    A    
C23   C27   A    
C24   H17   S    
C6    O2    S    
C22   H13   S    
C12   O7    A    
C14   C17   A    
C4    C7    A    
C21   H11   S    
C24   H16   S    
C23   H26   S    
C1    O6    A    
C17   C27   A    
C25   H20   S    
C4    C6    A    
C3    C8    A    
C28   N2    A    
C21   H10   S    
C26   H24   S    
C18   O12   S    
Cu1   Cu2   S    
C9    C11   A    
C19   H5    S    
C3    H23   S    
C12   O5    A    
C16   C23   A    
C21   O2    S    
C26   O4    S    
C14   O3    S    
C22   C24   S    
C25   O3    S    
C2    C10   S    
Cu2   O6    S    
C20   H9    S    
Cu1   O1    S    
C24   H15   S    
C31   N1    A    
C15   O4    S    
C31   H2    S    
C3    C5    A    
C10   C13   A    
C26   H22   S    
C32   O10   A    
C20   H8    S    
C1    C17   S    
C28   C30   A    
C18   H4    S    
C25   H18   S    
C29   C31   A    
C2    O11   A    
C11   C13   A    
C13   H12   S    
C4    H25   S    
C11   H1    S    
C1    O1    A    
C30   N1    A    
C19   H6    S    
Cu1   O5    S    
Cu2   O7    S    
C29   N2    A    
Cu1   O8    S    
C14   C15   A    
C5    O12   S    
C21   C22   S    
C2    O9    A    
Cu2   O10   S    
C28   H28   S    
