data_mof_unit_13786.cif
_audit_creation_date              2012-12-10T16:54:58-0500
_audit_creation_method            fapswitch 2.2
_symmetry_space_group_name_H-M    P1
_symmetry_Int_Tables_number       1
_space_group_crystal_system       triclinic
_cell_length_a                    7.785489
_cell_length_b                    8.598627
_cell_length_c                    15.718383
_cell_angle_alpha                 91.205953
_cell_angle_beta                  85.554929
_cell_angle_gamma                 93.473969
_cell_volume                      1047.02532038

loop_
_atom_site_label
_atom_site_type_symbol
_atom_type_description
_atom_site_fract_x
_atom_site_fract_y
_atom_site_fract_z
_atom_type_partial_charge
C1    C     C_R   0.545077 0.794627 0.497783 0.983985
C2    C     C_3   0.351660 0.600288 0.054623 0.542180
C3    C     C_3   0.499759 0.504653 0.082770 0.015484
C4    C     C_3   0.474515 0.335237 0.048212 -0.601029
C5    C     C_3   0.478959 0.334564 0.949842 -0.491383
C6    C     C_1   0.496097 0.503085 0.174345 0.055807
C7    C     C_1   0.506061 0.502079 0.825637 0.027110
C8    C     C_1   0.505115 0.500913 0.750322 -0.143019
C9    C     C_2   0.567112 0.957981 0.496533 -0.519519
C10   C     C_2   0.428089 0.043432 0.503149 0.463863
C11   C     C_R   0.501593 0.500146 0.661568 0.875080
C12   C     C_R   0.454265 0.205780 0.502055 0.832931
C13   C     C_R   0.498434 0.499915 0.338433 0.888418
C14   C     C_3   0.352289 0.596548 0.956361 -0.461085
C15   C     C_3   0.680002 0.575982 0.946083 0.223422
C16   C     C_3   0.676930 0.575799 0.045081 0.504945
C17   C     C_1   0.495581 0.501552 0.249685 -0.101950
C18   C     C_3   0.504824 0.503791 0.917161 0.086328
H1    H     H_    0.228043 0.539866 0.937644 0.158498
H2    H     H_    0.225299 0.548995 0.082260 0.088042
H3    H     H_    0.577913 0.263270 0.068402 0.234309
H4    H     H_    0.698929 0.008434 0.490225 0.181781
H5    H     H_    0.986621 0.618781 0.563392 0.169389
H6    H     H_    0.358984 0.716872 0.931303 0.219313
H7    H     H_    0.783844 0.500274 0.920554 0.101119
H8    H     H_    0.781175 0.503207 0.063789 0.036914
H9    H     H_    0.356148 0.278387 0.929055 0.225792
H10   H     H_    0.585637 0.263688 0.922595 0.207791
H11   H     H_    0.348761 0.281005 0.074786 0.236000
N1    N     N_2   0.950340 0.457950 0.477370 0.101428
N2    N     N_2   0.049660 0.542050 0.522630 -0.053495
O1    O     O_R   0.389240 0.738570 0.505550 -0.538867
O2    O     O_R   0.678400 0.711630 0.491050 -0.632765
O3    O     O_R   0.355360 0.513470 0.630110 -0.621278
O4    O     O_R   0.644510 0.486530 0.615610 -0.631691
O5    O     O_R   0.321600 0.288370 0.508950 -0.526863
O6    O     O_R   0.610760 0.261430 0.494450 -0.670333
O7    O     O_R   0.355490 0.513470 0.384390 -0.559149
O8    O     O_R   0.644640 0.486530 0.369890 -0.622336
Zn1   Zn    Zn3+2 0.306930 0.517990 0.509680 1.090773
Zn2   Zn    Zn3+2 0.693070 0.482010 0.490320 1.003729
F1    F     F_    0.368762 0.753231 0.084059 -0.600806
F2    F     F_    0.261381 0.983301 0.510973 -0.623210
O9    O     O_3   0.030075 0.357173 0.424153 -0.602613
H12   H     H_    0.935956 0.301620 0.394693 0.350230
O10   O     O_3   0.722301 0.725272 0.912379 -0.708564
H13   H     H_    0.637765 0.797761 0.937987 0.390906
F3    F     F_    0.710263 0.724561 0.078209 -0.585610

loop_
_geom_bond_atom_site_label_1
_geom_bond_atom_site_label_2
_ccdc_geom_bond_type
C15   C18   S    
N1    Zn2   S    
C12   O5    A    
C5    H10   S    
C9    C10   D    
C14   C18   S    
C4    H11   S    
C11   O3    A    
C13   C17   S    
C7    C18   S    
O2    Zn2   S    
C16   F3    S    
C11   O4    A    
C2    C3    S    
C1    O2    A    
C7    C8    T    
O8    Zn2   S    
N2    Zn1   S    
O7    Zn1   S    
C4    H3    S    
N1    O9    S    
C13   O7    A    
C10   C12   S    
C2    F1    S    
C8    C11   S    
O4    Zn2   S    
O1    Zn1   S    
O6    Zn2   S    
N1    N2    D    
C2    C14   S    
O3    Zn1   S    
C9    H4    S    
C13   O8    A    
C15   H7    S    
C2    H2    S    
C3    C4    S    
O5    Zn1   S    
C1    C9    S    
O9    H12   S    
C3    C6    S    
C14   H6    S    
C12   O6    A    
C6    C17   T    
O10   H13   S    
C5    C18   S    
C15   O10   S    
C10   F2    S    
C5    H9    S    
C14   H1    S    
C1    O1    A    
C3    C16   S    
C15   C16   S    
C4    C5    S    
C16   H8    S    
H5    N2    S    
