data_mof_unit_65676.cif
_audit_creation_date              2012-12-11T15:59:38-0500
_audit_creation_method            fapswitch 2.2
_symmetry_space_group_name_H-M    P1
_symmetry_Int_Tables_number       1
_space_group_crystal_system       triclinic
_cell_length_a                    7.04106
_cell_length_b                    20.2095
_cell_length_c                    21.627877
_cell_angle_alpha                 92.903531
_cell_angle_beta                  89.747074
_cell_angle_gamma                 90.150673
_cell_volume                      3073.57718554

loop_
_atom_site_label
_atom_site_type_symbol
_atom_type_description
_atom_site_fract_x
_atom_site_fract_y
_atom_site_fract_z
_atom_type_partial_charge
O1    O     O_R   0.505910 0.557140 0.441630 -0.516937
O2    O     O_R   0.175760 0.566370 0.557960 -0.520800
O3    O     O_R   0.005440 0.442860 0.558370 -0.530128
C1    C     C_R   0.344682 0.584888 0.579742 0.725752
O4    O     O_R   0.176200 0.564760 0.442040 -0.519788
O5    O     O_R   0.005880 0.441250 0.441620 -0.518312
C2    C     C_R   0.345877 0.582411 0.419711 0.700328
O6    O     O_R   0.505470 0.558750 0.558380 -0.518456
O7    O     O_3   0.339200 0.459480 0.500000 -0.360030
V1    V     V_3+5 0.064350 0.507520 0.500000 1.402010
O8    O     O_R   0.676160 0.433630 0.442040 -0.521811
C3    C     C_R   0.845212 0.415558 0.420075 0.715774
O9    O     O_R   0.675730 0.435240 0.557960 -0.537893
C4    C     C_R   0.844196 0.421625 0.578322 0.733460
V2    V     V_3+5 0.564340 0.492480 0.500000 1.390505
O10   O     O_3   0.839360 0.540520 0.500000 -0.355973
C5    C     C_3   0.035990 0.306484 0.761452 0.427567
C6    C     C_3   0.678585 0.296503 0.756117 0.692615
C7    C     C_3   0.723090 0.252609 0.814379 0.274011
H1    H     H_    0.144729 0.252143 0.838738 0.031457
H2    H     H_    0.985304 0.334571 0.802621 -0.173687
H3    H     H_    0.778787 0.283784 0.853580 0.012785
C8    C     C_1   0.921301 0.115151 0.881134 -0.241358
C9    C     C_3   0.865771 0.293206 0.715024 -0.149328
C10   C     C_3   0.085741 0.240076 0.791651 0.340271
C11   C     C_3   0.889514 0.202093 0.795872 -0.124269
C12   C     C_3   0.846683 0.169442 0.731037 -0.349718
C13   C     C_3   0.876762 0.221324 0.681982 0.298617
C14   C     C_1   0.904456 0.153176 0.841646 -0.004332
C15   C     C_1   0.863135 0.340565 0.666985 0.017570
C16   C     C_1   0.854776 0.377769 0.626301 -0.242199
H4    H     H_    0.758654 0.211359 0.649372 0.077922
H5    H     H_    0.930803 0.124634 0.718720 0.171527
H6    H     H_    0.698196 0.151607 0.729683 0.153395
C17   C     C_1   0.922366 0.130375 0.138296 -0.216053
C18   C     C_1   0.910802 0.173728 0.181157 -0.001575
C19   C     C_1   0.895819 0.224894 0.232120 -0.001957
C20   C     C_1   0.882907 0.268027 0.275131 -0.002031
C21   C     C_1   0.867909 0.319246 0.326045 -0.002065
C22   C     C_1   0.856323 0.362676 0.368836 -0.216439
C23   C     C_1   0.355564 0.637908 0.631280 -0.215688
C24   C     C_1   0.367356 0.680230 0.675279 -0.005886
C25   C     C_1   0.382862 0.728934 0.728630 0.000810
C26   C     C_1   0.396263 0.769555 0.773911 -0.004358
C27   C     C_1   0.411796 0.817729 0.827690 -0.001988
C28   C     C_1   0.423571 0.858705 0.872752 -0.217713
C29   C     C_1   0.358082 0.633854 0.368212 -0.205717
C30   C     C_1   0.369404 0.675714 0.325752 0.011553
C31   C     C_1   0.383534 0.725701 0.274803 -0.003792
C32   C     C_1   0.395436 0.767422 0.232234 -0.003784
C33   C     C_1   0.409557 0.817409 0.181284 0.011686
C34   C     C_1   0.420856 0.859268 0.138823 -0.206623
O11   O     O_R   0.273200 0.934350 0.948680 -0.518392
O12   O     O_R   0.602630 0.928390 0.064980 -0.519134
O13   O     O_R   0.772790 0.051930 0.065390 -0.518569
C35   C     C_R   0.432984 0.910713 0.087323 0.703649
O14   O     O_R   0.602920 0.926780 0.949060 -0.520898
O15   O     O_R   0.773080 0.050310 0.948640 -0.530690
C36   C     C_R   0.434191 0.909335 0.926352 0.715706
O16   O     O_R   0.272900 0.935970 0.065430 -0.516386
O17   O     O_3   0.439420 0.033650 0.007040 -0.361208
V3    V     V_3+5 0.714330 0.985650 0.007020 1.400553
O18   O     O_R   0.102790 0.057980 0.949020 -0.539535
C37   C     C_R   0.934235 0.071086 0.928504 0.736078
O19   O     O_R   0.102500 0.059590 0.064940 -0.521601
C38   C     C_R   0.933459 0.077594 0.086963 0.716896
V4    V     V_3+5 0.214320 0.000760 0.006970 1.387818
O20   O     O_3   0.939360 0.952680 0.006990 -0.355947
O21   O     O_3   0.187394 0.344855 0.738204 -0.535425
C39   C     C_3   0.152861 0.413860 0.752183 0.149107
H7    H     H_    0.168207 0.424670 0.802512 0.101234
H8    H     H_    0.005641 0.428615 0.740780 0.112784
C40   C     C_3   0.287656 0.458511 0.717664 -0.331317
H9    H     H_    0.436385 0.444767 0.725303 0.237933
H10   H     H_    0.258835 0.453875 0.667147 0.183839
C41   C     C_3   0.265992 0.530491 0.741204 -0.856887
H11   H     H_    0.132482 0.551642 0.723560 0.237119
H12   H     H_    0.389521 0.559104 0.725315 0.237768
H13   H     H_    0.265525 0.534890 0.792620 0.227603
O22   O     O_3   0.222926 0.203675 0.755262 -0.470116
C42   C     C_3   0.274331 0.142708 0.780459 0.052949
H14   H     H_    0.182805 0.101290 0.763706 0.054817
H15   H     H_    0.275618 0.144801 0.831711 0.102256
H16   H     H_    0.417385 0.128564 0.763946 0.144806
O23   O     O_3   0.526219 0.264792 0.722148 -0.508394
C43   C     C_3   0.473902 0.295516 0.666648 0.048077
H17   H     H_    0.554480 0.277373 0.625429 0.004889
H18   H     H_    0.482553 0.350049 0.669879 0.134530
H19   H     H_    0.326882 0.282040 0.654912 0.214292
O24   O     O_3   0.623597 0.364369 0.770192 -0.588583
C44   C     C_3   0.650755 0.395492 0.830089 0.037069
H20   H     H_    0.655602 0.449636 0.823519 0.124753
H21   H     H_    0.788931 0.387284 0.851670 0.104189
C45   C     C_3   0.484576 0.383704 0.874387 -0.267145
H22   H     H_    0.382633 0.425114 0.872398 0.162450
H23   H     H_    0.408765 0.337215 0.860699 0.240264
C46   C     C_3   0.549810 0.382493 0.941592 -0.863614
H24   H     H_    0.657890 0.343458 0.947108 0.228375
H25   H     H_    0.426357 0.372363 0.971834 0.228210
H26   H     H_    0.612049 0.431206 0.956678 0.234742
O25   O     O_3   0.556722 0.219486 0.833279 -0.524312
C47   C     C_3   0.545829 0.211650 0.898202 -0.231763
H27   H     H_    0.426658 0.241616 0.918035 0.139093
H28   H     H_    0.677150 0.224292 0.924699 0.114541
H29   H     H_    0.513747 0.159029 0.906310 0.152619
O26   O     O_3   0.054063 0.210733 0.651443 -0.532964
C48   C     C_3   0.037558 0.208202 0.586080 0.094733
H30   H     H_    0.176575 0.223093 0.566618 0.124676
H31   H     H_    0.931189 0.243947 0.569537 0.093638
C49   C     C_3   0.992610 0.137491 0.561532 -0.326186
H32   H     H_    0.104850 0.103437 0.576814 0.204575
H33   H     H_    0.854380 0.121112 0.580524 0.180727
C50   C     C_3   0.982741 0.133230 0.490983 -0.824627
H34   H     H_    0.869196 0.166189 0.474790 0.229742
H35   H     H_    0.950127 0.081522 0.474556 0.234494
H36   H     H_    0.120911 0.147935 0.470751 0.231169

loop_
_geom_bond_atom_site_label_1
_geom_bond_atom_site_label_2
_ccdc_geom_bond_type
O15   V3    S    
C5    O21   S    
O25   C47   S    
C28   C36   S    
C10   O22   S    
C48   H31   S    
C40   H9    S    
C17   C18   T    
C41   H13   S    
C4    C16   S    
C1    O6    A    
C42   H16   S    
C42   H14   S    
O11   C36   A    
O14   V3    S    
C27   C28   T    
C12   H5    S    
C11   C12   S    
C6    C9    S    
C8    C14   T    
C18   C19   S    
C41   H12   S    
O5    C3    A    
C20   C21   S    
C47   H28   S    
C43   H18   S    
O14   C36   A    
O26   C48   S    
V2    O10   S    
O13   V3    S    
C47   H29   S    
C6    C7    S    
C23   C24   T    
C7    C11   S    
C49   H32   S    
C47   H27   S    
O8    V2    S    
O16   V4    S    
C13   O26   S    
O19   V4    S    
H1    C10   S    
C48   H30   S    
C39   H7    S    
O1    V2    S    
O7    V1    S    
O17   V3    S    
C50   H36   S    
O9    C4    A    
C40   H10   S    
O21   C39   S    
C46   H25   S    
C46   H24   S    
O18   V4    S    
C12   H6    S    
O15   C37   A    
O12   C35   A    
C6    O23   S    
V4    O20   S    
C6    O24   S    
C13   H4    S    
C7    H3    S    
C41   H11   S    
C44   H20   S    
O4    C2    A    
C43   H17   S    
O12   V3    S    
C17   C38   S    
C10   C11   S    
O23   C43   S    
C5    H2    S    
C35   O16   A    
C2    C29   S    
C3    C22   S    
O2    C1    A    
C25   C26   T    
O5    V1    S    
C19   C20   T    
C44   H21   S    
O17   V4    S    
C29   C30   T    
C39   C40   S    
C32   C33   S    
C45   H23   S    
C49   C50   S    
O3    C4    A    
C8    C37   S    
O19   C38   A    
O6    V2    S    
O9    V2    S    
C48   C49   S    
C9    C15   S    
C24   C25   S    
O2    V1    S    
C21   C22   T    
C46   H26   S    
C26   C27   S    
C50   H34   S    
C30   C31   S    
O1    C2    A    
C9    C13   S    
O22   C42   S    
C43   H19   S    
C42   H15   S    
O8    C3    A    
C45   C46   S    
V3    O20   S    
C5    C10   S    
C5    C9    S    
O7    V2    S    
C33   C34   T    
O3    V1    S    
V1    O10   S    
C44   C45   S    
C7    O25   S    
O24   C44   S    
C15   C16   T    
C40   C41   S    
C45   H22   S    
O11   V4    S    
C49   H33   S    
O18   C37   A    
O4    V1    S    
C11   C14   S    
C31   C32   T    
C1    C23   S    
C12   C13   S    
C39   H8    S    
C34   C35   S    
O13   C38   A    
C50   H35   S    
