data_mof_unit_64400.cif
_audit_creation_date              2012-10-26T18:07:23-0400
_audit_creation_method            fapswitch 2.2
_symmetry_space_group_name_H-M    P1
_symmetry_Int_Tables_number       1
_space_group_crystal_system       triclinic
_cell_length_a                    29.379207
_cell_length_b                    30.908623
_cell_length_c                    20.981025
_cell_angle_alpha                 89.999975
_cell_angle_beta                  133.088441
_cell_angle_gamma                 90.000039
_cell_volume                      13913.8652222

loop_
_atom_site_label
_atom_site_type_symbol
_atom_type_description
_atom_site_fract_x
_atom_site_fract_y
_atom_site_fract_z
_atom_type_partial_charge
C1    C     C_R   0.306240 0.190818 0.119309 0.583406
C2    C     C_R   0.607429 0.866254 0.663788 -0.008435
C3    C     C_R   0.324218 0.804005 0.281247 0.250173
C4    C     C_R   0.824212 0.695993 0.281242 0.250172
C5    C     C_R   0.175787 0.304007 0.718757 0.250172
C6    C     C_R   0.175786 0.695994 0.718756 0.250172
C7    C     C_R   0.824211 0.304008 0.281241 0.250172
C8    C     C_R   0.347460 0.203487 0.364734 -0.069380
C9    C     C_R   0.652546 0.796515 0.635270 -0.069379
C10   C     C_R   0.652544 0.203486 0.635269 -0.069380
C11   C     C_R   0.347465 0.796511 0.364737 -0.069381
C12   C     C_R   0.847455 0.703485 0.364731 -0.069380
C13   C     C_R   0.607428 0.133746 0.663787 -0.008435
C14   C     C_R   0.152544 0.296515 0.635269 -0.069380
C15   C     C_R   0.152542 0.703486 0.635267 -0.069380
C16   C     C_R   0.847453 0.296516 0.364729 -0.069380
C17   C     C_R   0.393789 0.177311 0.434147 -0.156887
C18   C     C_R   0.606217 0.822691 0.565856 -0.156887
C19   C     C_R   0.606215 0.177310 0.565855 -0.156887
C20   C     C_R   0.393793 0.822687 0.434150 -0.156887
C21   C     C_R   0.893784 0.677310 0.434144 -0.156887
C22   C     C_R   0.106215 0.322690 0.565855 -0.156887
C23   C     C_R   0.106213 0.677311 0.565854 -0.156887
C24   C     C_R   0.392574 0.866253 0.336214 -0.008434
C25   C     C_R   0.893782 0.322691 0.434143 -0.156887
C26   C     C_R   0.414779 0.141885 0.419765 -0.117424
C27   C     C_R   0.585225 0.858116 0.580237 -0.117424
C28   C     C_R   0.585223 0.141885 0.580236 -0.117424
C29   C     C_R   0.414782 0.858114 0.419766 -0.117424
C30   C     C_R   0.914776 0.641885 0.419764 -0.117423
C31   C     C_R   0.085222 0.358115 0.580236 -0.117423
C32   C     C_R   0.085222 0.641885 0.580236 -0.117423
C33   C     C_R   0.914775 0.358115 0.419763 -0.117423
C34   C     C_R   0.892571 0.633746 0.336213 -0.008435
C35   C     C_R   0.107428 0.366254 0.663787 -0.008434
C36   C     C_R   0.107428 0.633746 0.663787 -0.008434
C37   C     C_R   0.892571 0.366254 0.336212 -0.008434
C38   C     C_R   0.350991 0.163434 0.267273 0.039628
C39   C     C_R   0.649011 0.836566 0.732728 0.039628
C40   C     C_R   0.649011 0.163434 0.732728 0.039628
C41   C     C_R   0.693760 0.809182 0.880691 0.583407
C42   C     C_R   0.350992 0.836565 0.267274 0.039628
C43   C     C_R   0.850989 0.663434 0.267272 0.039628
C44   C     C_R   0.149010 0.336566 0.732728 0.039628
C45   C     C_R   0.149010 0.663434 0.732728 0.039628
C46   C     C_R   0.850988 0.336566 0.267271 0.039628
C47   C     C_R   0.337072 0.157841 0.187754 0.016803
C48   C     C_R   0.662927 0.842159 0.812246 0.016803
C49   C     C_R   0.662928 0.157841 0.812246 0.016803
C50   C     C_R   0.337072 0.842159 0.187754 0.016802
C51   C     C_R   0.837072 0.657841 0.187754 0.016804
C52   C     C_R   0.693760 0.190818 0.880691 0.583406
C53   C     C_R   0.162927 0.342159 0.812246 0.016803
C54   C     C_R   0.162928 0.657841 0.812246 0.016803
C55   C     C_R   0.837073 0.342159 0.187754 0.016804
C56   C     C_R   0.358798 0.121270 0.175927 -0.157771
C57   C     C_R   0.641199 0.878729 0.824071 -0.157771
C58   C     C_R   0.641200 0.121271 0.824072 -0.157771
C59   C     C_R   0.358796 0.878731 0.175925 -0.157770
C60   C     C_R   0.858800 0.621271 0.175928 -0.157771
C61   C     C_R   0.141200 0.378729 0.824072 -0.157771
C62   C     C_R   0.141201 0.621270 0.824073 -0.157771
C63   C     C_R   0.306240 0.809182 0.119309 0.583404
C64   C     C_R   0.858802 0.378729 0.175929 -0.157772
C65   C     C_R   0.394395 0.090487 0.240838 -0.149472
C66   C     C_R   0.605602 0.909512 0.759160 -0.149471
C67   C     C_R   0.605603 0.090488 0.759161 -0.149471
C68   C     C_R   0.394393 0.909514 0.240837 -0.149472
C69   C     C_R   0.894397 0.590488 0.240840 -0.149471
C70   C     C_R   0.105603 0.409512 0.759160 -0.149472
C71   C     C_R   0.105604 0.590487 0.759161 -0.149472
C72   C     C_R   0.894398 0.409511 0.240841 -0.149471
C73   C     C_R   0.410700 0.096262 0.320044 0.005174
C74   C     C_R   0.806240 0.690818 0.119309 0.583407
C75   C     C_R   0.589299 0.903737 0.679956 0.005173
C76   C     C_R   0.589299 0.096263 0.679956 0.005173
C77   C     C_R   0.410700 0.903738 0.320043 0.005175
C78   C     C_R   0.910701 0.596262 0.320044 0.005173
C79   C     C_R   0.089299 0.403737 0.679956 0.005174
C80   C     C_R   0.089299 0.596262 0.679956 0.005174
C81   C     C_R   0.910701 0.403737 0.320044 0.005173
C82   C     C_R   0.941223 0.439190 0.381763 0.546397
C83   C     C_R   0.058777 0.560809 0.618237 0.546397
C84   C     C_R   0.058777 0.439191 0.618237 0.546397
C85   C     C_R   0.193760 0.309182 0.880691 0.583406
C86   C     C_R   0.941223 0.560809 0.381763 0.546397
C87   C     C_R   0.441222 0.939191 0.381762 0.546397
C88   C     C_R   0.558777 0.060809 0.618237 0.546397
C89   C     C_R   0.558777 0.939190 0.618237 0.546396
C90   C     C_R   0.441222 0.060809 0.381762 0.546396
C91   C     C_R   0.334987 0.249148 0.000842 0.579119
C92   C     C_R   0.665013 0.750852 0.999158 0.579120
C93   C     C_R   0.665012 0.249148 0.999158 0.579121
C94   C     C_R   0.334987 0.750852 0.000842 0.579120
C95   C     C_R   0.834987 0.749148 0.000842 0.579121
C96   C     C_R   0.193760 0.690818 0.880691 0.583406
C97   C     C_R   0.165013 0.250852 0.999158 0.579119
C98   C     C_R   0.165013 0.749148 0.999158 0.579117
C99   C     C_R   0.834987 0.250852 0.000842 0.579119
C100  C     C_1   0.386138 0.248569 0.000530 0.021608
C101  C     C_1   0.613862 0.751431 0.999469 0.021609
C102  C     C_1   0.613862 0.248569 0.999469 0.021610
C103  C     C_1   0.386138 0.751431 0.000530 0.021608
C104  C     C_1   0.886138 0.748569 0.000531 0.021609
C105  C     C_1   0.113862 0.251431 0.999470 0.021607
C106  C     C_1   0.113862 0.748570 0.999470 0.021606
C107  C     C_R   0.806240 0.309182 0.119309 0.583408
C108  C     C_1   0.886138 0.251431 0.000530 0.021608
C109  C     C_1   0.428508 0.248360 0.000303 -0.004682
C110  C     C_1   0.571492 0.751640 0.999697 -0.004682
C111  C     C_1   0.571492 0.248359 0.999697 -0.004682
C112  C     C_1   0.428508 0.751640 0.000303 -0.004682
C113  C     C_1   0.928508 0.748359 0.000303 -0.004682
C114  C     C_1   0.071492 0.251640 0.999697 -0.004683
C115  C     C_1   0.071492 0.748360 0.999697 -0.004683
C116  C     C_1   0.928508 0.251640 0.000303 -0.004682
C117  C     C_1   0.478799 0.248269 0.000084 0.016260
C118  C     C_R   0.392573 0.133746 0.336213 -0.008434
C119  C     C_1   0.521201 0.751731 0.999916 0.016260
C120  C     C_1   0.521201 0.248269 0.999916 0.016260
C121  C     C_1   0.478799 0.751731 0.000084 0.016260
C122  C     C_1   0.978799 0.748269 0.000084 0.016260
C123  C     C_1   0.021201 0.251731 0.999916 0.016260
C124  C     C_1   0.021201 0.748269 0.999917 0.016260
C125  C     C_1   0.978799 0.251731 0.000084 0.016260
C126  C     C_R   0.324216 0.195994 0.281244 0.250172
C127  C     C_R   0.675788 0.804007 0.718759 0.250172
C128  C     C_R   0.675787 0.195993 0.718758 0.250172
Cl1   Cl    Cl    0.253074 0.221264 0.196977 -0.615371
Cl2   Cl    Cl    0.746929 0.778738 0.803028 -0.615375
Cl3   Cl    Cl    0.746928 0.221263 0.803026 -0.615374
Cl4   Cl    Cl    0.253077 0.778734 0.196980 -0.615369
Cl5   Cl    Cl    0.753071 0.721262 0.196973 -0.615374
Cl6   Cl    Cl    0.246928 0.278737 0.803025 -0.615373
Cl7   Cl    Cl    0.246927 0.721264 0.803025 -0.615372
Cl8   Cl    Cl    0.753070 0.278739 0.196971 -0.615375
Cu1   Cu    Cu3+1 0.280720 0.280980 0.061500 1.020125
Cu2   Cu    Cu3+1 0.957580 0.500000 0.500070 0.952351
Cu3   Cu    Cu3+1 0.542420 1.000000 0.499930 0.952350
Cu4   Cu    Cu3+1 0.457580 1.000000 0.500070 0.952353
Cu5   Cu    Cu3+1 0.719280 0.719020 0.938500 1.020123
Cu6   Cu    Cu3+1 0.719280 0.280980 0.938500 1.020124
Cu7   Cu    Cu3+1 0.280720 0.719020 0.061500 1.020126
Cu8   Cu    Cu3+1 0.780720 0.780980 0.061500 1.020123
Cu9   Cu    Cu3+1 0.219280 0.219020 0.938500 1.020123
Cu10  Cu    Cu3+1 0.219280 0.780980 0.938500 1.020123
Cu11  Cu    Cu3+1 0.780720 0.219020 0.061500 1.020122
Cu12  Cu    Cu3+1 0.042420 0.500000 0.499930 0.952351
H1    H     H_    0.348702 0.116640 0.116111 0.135875
H2    H     H_    0.672490 0.771353 0.624761 0.154888
H3    H     H_    0.672487 0.228648 0.624759 0.154888
H4    H     H_    0.327524 0.771348 0.375248 0.154888
H5    H     H_    0.827511 0.728647 0.375240 0.154888
H6    H     H_    0.172487 0.271353 0.624759 0.154888
H7    H     H_    0.172485 0.728648 0.624757 0.154888
H8    H     H_    0.827508 0.271354 0.375238 0.154888
H9    H     H_    0.411190 0.183146 0.498458 0.128498
H10   H     H_    0.588818 0.816856 0.501546 0.128498
H11   H     H_    0.588815 0.183145 0.501544 0.128498
H12   H     H_    0.651293 0.883358 0.883886 0.135873
H13   H     H_    0.411196 0.816851 0.498461 0.128498
H14   H     H_    0.911184 0.683145 0.498455 0.128497
H15   H     H_    0.088814 0.316855 0.501544 0.128498
H16   H     H_    0.088812 0.683146 0.501543 0.128498
H17   H     H_    0.911181 0.316856 0.498453 0.128498
H18   H     H_    0.448744 0.121116 0.474851 0.132384
H19   H     H_    0.551260 0.878885 0.525151 0.132386
H20   H     H_    0.551258 0.121115 0.525150 0.132385
H21   H     H_    0.448747 0.878883 0.474851 0.132383
H22   H     H_    0.948742 0.621116 0.474850 0.132385
H23   H     H_    0.651295 0.116641 0.883888 0.135873
H24   H     H_    0.051257 0.378884 0.525150 0.132384
H25   H     H_    0.051257 0.621116 0.525150 0.132384
H26   H     H_    0.948741 0.378885 0.474849 0.132385
H27   H     H_    0.408757 0.061737 0.228887 0.125949
H28   H     H_    0.591238 0.938261 0.771110 0.125950
H29   H     H_    0.591240 0.061738 0.771111 0.125950
H30   H     H_    0.408754 0.938265 0.228884 0.125948
H31   H     H_    0.908761 0.561738 0.228889 0.125950
H32   H     H_    0.091239 0.438262 0.771111 0.125950
H33   H     H_    0.091241 0.561737 0.771112 0.125950
H34   H     H_    0.348699 0.883361 0.116108 0.135876
H35   H     H_    0.908763 0.438261 0.228891 0.125951
H36   H     H_    0.848706 0.616641 0.116113 0.135873
H37   H     H_    0.151294 0.383358 0.883887 0.135874
H38   H     H_    0.151296 0.616641 0.883888 0.135874
H39   H     H_    0.848708 0.383357 0.116114 0.135873
H40   H     H_    0.327518 0.228649 0.375244 0.154888
O1    O     O_R   0.321010 0.231060 0.142100 -0.474603
O2    O     O_R   0.730960 0.821350 0.961860 -0.513449
O3    O     O_R   0.730960 0.178650 0.961860 -0.513450
O4    O     O_R   0.269040 0.821350 0.038140 -0.513452
O5    O     O_R   0.769040 0.678650 0.038140 -0.513449
O6    O     O_R   0.230960 0.321350 0.961860 -0.513450
O7    O     O_R   0.230960 0.678650 0.961860 -0.513450
O8    O     O_R   0.769040 0.321350 0.038140 -0.513449
O9    O     O_R   0.337910 0.276140 0.051940 -0.498965
O10   O     O_R   0.662090 0.723860 0.948060 -0.498965
O11   O     O_R   0.662090 0.276140 0.948060 -0.498964
O12   O     O_R   0.678990 0.768940 0.857900 -0.474605
O13   O     O_R   0.337910 0.723860 0.051940 -0.498966
O14   O     O_R   0.837910 0.776140 0.051940 -0.498965
O15   O     O_R   0.162090 0.223860 0.948060 -0.498966
O16   O     O_R   0.162090 0.776140 0.948060 -0.498967
O17   O     O_R   0.837910 0.223860 0.051940 -0.498965
O18   O     O_R   0.285940 0.223740 0.947980 -0.450411
O19   O     O_R   0.714060 0.776260 0.052020 -0.450412
O20   O     O_R   0.714060 0.223740 0.052020 -0.450412
O21   O     O_R   0.285940 0.776260 0.947980 -0.450410
O22   O     O_R   0.785940 0.723740 0.947980 -0.450412
O23   O     O_R   0.678990 0.231060 0.857900 -0.474604
O24   O     O_R   0.214060 0.276260 0.052020 -0.450410
O25   O     O_R   0.214060 0.723740 0.052020 -0.450410
O26   O     O_R   0.785940 0.276260 0.947980 -0.450411
O27   O     O_R   0.990910 0.454660 0.410130 -0.517209
O28   O     O_R   0.009090 0.545340 0.589870 -0.517209
O29   O     O_R   0.009090 0.454660 0.589870 -0.517209
O30   O     O_R   0.990910 0.545340 0.410130 -0.517209
O31   O     O_R   0.490910 0.954660 0.410130 -0.517209
O32   O     O_R   0.509090 0.045340 0.589870 -0.517208
O33   O     O_R   0.509090 0.954660 0.589870 -0.517208
O34   O     O_R   0.321010 0.768940 0.142100 -0.474602
O35   O     O_R   0.490910 0.045340 0.410130 -0.517209
O36   O     O_R   0.919170 0.454670 0.410130 -0.498399
O37   O     O_R   0.080830 0.545330 0.589870 -0.498399
O38   O     O_R   0.080830 0.454670 0.589870 -0.498399
O39   O     O_R   0.919170 0.545330 0.410130 -0.498399
O40   O     O_R   0.419170 0.954670 0.410130 -0.498399
O41   O     O_R   0.580830 0.045330 0.589870 -0.498399
O42   O     O_R   0.580830 0.954670 0.589870 -0.498400
O43   O     O_R   0.419170 0.045330 0.410130 -0.498399
O44   O     O_R   0.821010 0.731060 0.142100 -0.474605
O45   O     O_R   0.178990 0.268940 0.857900 -0.474604
O46   O     O_R   0.178990 0.731060 0.857900 -0.474603
O47   O     O_R   0.821010 0.268940 0.142100 -0.474605
O48   O     O_R   0.269040 0.178650 0.038140 -0.513451

loop_
_geom_bond_atom_site_label_1
_geom_bond_atom_site_label_2
_ccdc_geom_bond_type
C61   C70   A    
C60   H36   S    
Cu7   Cu10  S    
Cu10  O46   S    
C3    C42   A    
C50   C63   S    
C97   O24   A    
Cu9   O45   S    
C66   H28   S    
C24   C42   A    
Cu6   O11   S    
C71   H33   S    
Cu4   O43   S    
C51   C74   S    
C57   C66   A    
C84   O38   A    
C91   O18   A    
Cu7   O34   S    
C83   O28   A    
C102  C111  T    
C109  C117  S    
C48   C57   A    
C8    H40   S    
C95   O14   A    
C99   C108  S    
Cu2   O28   S    
C9    C127  A    
C41   O2    A    
C99   O17   A    
C85   O45   A    
C17   C26   A    
C32   C36   A    
Cu1   Cu9   S    
C6    C45   A    
C73   C90   S    
C41   O12   A    
C89   O33   A    
C79   C84   S    
C10   H3    S    
C92   O10   A    
C85   O6    A    
C123  C125  T    
C82   O36   A    
C31   H24   S    
C66   C75   A    
C1    O48   A    
Cu3   O35   S    
C63   O4    A    
C40   C128  A    
C60   C69   A    
C16   C25   A    
C65   C73   A    
C86   O30   A    
C68   H30   S    
Cu11  O17   S    
C24   C29   A    
C30   H22   S    
C13   C40   A    
Cu10  O16   S    
C38   C126  A    
C6    C15   A    
C53   C61   A    
C2    C39   A    
Cu4   O32   S    
C96   O7    A    
C113  C122  S    
Cu2   O29   S    
Cu2   Cu12  S    
C46   C55   A    
C16   H8    S    
C52   O23   A    
C13   C28   A    
C90   O35   A    
C2    C27   A    
C73   C118  A    
Cu5   O12   S    
C87   O31   A    
C89   O42   A    
C4    C12   A    
C17   H9    S    
C76   C88   S    
C15   H7    S    
C72   C81   A    
Cu7   O25   S    
Cu8   O19   S    
C97   C105  S    
C78   C86   S    
C15   C23   A    
C88   O41   A    
C74   O5    A    
C82   O27   A    
C100  C109  T    
C35   C44   A    
C65   H27   S    
C36   C80   A    
C86   O39   A    
C63   O34   A    
C37   C81   A    
C69   C78   A    
Cu11  O20   S    
Cu6   O23   S    
C97   O15   A    
C80   C83   S    
C10   C128  A    
C44   C53   A    
C107  O8    A    
Cu10  O4    S    
Cu8   O44   S    
C81   C82   S    
C20   C29   A    
C119  C121  T    
C12   H5    S    
C5    Cl6   S    
C11   C20   A    
C9    H2    S    
Cu4   O40   S    
C39   C127  A    
C22   C31   A    
C30   C34   A    
Cu1   O24   S    
C3    Cl4   S    
C7    C46   A    
C105  C114  T    
Cu12  O38   S    
Cu6   O26   S    
C74   O44   A    
C67   H29   S    
Cu5   Cu8   S    
Cu11  O3    S    
Cu9   O15   S    
C75   C89   S    
C1    C47   S    
C54   C62   A    
C126  Cl1   S    
C25   H17   S    
C101  C110  T    
C12   C21   A    
C33   C37   A    
C49   C58   A    
C88   O32   A    
C55   C107  S    
C103  C112  T    
C52   O3    A    
C91   O9    A    
C110  C119  S    
C59   H34   S    
C6    Cl7   S    
C18   H10   S    
C59   C68   A    
C11   H4    S    
C13   C76   A    
Cu2   O36   S    
C10   C19   A    
C49   C52   S    
Cu7   O7    S    
C55   C64   A    
C25   C33   A    
C61   H37   S    
C5    C14   A    
C71   C80   A    
C36   C45   A    
Cu3   O41   S    
C94   O13   A    
Cu5   O5    S    
C33   H26   S    
C47   C56   A    
C38   C47   A    
C92   C101  S    
C42   C50   A    
Cu1   O1    S    
C114  C123  S    
C8    C126  A    
C7    C16   A    
Cu7   O13   S    
C5    C44   A    
Cu1   O9    S    
C45   C54   A    
C116  C125  S    
C19   C28   A    
C14   C22   A    
C91   C100  S    
C31   C35   A    
C90   O43   A    
C117  C120  T    
Cu5   O10   S    
C50   C59   A    
C122  C124  T    
C128  Cl3   S    
C115  C124  S    
Cu10  O21   S    
C95   C104  S    
C23   H16   S    
C83   O37   A    
C98   O16   A    
C68   C77   A    
C107  O47   A    
Cu1   O6    S    
C26   H18   S    
Cu6   O8    S    
C21   H14   S    
C93   O11   A    
C70   C79   A    
Cu8   O14   S    
C95   O22   A    
C98   O25   A    
Cu6   Cu11  S    
C57   H12   S    
Cu12  O37   S    
C26   C118  A    
C72   H35   S    
C93   C102  S    
C94   C103  S    
Cu9   O18   S    
Cu3   Cu4   S    
C111  C120  S    
C99   O26   A    
C21   C30   A    
Cu12  O27   S    
C98   C106  S    
C62   H38   S    
C106  C115  T    
C18   C27   A    
C19   H11   S    
C23   C32   A    
C108  C116  T    
C51   C60   A    
C58   H23   S    
C37   C46   A    
C127  Cl2   S    
C14   H6    S    
C7    Cl8   S    
C92   O19   A    
C69   H31   S    
C8    C17   A    
C41   C48   S    
C22   H15   S    
C70   H32   S    
C40   C49   A    
C32   H25   S    
Cu8   O2    S    
C9    C18   A    
C43   C51   A    
C20   H13   S    
Cu5   O22   S    
C35   C79   A    
C4    C43   A    
C62   C71   A    
Cu3   O42   S    
C64   C72   A    
Cu2   O39   S    
Cu4   O33   S    
C64   H39   S    
C3    C11   A    
C84   O29   A    
C28   H20   S    
C104  C113  T    
C38   C118  A    
Cu3   O31   S    
C58   C67   A    
C112  C121  S    
C77   C87   S    
C94   O21   A    
C87   O40   A    
Cu9   O48   S    
C27   H19   S    
C24   C77   A    
C96   O46   A    
C4    Cl5   S    
C53   C85   S    
C67   C76   A    
C29   H21   S    
C56   H1    S    
C34   C43   A    
C93   O20   A    
Cu12  O30   S    
C54   C96   S    
C34   C78   A    
C2    C75   A    
C56   C65   A    
C1    O1    A    
C39   C48   A    
Cu11  O47   S    
