data_mof_unit_57976.cif
_audit_creation_date              2012-12-10T17:16:13-0500
_audit_creation_method            fapswitch 2.2
_symmetry_space_group_name_H-M    P1
_symmetry_Int_Tables_number       1
_space_group_crystal_system       triclinic
_cell_length_a                    19.350899
_cell_length_b                    12.973433
_cell_length_c                    11.755323
_cell_angle_alpha                 99.114736
_cell_angle_beta                  94.345815
_cell_angle_gamma                 91.419509
_cell_volume                      2903.47610632

loop_
_atom_site_label
_atom_site_type_symbol
_atom_type_description
_atom_site_fract_x
_atom_site_fract_y
_atom_site_fract_z
_atom_type_partial_charge
C1    C     C_R   0.500791 0.299603 0.479236 0.888644
C2    C     C_R   0.500741 0.700079 0.520675 0.886269
C3    C     C_R   0.507641 0.812252 0.530466 -0.178679
C4    C     C_R   0.500572 0.186273 0.466961 -0.184907
C5    C     C_R   0.449512 0.021962 0.367140 0.507701
C6    C     C_R   0.578188 0.968075 0.602416 0.533719
C7    C     C_R   0.457349 0.129335 0.377453 -0.316447
C8    C     C_R   0.561823 0.863643 0.603412 -0.336024
C9    C     C_R   0.542547 0.135178 0.542014 0.361843
C10   C     C_R   0.466690 0.864733 0.456906 0.367457
C11   C     C_R   0.535715 0.025247 0.532576 -0.148050
C12   C     C_R   0.483251 0.970080 0.451669 -0.140581
C13   C     C_R   0.423662 0.418272 0.028338 0.350546
C14   C     C_R   0.576094 0.582358 0.971775 0.349484
C15   C     C_R   0.434819 0.421497 0.147686 0.003177
C16   C     C_R   0.565097 0.578716 0.852334 0.004471
C17   C     C_R   0.531246 0.539509 0.156312 0.581217
C18   C     C_R   0.468432 0.461136 0.843775 0.576644
C19   C     C_R   0.527578 0.531186 0.032883 -0.202635
C20   C     C_R   0.472123 0.469500 0.967210 -0.201937
C21   C     C_R   0.367465 0.502826 0.499536 0.907118
C22   C     C_R   0.632640 0.498778 0.500635 0.884221
C23   C     C_R   0.258918 0.486467 0.594601 -0.292937
C24   C     C_R   0.740506 0.527178 0.407602 -0.311811
C25   C     C_R   0.187294 0.492200 0.598935 0.434919
C26   C     C_R   0.812705 0.535906 0.407434 0.397604
C27   C     C_R   0.146237 0.516019 0.503176 -0.203420
C28   C     C_R   0.854605 0.512369 0.502406 -0.177425
C29   C     C_R   0.177877 0.537437 0.404887 0.344166
C30   C     C_R   0.823886 0.487392 0.599974 0.343639
C31   C     C_R   0.250256 0.536226 0.403188 0.331861
C32   C     C_R   0.751458 0.479609 0.599870 0.303916
C33   C     C_R   0.291296 0.508333 0.498027 -0.252481
C34   C     C_R   0.709098 0.500964 0.503252 -0.248714
C35   C     C_R   0.930434 0.512814 0.500353 0.468990
C36   C     C_R   0.070446 0.516761 0.504754 0.443426
Cu1   Cu    Cu3+1 0.505120 0.507730 0.615930 1.049645
Cu2   Cu    Cu3+1 0.494880 0.492270 0.384070 1.045338
H1    H     H_    0.289240 0.465183 0.667879 0.233597
H2    H     H_    0.708953 0.540557 0.331761 0.241053
H3    H     H_    0.593961 0.820981 0.658116 0.173137
H4    H     H_    0.427883 0.168658 0.315998 0.190916
H5    H     H_    0.601113 0.619447 0.807295 0.181733
H6    H     H_    0.398801 0.380771 0.192724 0.183877
N1    N     N_R   0.033597 0.590133 0.458971 -0.193333
N2    N     N_R   0.967326 0.439216 0.545544 -0.176651
N3    N     N_R   0.964778 0.588362 0.457054 -0.235825
N4    N     N_R   0.036087 0.441101 0.547685 -0.188977
N5    N     N_R   0.512830 0.519350 0.790130 -0.246265
N6    N     N_R   0.487170 0.480650 0.209870 -0.242332
O1    O     O_R   0.503640 0.354460 0.582000 -0.479249
O2    O     O_R   0.496360 0.645540 0.418000 -0.499103
O3    O     O_R   0.494980 0.341410 0.386200 -0.617691
O4    O     O_R   0.505020 0.658590 0.613800 -0.614864
O5    O     O_R   0.404470 0.506520 0.597930 -0.567363
O6    O     O_R   0.595530 0.493480 0.402070 -0.555233
O7    O     O_R   0.395820 0.493460 0.402130 -0.542327
O8    O     O_R   0.604180 0.506540 0.597870 -0.544785
Cl1   Cl    Cl    0.343099 0.358591 0.969345 -0.557973
Cl2   Cl    Cl    0.656380 0.642948 0.031133 -0.578324
O9    O     O_3   0.157479 0.473926 0.697564 -0.563727
C37   C     C_3   0.161353 0.566782 0.780023 0.030387
H7    H     H_    0.108432 0.581529 0.807674 0.165992
H8    H     H_    0.178804 0.638319 0.746397 0.135592
C38   C     C_3   0.209015 0.552200 0.885840 -0.303010
H9    H     H_    0.187769 0.487289 0.925760 0.254428
H10   H     H_    0.261388 0.531612 0.859081 0.252273
C39   C     C_3   0.215918 0.651599 0.975372 -0.837169
H11   H     H_    0.239762 0.716398 0.938489 0.249598
H12   H     H_    0.249716 0.637845 0.051634 0.313634
H13   H     H_    0.164293 0.674605 0.003844 0.250030
O10   O     O_3   0.842484 0.556464 0.309521 -0.575063
C40   C     C_3   0.831264 0.661235 0.296055 0.093956
H14   H     H_    0.852132 0.715626 0.374940 0.138366
H15   H     H_    0.775034 0.674131 0.278724 0.187741
C41   C     C_3   0.868849 0.685961 0.193456 -0.309005
H16   H     H_    0.925305 0.674945 0.209774 0.224775
H17   H     H_    0.849161 0.631449 0.114259 0.245444
C42   C     C_3   0.857668 0.798052 0.173872 -0.860946
H18   H     H_    0.801613 0.810092 0.154718 0.286150
H19   H     H_    0.885919 0.813897 0.099387 0.258161
H20   H     H_    0.877585 0.853996 0.251674 0.256325
O11   O     O_3   0.138248 0.565734 0.312462 -0.548480
C43   C     C_3   0.117344 0.474855 0.233012 0.107446
H21   H     H_    0.092992 0.414369 0.276538 0.130215
H22   H     H_    0.162797 0.441569 0.189383 0.182751
C44   C     C_3   0.063914 0.503944 0.141986 -0.333270
H23   H     H_    0.017967 0.535724 0.184922 0.239747
H24   H     H_    0.086632 0.565350 0.098571 0.232573
C45   C     C_3   0.040673 0.409530 0.051228 -0.863082
H25   H     H_    0.085360 0.378927 0.003973 0.267807
H26   H     H_    0.000743 0.432849 0.988320 0.264782
H27   H     H_    0.017801 0.346917 0.092708 0.269141
O12   O     O_3   0.865098 0.464786 0.693822 -0.553757
C46   C     C_3   0.874111 0.553794 0.781456 0.131543
H28   H     H_    0.855510 0.531608 0.861736 0.206775
H29   H     H_    0.844356 0.622881 0.762840 0.112559
C47   C     C_3   0.951256 0.585743 0.803114 -0.369958
H30   H     H_    0.981928 0.515816 0.812256 0.252642
H31   H     H_    0.968421 0.619226 0.728181 0.219607
C48   C     C_3   0.965709 0.666653 0.912106 -0.929258
H32   H     H_    0.934987 0.736958 0.905551 0.268881
H33   H     H_    0.021637 0.690387 0.923143 0.257734
H34   H     H_    0.952404 0.633018 0.989136 0.258062
Cl3   Cl    Cl    0.286484 0.573812 0.281571 -0.537481
Cl4   Cl    Cl    0.717082 0.436758 0.720355 -0.492445
Cl5   Cl    Cl    0.389538 0.800156 0.386008 -0.504853
Cl6   Cl    Cl    0.600454 0.211306 0.649180 -0.477581
O13   O     O_3   0.407979 0.969662 0.273855 -0.549695
C49   C     C_3   0.450809 0.929649 0.186168 0.091400
H35   H     H_    0.492340 0.881604 0.219820 0.168663
H36   H     H_    0.475205 0.994993 0.150384 0.140359
C50   C     C_3   0.406588 0.860059 0.088963 -0.273534
H37   H     H_    0.379912 0.796848 0.124651 0.272741
H38   H     H_    0.366462 0.907313 0.051014 0.229862
C51   C     C_3   0.450775 0.810618 0.994144 -0.882383
H39   H     H_    0.476464 0.872080 0.954467 0.272279
H40   H     H_    0.417389 0.759376 0.925941 0.256560
H41   H     H_    0.490906 0.762533 0.030445 0.274703
O14   O     O_3   0.637081 0.011151 0.668606 -0.551092
C52   C     C_3   0.694701 0.002649 0.600270 0.137277
H42   H     H_    0.730812 0.070352 0.634053 0.215025
H43   H     H_    0.680706 0.007869 0.507430 0.119456
C53   C     C_3   0.732971 0.901914 0.610676 -0.406605
H44   H     H_    0.744130 0.895806 0.703477 0.246491
H45   H     H_    0.700127 0.832986 0.568617 0.212688
C54   C     C_3   0.800994 0.899705 0.552786 -0.886917
H46   H     H_    0.790859 0.902479 0.459033 0.257752
H47   H     H_    0.827498 0.826412 0.563130 0.248092
H48   H     H_    0.835771 0.967042 0.593352 0.273404
Cl7   Cl    Cl    0.413539 0.365195 0.756138 -0.502014
Cl8   Cl    Cl    0.585592 0.636243 0.243927 -0.584530

loop_
_geom_bond_atom_site_label_1
_geom_bond_atom_site_label_2
_ccdc_geom_bond_type
C44   H23   S    
C48   H32   S    
C27   C29   A    
C26   O10   S    
C40   H14   S    
C19   C20   A    
C43   C44   S    
C35   N3    A    
C18   Cl7   S    
C46   C47   S    
C9    Cl6   S    
Cu1   Cu2   S    
C53   H45   S    
C41   H17   S    
C15   H6    S    
C29   O11   S    
Cu1   O1    S    
C7    H4    S    
Cu2   O2    S    
C51   H39   S    
C15   N6    A    
C1    O3    A    
C49   H35   S    
C52   C53   S    
C37   H8    S    
C17   C19   A    
C43   H21   S    
C46   H28   S    
C28   C35   S    
C39   H11   S    
C38   H10   S    
C41   C42   S    
Cu1   O8    S    
C13   C20   A    
C50   C51   S    
C48   H33   S    
C32   Cl4   S    
C17   Cl8   S    
C40   H15   S    
C10   Cl5   S    
O12   C46   S    
C4    C7    A    
C10   C12   A    
C6    O14   S    
C41   H16   S    
N1    N3    A    
C22   C34   S    
N2    N4    A    
C16   N5    A    
C5    C12   A    
C3    C8    A    
C2    O4    A    
C6    C11   A    
C5    C7    A    
C30   O12   S    
C22   O6    A    
C23   C33   A    
C24   C34   A    
C32   C34   A    
C54   H47   S    
C21   O7    A    
C37   H7    S    
Cu2   O7    S    
Cu1   N5    S    
C45   H26   S    
O11   C43   S    
C49   C50   S    
C38   C39   S    
C31   C33   A    
Cu2   O6    S    
C36   N1    A    
C25   O9    S    
C8    H3    S    
C1    O1    A    
C16   H5    S    
C52   H42   S    
C2    O2    A    
C53   C54   S    
C13   Cl1   S    
Cu1   O4    S    
C38   H9    S    
C48   H34   S    
C47   H31   S    
C9    C11   A    
C40   C41   S    
C14   C16   A    
C54   H46   S    
O14   C52   S    
C45   H27   S    
C21   O5    A    
C50   H37   S    
C37   C38   S    
C14   C19   A    
C24   C26   A    
O10   C40   S    
C17   N6    A    
C22   O8    A    
C42   H20   S    
C6    C8    A    
C11   C12   A    
C46   H29   S    
Cu2   N6    S    
C27   C36   S    
C25   C27   A    
C47   C48   S    
C14   Cl2   S    
C26   C28   A    
C51   H41   S    
C1    C4    S    
C13   C15   A    
C2    C3    S    
C54   H48   S    
C29   C31   A    
C3    C10   A    
O13   C49   S    
C30   C32   A    
C45   H25   S    
Cu2   O3    S    
C5    O13   S    
C39   H13   S    
C23   H1    S    
C28   C30   A    
C24   H2    S    
C51   H40   S    
C36   N4    A    
C18   C20   A    
C23   C25   A    
C42   H19   S    
O9    C37   S    
C49   H36   S    
C52   H43   S    
C42   H18   S    
Cu1   O5    S    
C21   C33   S    
C39   H12   S    
C47   H30   S    
C31   Cl3   S    
C44   C45   S    
C44   H24   S    
C43   H22   S    
C4    C9    A    
C35   N2    A    
C18   N5    A    
C53   H44   S    
C50   H38   S    
