data_mof_unit_35813.cif
_audit_creation_date              2012-12-10T16:33:51-0500
_audit_creation_method            fapswitch 2.2
_symmetry_space_group_name_H-M    P1
_symmetry_Int_Tables_number       1
_space_group_crystal_system       triclinic
_cell_length_a                    28.143264
_cell_length_b                    18.424369
_cell_length_c                    17.029881
_cell_angle_alpha                 90.177024
_cell_angle_beta                  61.089212
_cell_angle_gamma                 89.940099
_cell_volume                      7729.7990559

loop_
_atom_site_label
_atom_site_type_symbol
_atom_type_description
_atom_site_fract_x
_atom_site_fract_y
_atom_site_fract_z
_atom_type_partial_charge
C1    C     C_R   0.700838 0.266775 0.676310 0.917107
C2    C     C_R   0.299123 0.733114 0.323606 0.914613
C3    C     C_R   0.296760 0.271286 0.325046 0.936617
C4    C     C_R   0.700902 0.733049 0.676379 0.916864
C5    C     C_R   0.200720 0.766624 0.676374 0.921763
C6    C     C_R   0.799217 0.233258 0.323633 0.917666
C7    C     C_R   0.799093 0.766957 0.323627 0.916989
C8    C     C_R   0.201376 0.232150 0.676173 0.915654
C9    C     C_R   0.034025 0.369950 0.543426 -0.319633
C10   C     C_R   0.966363 0.630115 0.455174 -0.319520
C11   C     C_R   0.966265 0.369563 0.455858 -0.319499
C12   C     C_R   0.034118 0.630468 0.542776 -0.320811
C13   C     C_R   0.533660 0.869952 0.544632 -0.318932
C14   C     C_R   0.466059 0.130154 0.456225 -0.306131
C15   C     C_R   0.465943 0.869609 0.457002 -0.320517
C16   C     C_R   0.533780 0.130490 0.543929 -0.314223
C17   C     C_R   0.722506 0.266805 0.951073 -0.088765
C18   C     C_R   0.276191 0.731070 0.049951 -0.089776
C19   C     C_R   0.287296 0.252980 0.038686 -0.078873
C20   C     C_R   0.721786 0.733891 0.951911 -0.091224
C21   C     C_R   0.220301 0.763621 0.953105 -0.089805
C22   C     C_R   0.778864 0.234930 0.047474 -0.089985
C23   C     C_R   0.778128 0.766229 0.048186 -0.091041
C24   C     C_R   0.228815 0.222339 0.945065 -0.089315
C25   C     C_R   0.737011 0.194949 0.957887 0.638007
C26   C     C_R   0.262110 0.803080 0.042861 0.629933
C27   C     C_R   0.270119 0.181851 0.035594 0.627914
C28   C     C_R   0.735934 0.805821 0.959167 0.629309
C29   C     C_R   0.234343 0.691598 0.960208 0.628617
C30   C     C_R   0.764428 0.306793 0.040582 0.633474
C31   C     C_R   0.763975 0.694300 0.040935 0.629494
C32   C     C_R   0.246480 0.293205 0.947691 0.625656
C33   C     C_R   0.764668 0.179331 0.005770 -0.261622
C34   C     C_R   0.234672 0.819033 0.994762 -0.265159
C35   C     C_R   0.241484 0.166783 0.988845 -0.264633
C36   C     C_R   0.763591 0.821680 0.007014 -0.264139
C37   C     C_R   0.261772 0.675623 0.008371 -0.266847
C38   C     C_R   0.736794 0.322426 0.992649 -0.261276
C39   C     C_R   0.736319 0.678441 0.993088 -0.264463
C40   C     C_R   0.275176 0.308104 0.993906 -0.278082
C41   C     C_R   0.643590 0.326014 0.946020 0.594929
C42   C     C_R   0.355157 0.671924 0.054774 0.574322
C43   C     C_R   0.362079 0.317375 0.050449 0.566033
C44   C     C_R   0.643152 0.674597 0.946510 0.578571
C45   C     C_R   0.141900 0.823495 0.947493 0.577441
C46   C     C_R   0.857644 0.175768 0.052784 0.577134
C47   C     C_R   0.856774 0.825518 0.053568 0.577699
C48   C     C_R   0.147336 0.167595 0.943087 0.580435
C49   C     C_R   0.613465 0.341904 0.901279 -0.256837
C50   C     C_R   0.385905 0.657454 0.098785 -0.252282
C51   C     C_R   0.379845 0.353474 0.105044 -0.235934
C52   C     C_R   0.613352 0.658074 0.901444 -0.254091
C53   C     C_R   0.112537 0.840743 0.901945 -0.255344
C54   C     C_R   0.887227 0.158969 0.098128 -0.254794
C55   C     C_R   0.886604 0.841991 0.098603 -0.255096
C56   C     C_R   0.115498 0.155192 0.900308 -0.253212
C57   C     C_R   0.626040 0.308742 0.820109 -0.152059
C58   C     C_R   0.373869 0.692164 0.178779 -0.139574
C59   C     C_R   0.351894 0.346690 0.197202 -0.151847
C60   C     C_R   0.626113 0.690669 0.820043 -0.151961
C61   C     C_R   0.125466 0.808272 0.820229 -0.152257
C62   C     C_R   0.874350 0.191601 0.179717 -0.153020
C63   C     C_R   0.873858 0.809377 0.179990 -0.151467
C64   C     C_R   0.127641 0.189397 0.820198 -0.152709
C65   C     C_R   0.676932 0.276877 0.772582 -0.116756
C66   C     C_R   0.322582 0.722623 0.227340 -0.117393
C67   C     C_R   0.316762 0.288840 0.231938 -0.122894
C68   C     C_R   0.676923 0.722691 0.772720 -0.117471
C69   C     C_R   0.176341 0.776169 0.772897 -0.118608
C70   C     C_R   0.823413 0.223474 0.227170 -0.118644
C71   C     C_R   0.823054 0.777341 0.227304 -0.117460
C72   C     C_R   0.178987 0.219348 0.771583 -0.115095
C73   C     C_R   0.708175 0.261467 0.815741 -0.221653
C74   C     C_R   0.290635 0.736524 0.185073 -0.224146
C75   C     C_R   0.296625 0.253498 0.179745 -0.238166
C76   C     C_R   0.707907 0.738329 0.816231 -0.220610
C77   C     C_R   0.207029 0.759800 0.816736 -0.221452
C78   C     C_R   0.792496 0.239378 0.183565 -0.216817
C79   C     C_R   0.792052 0.761731 0.183816 -0.220019
C80   C     C_R   0.212057 0.230573 0.812419 -0.217607
C81   C     C_R   0.690560 0.283666 0.904208 0.038594
C82   C     C_R   0.308088 0.714050 0.096752 0.038502
C83   C     C_R   0.316522 0.272413 0.089511 0.051127
C84   C     C_R   0.690064 0.716711 0.904807 0.040482
C85   C     C_R   0.188813 0.781045 0.905731 0.041274
C86   C     C_R   0.810579 0.217925 0.094658 0.040235
C87   C     C_R   0.809865 0.783399 0.095269 0.040963
C88   C     C_R   0.195430 0.207270 0.899994 0.036108
C89   C     C_R   0.691105 0.129447 0.535396 0.918572
C90   C     C_R   0.308883 0.870568 0.464662 0.921873
C91   C     C_R   0.308916 0.129371 0.464514 0.920369
C92   C     C_R   0.691084 0.870642 0.535477 0.918761
C93   C     C_R   0.191107 0.629460 0.535393 0.907530
C94   C     C_R   0.808897 0.370553 0.464589 0.917790
C95   C     C_R   0.808918 0.629366 0.464496 0.918603
C96   C     C_R   0.191149 0.370684 0.535237 0.918625
C97   C     C_R   0.073010 0.101183 0.935228 0.929136
C98   C     C_R   0.927610 0.898126 0.064354 0.929624
C99   C     C_R   0.927919 0.102241 0.064157 0.931562
C100  C     C_R   0.072012 0.897689 0.935881 0.929768
C101  C     C_R   0.572364 0.601906 0.935672 0.928304
C102  C     C_R   0.424684 0.402412 0.067086 0.951099
C103  C     C_R   0.427419 0.601775 0.064568 0.926878
C104  C     C_R   0.572398 0.398103 0.935547 0.940062
C105  C     C_R   0.540168 0.000140 0.527132 0.018579
C106  C     C_R   0.459507 0.999964 0.473814 0.019253
C107  C     C_R   0.040587 0.500127 0.525841 0.017402
C108  C     C_R   0.959875 0.499921 0.472651 0.017629
C109  C     C_R   0.519036 0.066552 0.515998 0.021084
C110  C     C_R   0.480602 0.933553 0.485046 0.020665
C111  C     C_R   0.480646 0.066450 0.484688 0.013448
C112  C     C_R   0.518983 0.933664 0.516354 0.019576
C113  C     C_R   0.019471 0.566533 0.514677 0.018912
C114  C     C_R   0.981010 0.433517 0.483771 0.019032
C115  C     C_R   0.981065 0.566409 0.483417 0.019325
C116  C     C_R   0.019417 0.433641 0.515021 0.019161
C117  C     C_R   0.605051 0.934177 0.558276 -0.027863
C118  C     C_R   0.394874 0.065891 0.442022 -0.034399
C119  C     C_R   0.394773 0.933807 0.442506 -0.025249
C120  C     C_R   0.605102 0.066261 0.557988 -0.026902
C121  C     C_R   0.105285 0.434200 0.557429 -0.028893
C122  C     C_R   0.894968 0.565854 0.441573 -0.027895
C123  C     C_R   0.894921 0.433767 0.441868 -0.027985
C124  C     C_R   0.105304 0.566252 0.557235 -0.027812
C125  C     C_R   0.656181 0.934931 0.557343 -0.092445
C126  C     C_R   0.343811 0.065100 0.442719 -0.089298
C127  C     C_R   0.343754 0.934651 0.443002 -0.093613
C128  C     C_R   0.656210 0.065383 0.557188 -0.092604
C129  C     C_R   0.156313 0.434967 0.556843 -0.090617
C130  C     C_R   0.843822 0.565085 0.442578 -0.092876
C131  C     C_R   0.843793 0.434628 0.442748 -0.092838
C132  C     C_R   0.156297 0.565377 0.556837 -0.095142
C133  C     C_R   0.679487 0.000140 0.560219 -0.295648
C134  C     C_R   0.320521 0.999880 0.439809 -0.292966
C135  C     C_R   0.179560 0.500151 0.559923 -0.299782
C136  C     C_R   0.820504 0.499869 0.439743 -0.296178
C137  C     C_R   0.583400 0.000195 0.547995 -0.086385
C138  C     C_R   0.416409 0.999888 0.452629 -0.085018
C139  C     C_R   0.083713 0.500197 0.546957 -0.088383
C140  C     C_R   0.916630 0.499845 0.451830 -0.086439
C141  C     C_R   0.074269 0.370870 0.568639 0.633930
C142  C     C_R   0.925971 0.629211 0.430285 0.632827
C143  C     C_R   0.925890 0.370275 0.430929 0.633143
C144  C     C_R   0.074323 0.629725 0.568091 0.634047
C145  C     C_R   0.574041 0.870833 0.569546 0.633486
C146  C     C_R   0.425922 0.129242 0.430710 0.646792
C147  C     C_R   0.425712 0.870327 0.431765 0.634523
C148  C     C_R   0.574144 0.129760 0.568882 0.631771
H1    H     H_    0.718720 0.000088 0.557724 0.196972
H2    H     H_    0.281336 0.999920 0.442129 0.196475
H3    H     H_    0.218728 0.500098 0.557669 0.199680
H4    H     H_    0.781255 0.499916 0.442300 0.197261
H5    H     H_    0.012521 0.319573 0.551331 0.169390
H6    H     H_    0.987844 0.680512 0.447273 0.169096
H7    H     H_    0.987720 0.319068 0.448201 0.169416
H8    H     H_    0.012653 0.680949 0.550409 0.169564
H9    H     H_    0.512168 0.819563 0.552543 0.169422
H10   H     H_    0.487556 0.180515 0.448416 0.178866
H11   H     H_    0.487388 0.819118 0.449416 0.169675
H12   H     H_    0.512335 0.180991 0.551574 0.169321
H13   H     H_    0.726790 0.378367 0.987504 0.222701
H14   H     H_    0.271539 0.619597 0.013645 0.222251
H15   H     H_    0.286976 0.363646 0.996436 0.217338
H16   H     H_    0.726526 0.622463 0.987629 0.223751
H17   H     H_    0.224944 0.875072 0.989441 0.223468
H18   H     H_    0.774708 0.123397 0.010875 0.223557
H19   H     H_    0.773385 0.877659 0.012472 0.224003
H20   H     H_    0.229218 0.111436 0.986767 0.226946
H21   H     H_    0.747066 0.234193 0.779978 0.207618
H22   H     H_    0.251542 0.763242 0.221187 0.207904
H23   H     H_    0.263643 0.214986 0.210420 0.220263
H24   H     H_    0.746713 0.765521 0.780734 0.207430
H25   H     H_    0.245902 0.732453 0.781186 0.207176
H26   H     H_    0.753548 0.266520 0.219246 0.210005
H27   H     H_    0.753251 0.734529 0.219316 0.207799
H28   H     H_    0.251497 0.255946 0.775578 0.210192
O1    O     O_R   0.746490 0.236330 0.638080 -0.636793
O2    O     O_R   0.253510 0.763670 0.361920 -0.635661
O3    O     O_R   0.253510 0.236330 0.361920 -0.642937
O4    O     O_R   0.746490 0.763670 0.638080 -0.636137
O5    O     O_R   0.246490 0.736330 0.638080 -0.635946
O6    O     O_R   0.753510 0.263670 0.361920 -0.634842
O7    O     O_R   0.753510 0.736330 0.361920 -0.635795
O8    O     O_R   0.246490 0.263670 0.638080 -0.636580
O9    O     O_R   0.674170 0.186160 0.516270 -0.565531
O10   O     O_R   0.325830 0.813840 0.483730 -0.566802
O11   O     O_R   0.325830 0.186160 0.483730 -0.571863
O12   O     O_R   0.674170 0.813840 0.516270 -0.567217
O13   O     O_R   0.174170 0.686160 0.516270 -0.565367
O14   O     O_R   0.825830 0.313840 0.483730 -0.567425
O15   O     O_R   0.825830 0.686160 0.483730 -0.567432
O16   O     O_R   0.174170 0.313840 0.516270 -0.571480
O17   O     O_R   0.739960 0.127620 0.525000 -0.645864
O18   O     O_R   0.260040 0.872380 0.475000 -0.644329
O19   O     O_R   0.260040 0.127620 0.475000 -0.644974
O20   O     O_R   0.739960 0.872380 0.525000 -0.645494
O21   O     O_R   0.239960 0.627620 0.525000 -0.662848
O22   O     O_R   0.760040 0.372380 0.475000 -0.645417
O23   O     O_R   0.760040 0.627620 0.475000 -0.645290
O24   O     O_R   0.239960 0.372380 0.525000 -0.635268
O25   O     O_R   0.680700 0.294870 0.629350 -0.617552
O26   O     O_R   0.319300 0.705130 0.370650 -0.624569
O27   O     O_R   0.319300 0.294870 0.370650 -0.603767
O28   O     O_R   0.680700 0.705130 0.629350 -0.616789
O29   O     O_R   0.180700 0.794870 0.629350 -0.616307
O30   O     O_R   0.819300 0.205130 0.370650 -0.617489
O31   O     O_R   0.819300 0.794870 0.370650 -0.616784
O32   O     O_R   0.180700 0.205130 0.629350 -0.617803
O33   O     O_R   0.062020 0.072840 0.007170 -0.542879
O34   O     O_R   0.937980 0.927160 0.992830 -0.542296
O35   O     O_R   0.937980 0.072840 0.992830 -0.541737
O36   O     O_R   0.062020 0.927160 0.007170 -0.541247
O37   O     O_R   0.562020 0.572840 0.007170 -0.543204
O38   O     O_R   0.437980 0.427160 0.992830 -0.553728
O39   O     O_R   0.437980 0.572840 0.992830 -0.549552
O40   O     O_R   0.562020 0.427160 0.007170 -0.539980
O41   O     O_R   0.947860 0.073950 0.109290 -0.647836
O42   O     O_R   0.052140 0.926050 0.890710 -0.647849
O43   O     O_R   0.052140 0.073950 0.890710 -0.647063
O44   O     O_R   0.947860 0.926050 0.109290 -0.647232
O45   O     O_R   0.447860 0.573950 0.109290 -0.643357
O46   O     O_R   0.552140 0.426050 0.890710 -0.644921
O47   O     O_R   0.552140 0.573950 0.890710 -0.648360
O48   O     O_R   0.447860 0.426050 0.109290 -0.646392
Zn1   Zn    Zn3+2 0.792340 0.208750 0.507670 1.009127
Zn2   Zn    Zn3+2 0.207660 0.791250 0.492330 1.008055
Zn3   Zn    Zn3+2 0.207660 0.208750 0.492330 1.008047
Zn4   Zn    Zn3+2 0.792340 0.791250 0.507670 1.009666
Zn5   Zn    Zn3+2 0.292340 0.708750 0.507670 0.987489
Zn6   Zn    Zn3+2 0.707660 0.291250 0.492330 1.014318
Zn7   Zn    Zn3+2 0.707660 0.708750 0.492330 1.011176
Zn8   Zn    Zn3+2 0.292340 0.291250 0.507670 1.027242
Zn9   Zn    Zn3+2 0.505960 0.500000 0.080520 1.035145
Zn10  Zn    Zn3+2 0.494040 0.500000 0.919480 1.013501
Zn11  Zn    Zn3+2 0.005960 0.000000 0.080520 1.017449
Zn12  Zn    Zn3+2 0.994040 1.000000 0.919480 1.016600
F1    F     F_    0.078201 0.311931 0.612668 -0.667919
F2    F     F_    0.921787 0.688255 0.386654 -0.668261
F3    F     F_    0.921753 0.310843 0.387499 -0.667590
F4    F     F_    0.078211 0.689063 0.611915 -0.667342
F5    F     F_    0.578196 0.811788 0.613206 -0.667532
F6    F     F_    0.422223 0.188110 0.386160 -0.651488
F7    F     F_    0.421725 0.810916 0.388182 -0.668789
F8    F     F_    0.578289 0.189200 0.612273 -0.670844
F9    F     F_    0.723090 0.139540 0.920382 -0.635260
F10   F     F_    0.276277 0.858312 0.080258 -0.637568
F11   F     F_    0.281749 0.126782 0.076337 -0.639953
F12   F     F_    0.721710 0.861041 0.922063 -0.638502
F13   F     F_    0.220283 0.636441 0.922569 -0.641883
F14   F     F_    0.778328 0.362163 0.078166 -0.638289
F15   F     F_    0.778199 0.639077 0.078036 -0.638826
F16   F     F_    0.234161 0.348815 0.908494 -0.643302
F17   F     F_    0.626975 0.350804 0.030683 -0.646281
F18   F     F_    0.371473 0.646490 0.970464 -0.663906
F19   F     F_    0.387379 0.328066 0.960251 -0.672467
F20   F     F_    0.626270 0.650672 0.031392 -0.662897
F21   F     F_    0.124651 0.847170 0.032800 -0.664228
F22   F     F_    0.874821 0.151925 0.967565 -0.664804
F23   F     F_    0.873629 0.849489 0.968711 -0.663940
F24   F     F_    0.131208 0.142228 0.027127 -0.661829
C149  C     C_R   0.583612 0.299992 0.792029 0.168102
C150  C     C_R   0.577705 0.350360 0.735263 -0.012282
C151  C     C_R   0.534589 0.344228 0.716732 -0.129840
C152  C     C_R   0.496887 0.288226 0.754949 0.035804
C153  C     C_R   0.502503 0.237898 0.811165 -0.025572
C154  C     C_R   0.545653 0.243707 0.829672 -0.163326
H29   H     H_    0.605713 0.395271 0.707360 0.117196
H30   H     H_    0.530095 0.383343 0.673474 0.109608
H31   H     H_    0.463391 0.283727 0.740877 0.130870
H32   H     H_    0.473227 0.194616 0.840828 0.145370
H33   H     H_    0.549029 0.205057 0.874534 0.148316
C155  C     C_R   0.418194 0.709381 0.199948 0.160287
C156  C     C_R   0.451947 0.769035 0.157781 -0.175783
C157  C     C_R   0.497026 0.782825 0.169382 -0.096721
C158  C     C_R   0.508885 0.737046 0.222910 0.025805
C159  C     C_R   0.475363 0.677828 0.265583 -0.084912
C160  C     C_R   0.430192 0.664087 0.254264 -0.023225
H34   H     H_    0.443847 0.804069 0.114618 0.148574
H35   H     H_    0.523031 0.828632 0.136236 0.147647
H36   H     H_    0.543933 0.747553 0.231496 0.134488
H37   H     H_    0.484607 0.642231 0.306860 0.112825
H38   H     H_    0.405637 0.617036 0.285280 0.132653
C161  C     C_R   0.349663 0.407825 0.257097 0.161617
C162  C     C_R   0.308464 0.460212 0.283070 -0.201617
C163  C     C_R   0.302355 0.514024 0.345241 -0.113147
C164  C     C_R   0.336948 0.515453 0.382625 -0.119004
C165  C     C_R   0.378858 0.464620 0.355686 -0.204958
C166  C     C_R   0.385425 0.411062 0.292956 0.020629
H39   H     H_    0.280566 0.458527 0.256232 0.135545
H40   H     H_    0.270459 0.554123 0.364983 0.139463
H41   H     H_    0.332016 0.556713 0.431316 0.159097
H42   H     H_    0.405969 0.466361 0.383992 0.127602
H43   H     H_    0.417188 0.370769 0.274203 0.151136
C167  C     C_R   0.583691 0.699149 0.791976 0.174765
C168  C     C_R   0.545084 0.754926 0.830733 -0.167818
C169  C     C_R   0.501896 0.760383 0.812285 -0.057343
C170  C     C_R   0.496882 0.710209 0.755034 0.016500
C171  C     C_R   0.535147 0.654602 0.715909 -0.127560
C172  C     C_R   0.578270 0.648762 0.734465 -0.011172
H44   H     H_    0.547983 0.793421 0.876432 0.139737
H45   H     H_    0.472140 0.803288 0.842765 0.141462
H46   H     H_    0.463376 0.714458 0.740955 0.130242
H47   H     H_    0.531069 0.615537 0.671962 0.108873
H48   H     H_    0.606691 0.604098 0.705933 0.116204
C173  C     C_R   0.083175 0.800055 0.791799 0.173737
C174  C     C_R   0.077738 0.850537 0.734688 -0.010646
C175  C     C_R   0.034632 0.845045 0.716049 -0.127125
C176  C     C_R   0.996405 0.789677 0.754665 0.020360
C177  C     C_R   0.001458 0.739369 0.811447 -0.054337
C178  C     C_R   0.044626 0.744488 0.829985 -0.169560
H49   H     H_    0.106089 0.895072 0.706622 0.116812
H50   H     H_    0.030529 0.884208 0.672450 0.108105
H51   H     H_    0.962908 0.785702 0.740532 0.130402
H52   H     H_    0.971740 0.696635 0.841515 0.141398
H53   H     H_    0.047539 0.705906 0.875351 0.139308
C179  C     C_R   0.916699 0.200071 0.207981 0.173927
C180  C     C_R   0.955142 0.255742 0.169665 -0.168401
C181  C     C_R   0.998378 0.261065 0.188009 -0.061742
C182  C     C_R   0.003613 0.210849 0.244705 0.015255
C183  C     C_R   0.965487 0.155386 0.283462 -0.124540
C184  C     C_R   0.922304 0.149704 0.265041 -0.010025
H54   H     H_    0.952096 0.294241 0.124343 0.139042
H55   H     H_    0.028005 0.303891 0.157860 0.139969
H56   H     H_    0.037163 0.214983 0.258687 0.130116
H57   H     H_    0.969724 0.116301 0.327004 0.107796
H58   H     H_    0.894033 0.105096 0.293212 0.116447
C185  C     C_R   0.916257 0.800988 0.208134 0.174362
C186  C     C_R   0.921631 0.851450 0.265622 -0.011230
C187  C     C_R   0.964732 0.845701 0.284247 -0.129221
C188  C     C_R   0.003021 0.790110 0.245218 0.021525
C189  C     C_R   0.998049 0.739855 0.188006 -0.051761
C190  C     C_R   0.954879 0.745216 0.169497 -0.170077
H59   H     H_    0.893191 0.896102 0.294081 0.116343
H60   H     H_    0.968775 0.884827 0.328169 0.108206
H61   H     H_    0.036513 0.785936 0.259341 0.130297
H62   H     H_    0.027823 0.696960 0.157604 0.140982
H63   H     H_    0.952006 0.706647 0.123846 0.139188
C191  C     C_R   0.084413 0.201162 0.794575 0.169692
C192  C     C_R   0.047193 0.258181 0.835211 -0.175661
C193  C     C_R   0.003269 0.266635 0.819102 -0.068231
C194  C     C_R   0.996093 0.218187 0.762426 0.027087
C195  C     C_R   0.033007 0.161419 0.721357 -0.115649
C196  C     C_R   0.076915 0.152667 0.737442 -0.011895
H64   H     H_    0.051735 0.295311 0.880570 0.141229
H65   H     H_    0.974577 0.310468 0.851044 0.142240
H66   H     H_    0.961987 0.224704 0.750237 0.131850
H67   H     H_    0.027291 0.123741 0.677773 0.108268
H68   H     H_    0.104287 0.107153 0.707374 0.116468

loop_
_geom_bond_atom_site_label_1
_geom_bond_atom_site_label_2
_ccdc_geom_bond_type
O20   Zn4   S    
C152  H31   S    
C98   O44   A    
O14   Zn1   S    
C33   H18   S    
C2    O26   A    
C10   H6    S    
C79   C87   A    
C102  O48   A    
C61   C69   A    
C181  H55   S    
C14   H10   S    
C162  C163  A    
C13   C112  A    
C195  H67   S    
O32   Zn3   S    
C42   F18   S    
C173  C178  A    
C58   C155  S    
C30   C38   A    
C142  F2    S    
C157  C158  A    
C104  O46   A    
O23   Zn7   S    
C107  C113  A    
C48   F24   S    
C158  C159  A    
C101  O37   A    
C155  C156  A    
C170  H46   S    
C187  C188  A    
C50   C103  S    
O40   Zn9   S    
C169  H45   S    
O37   Zn9   S    
C73   C81   A    
C136  H4    S    
C16   C109  A    
C52   C101  S    
C188  C189  A    
C143  F3    S    
C193  C194  A    
C104  O40   A    
C57   C65   A    
C195  C196  A    
C44   F20   S    
C20   C28   A    
C27   C35   A    
C21   C29   A    
C179  C180  A    
C23   C31   A    
C153  H32   S    
C24   C32   A    
C186  H59   S    
C27   F11   S    
C91   O19   A    
C147  F7    S    
C177  H52   S    
C64   C191  S    
C174  C175  A    
C31   F15   S    
O29   Zn2   S    
C80   H28   S    
C164  H41   S    
C169  C170  A    
C105  C112  A    
C63   C71   A    
C120  C148  A    
C171  C172  A    
O46   Zn10  S    
C161  C166  A    
C9    C116  A    
C92   O20   A    
C61   C173  S    
O19   Zn3   S    
C156  H34   S    
C7    O7    A    
C17   C25   A    
C158  H36   S    
O17   Zn1   S    
C149  C154  A    
C80   C88   A    
C103  O45   A    
C163  H40   S    
C55   C98   S    
C18   C82   S    
C176  H51   S    
C12   C144  A    
O31   Zn4   S    
C126  C134  A    
C23   C36   A    
O24   Zn8   S    
C39   H16   S    
C118  C138  A    
C11   C143  A    
C26   F10   S    
C47   C87   A    
C96   C129  S    
C113  C115  A    
C46   F22   S    
C160  H38   S    
C16   H12   S    
C43   C83   A    
C124  C139  A    
C69   C77   A    
C127  C134  A    
C13   C145  A    
C43   C51   A    
C92   C125  S    
O41   Zn11  S    
C49   C104  S    
C71   C79   A    
C99   O35   A    
C51   C102  S    
O9    Zn6   S    
C62   C70   A    
C97   O33   A    
C6    O6    A    
C108  C115  A    
C93   C132  S    
C154  H33   S    
C109  C111  A    
C10   C142  A    
C149  C150  A    
C191  C196  A    
C66   C74   A    
C41   F17   S    
C49   C57   A    
C124  C132  A    
C175  H50   S    
C76   H24   S    
C52   C60   A    
C59   C67   A    
C129  C135  A    
C53   C61   A    
C180  H54   S    
O6    Zn6   S    
C152  C153  A    
C55   C63   A    
C95   C130  S    
C1    C65   S    
C56   C64   A    
C34   H17   S    
C172  H48   S    
C11   H7    S    
C44   C52   A    
C192  H64   S    
C100  O42   A    
C56   C97   S    
C12   H8    S    
C19   C83   S    
C13   H9    S    
C106  C111  A    
C38   H13   S    
O27   Zn8   S    
C157  H35   S    
C7    O31   A    
C131  C136  A    
C150  H29   S    
C4    C68   S    
C29   F13   S    
C93   O21   A    
C187  H60   S    
C146  F6    S    
C35   H20   S    
C60   C68   A    
C42   C50   A    
O26   Zn5   S    
C188  H61   S    
C20   C84   S    
C54   C99   S    
C67   C75   A    
C193  H65   S    
O7    Zn7   S    
C96   O24   A    
C59   C161  S    
C22   C30   A    
O45   Zn9   S    
C119  C138  A    
C89   O9    A    
C189  H62   S    
C186  C187  A    
C2    C66   S    
C190  H63   S    
C114  C116  A    
C92   O12   A    
C150  C151  A    
O21   Zn5   S    
C68   C76   A    
C174  H49   S    
C121  C139  A    
C122  C140  A    
C167  C172  A    
C72   C80   A    
C3    C67   S    
C77   C85   A    
C171  H47   S    
C107  C139  A    
C110  C112  A    
C107  C116  A    
C6    O30   A    
C19   C40   A    
O1    Zn1   S    
C159  C160  A    
C161  C162  A    
C148  F8    S    
C165  H42   S    
C37   H14   S    
C2    O2    A    
C117  C125  A    
C25   C33   A    
C119  C127  A    
O15   Zn4   S    
C3    O27   A    
O44   Zn11  S    
O13   Zn2   S    
C18   C26   A    
C1    O25   A    
C78   C86   A    
C76   C84   A    
C151  C152  A    
C57   C149  S    
C4    O4    A    
C167  C168  A    
C119  C147  A    
C184  H58   S    
C117  C145  A    
C28   F12   S    
C108  C114  A    
C5    C69   S    
C102  O38   A    
O16   Zn3   S    
C47   F23   S    
C90   C127  S    
C48   C88   A    
O34   Zn12  S    
C15   C110  A    
O38   Zn10  S    
O39   Zn10  S    
C74   C82   A    
C5    O5    A    
C5    O29   A    
C178  H53   S    
C53   C100  S    
C151  H30   S    
C21   C85   S    
C8    C72   S    
C175  C176  A    
C50   C58   A    
C121  C141  A    
C168  C169  A    
C20   C39   A    
C21   C34   A    
C54   C62   A    
C194  C195  A    
O4    Zn4   S    
C36   H19   S    
C189  C190  A    
C15   H11   S    
C163  C164  A    
O47   Zn10  S    
C192  C193  A    
C90   O18   A    
C41   C81   A    
C46   C54   A    
O30   Zn1   S    
C166  H43   S    
C24   C88   S    
O11   Zn8   S    
C162  H39   S    
C93   O13   A    
C73   H21   S    
C103  O39   A    
C6    C70   S    
C32   F16   S    
C182  H56   S    
C77   H25   S    
C123  C131  A    
C121  C129  A    
C44   C84   A    
C194  H66   S    
C120  C128  A    
C45   F21   S    
C168  H44   S    
C41   C49   A    
C90   O10   A    
C94   C131  S    
O18   Zn2   S    
O28   Zn7   S    
O42   Zn12  S    
C185  C186  A    
C15   C147  A    
C79   H27   S    
C75   C83   A    
C164  C165  A    
C105  C109  A    
C135  H3    S    
C17   C81   S    
C22   C86   S    
C106  C138  A    
C182  C183  A    
C28   C36   A    
C173  C174  A    
C29   C37   A    
C120  C137  A    
C91   O11   A    
C89   C128  S    
C25   F9    S    
C155  C160  A    
C91   C126  S    
C70   C78   A    
C170  C171  A    
C42   C82   A    
O48   Zn9   S    
C94   O14   A    
O10   Zn5   S    
C177  C178  A    
C98   O34   A    
C144  F4    S    
C18   C37   A    
C63   C185  S    
C7    C71   S    
C185  C190  A    
C4    O28   A    
C159  H37   S    
C134  H2    S    
C65   C73   A    
O35   Zn12  S    
O33   Zn11  S    
C8    O32   A    
C11   C114  A    
C3    O3    A    
C1    O1    A    
C26   C34   A    
C60   C167  S    
C165  C166  A    
O5    Zn5   S    
C97   O43   A    
C19   C27   A    
C153  C154  A    
C95   O15   A    
C17   C38   A    
C8    O8    A    
C64   C72   A    
C89   O17   A    
C23   C87   S    
C196  H68   S    
O3    Zn3   S    
C180  C181  A    
C58   C66   A    
C14   C111  A    
C24   C35   A    
O2    Zn2   S    
C99   O41   A    
C118  C146  A    
C133  H1    S    
O8    Zn8   S    
C40   H15   S    
C108  C140  A    
C9    C141  A    
C183  H57   S    
C117  C137  A    
C123  C140  A    
C100  O36   A    
C30   F14   S    
C94   O22   A    
C45   C85   A    
C181  C182  A    
C125  C133  A    
C156  C157  A    
C145  F5    S    
C62   C179  S    
O25   Zn6   S    
C75   H23   S    
C9    H5    S    
C51   C59   A    
C122  C142  A    
O12   Zn7   S    
O36   Zn11  S    
C176  C177  A    
C47   C55   A    
C12   C113  A    
C106  C110  A    
C43   F19   S    
C48   C56   A    
C22   C33   A    
C141  F1    S    
O43   Zn12  S    
C130  C136  A    
C179  C184  A    
O22   Zn6   S    
C14   C146  A    
C16   C148  A    
C183  C184  A    
C105  C137  A    
C128  C133  A    
C101  O47   A    
C132  C135  A    
C31   C39   A    
C32   C40   A    
C96   O16   A    
C74   H22   S    
C45   C53   A    
C95   O23   A    
C191  C192  A    
C123  C143  A    
C78   H26   S    
C124  C144  A    
C118  C126  A    
C122  C130  A    
C10   C115  A    
C46   C86   A    
