data_mof_unit_57350.cif
_audit_creation_date              2012-12-11T15:26:42-0500
_audit_creation_method            fapswitch 2.2
_symmetry_space_group_name_H-M    P1
_symmetry_Int_Tables_number       1
_space_group_crystal_system       triclinic
_cell_length_a                    7.220531
_cell_length_b                    12.125952
_cell_length_c                    29.096755
_cell_angle_alpha                 90.000611
_cell_angle_beta                  89.971499
_cell_angle_gamma                 90.073197
_cell_volume                      2547.58762566

loop_
_atom_site_label
_atom_site_type_symbol
_atom_type_description
_atom_site_fract_x
_atom_site_fract_y
_atom_site_fract_z
_atom_type_partial_charge
O1    O     O_R   0.647170 0.849180 0.201220 -0.535820
O2    O     O_R   0.352830 0.150820 0.798780 -0.535820
O3    O     O_R   0.352830 0.150820 0.701220 -0.535687
O4    O     O_R   0.647170 0.849180 0.298780 -0.535687
O5    O     O_R   0.147170 0.650820 0.298780 -0.535956
O6    O     O_R   0.852830 0.349180 0.701220 -0.535958
O7    O     O_R   0.852830 0.349180 0.798780 -0.536109
O8    O     O_R   0.147170 0.650820 0.201220 -0.536102
O9    O     O_R   0.317430 0.862210 0.298450 -0.537960
O10   O     O_R   0.682570 0.137790 0.701550 -0.537959
O11   O     O_R   0.682570 0.137790 0.798450 -0.537783
O12   O     O_R   0.317430 0.862210 0.201550 -0.537783
O13   O     O_R   0.817430 0.637790 0.201550 -0.537534
O14   O     O_R   0.182570 0.362210 0.798450 -0.537530
O15   O     O_R   0.182570 0.362210 0.701550 -0.537720
O16   O     O_R   0.817430 0.637790 0.298450 -0.537722
H1    H     H_    0.972593 0.223666 0.455598 0.185405
H2    H     H_    0.027471 0.776334 0.544402 0.185405
H3    H     H_    0.022755 0.776459 0.955564 0.185408
H4    H     H_    0.977493 0.223539 0.044436 0.185406
H5    H     H_    0.503153 0.276667 0.044557 0.185387
H6    H     H_    0.496475 0.723344 0.955444 0.185391
H7    H     H_    0.502434 0.723320 0.544532 0.185405
H8    H     H_    0.497480 0.276680 0.455469 0.185404
C1    C     C_R   0.485772 0.887860 0.313333 0.713827
C2    C     C_R   0.514228 0.112140 0.686667 0.713829
C3    C     C_R   0.514159 0.112142 0.813331 0.713899
C4    C     C_R   0.485840 0.887859 0.186669 0.713895
C5    C     C_R   0.985660 0.612126 0.186663 0.713989
C6    C     C_R   0.014340 0.387875 0.813336 0.713991
C7    C     C_R   0.014407 0.387870 0.686660 0.713901
C8    C     C_R   0.985593 0.612130 0.313340 0.713901
H9    H     H_    0.027951 0.609896 0.691337 0.138210
H10   H     H_    0.972065 0.390104 0.308664 0.138211
H11   H     H_    0.975438 0.390029 0.191365 0.138163
H12   H     H_    0.024665 0.609970 0.808635 0.138167
H13   H     H_    0.508587 0.889967 0.808550 0.137843
H14   H     H_    0.491162 0.110037 0.191451 0.137842
H15   H     H_    0.487282 0.110051 0.308571 0.137833
H16   H     H_    0.512644 0.889948 0.691430 0.137831
H17   H     H_    0.991263 0.337627 0.599557 0.116024
H18   H     H_    0.008726 0.662374 0.400443 0.116024
H19   H     H_    0.006412 0.662462 0.099537 0.116006
H20   H     H_    0.993491 0.337543 0.900462 0.116009
H21   H     H_    0.505164 0.162686 0.900531 0.115862
H22   H     H_    0.495071 0.837321 0.099470 0.115866
H23   H     H_    0.497746 0.837338 0.400516 0.115889
H24   H     H_    0.502318 0.162662 0.599484 0.115888
O17   O     O_3   0.480630 0.680630 0.250000 -0.375918
O18   O     O_3   0.519370 0.319370 0.750000 -0.375919
O19   O     O_3   0.980630 0.819370 0.250000 -0.375913
O20   O     O_3   0.019370 0.180630 0.750000 -0.375913
V1    V     V_3+5 0.205800 0.762860 0.250000 1.479537
V2    V     V_3+5 0.794200 0.237140 0.750000 1.479526
V3    V     V_3+5 0.705800 0.737140 0.250000 1.481119
V4    V     V_3+5 0.294200 0.262860 0.750000 1.481119
H25   H     H_    0.980701 0.283265 0.532726 0.131402
H26   H     H_    0.019367 0.716734 0.467274 0.131401
H27   H     H_    0.015951 0.716851 0.032701 0.131420
H28   H     H_    0.984302 0.283146 0.967300 0.131423
H29   H     H_    0.504957 0.217119 0.967396 0.131522
H30   H     H_    0.494717 0.782892 0.032605 0.131520
H31   H     H_    0.499165 0.782885 0.467377 0.131528
H32   H     H_    0.500770 0.217115 0.532622 0.131529
C9    C     C_R   0.992033 0.534207 0.351694 -0.124682
C10   C     C_R   0.007970 0.465794 0.648306 -0.124684
C11   C     C_R   0.007642 0.465778 0.851694 -0.124740
C12   C     C_R   0.992368 0.534224 0.148305 -0.124730
C13   C     C_R   0.493470 0.965676 0.148298 -0.124417
C14   C     C_R   0.506514 0.034329 0.851704 -0.124424
C15   C     C_R   0.506877 0.034305 0.648298 -0.124430
C16   C     C_R   0.493118 0.965695 0.351702 -0.124428
C17   C     C_R   0.978804 0.347423 0.380211 0.692962
C18   C     C_R   0.021226 0.652578 0.619789 0.692967
C19   C     C_R   0.018076 0.652640 0.880188 0.693236
C20   C     C_R   0.982056 0.347361 0.119812 0.693212
C21   C     C_R   0.497393 0.152680 0.119887 0.694573
C22   C     C_R   0.502361 0.847328 0.880115 0.694614
C23   C     C_R   0.506262 0.847302 0.619869 0.694756
C24   C     C_R   0.493672 0.152698 0.380131 0.694745
C25   C     C_R   0.980495 0.421143 0.343524 -0.180402
C26   C     C_R   0.019521 0.578857 0.656477 -0.180404
C27   C     C_R   0.017200 0.578898 0.843505 -0.180391
C28   C     C_R   0.982883 0.421103 0.156495 -0.180383
C29   C     C_R   0.493854 0.078900 0.156550 -0.181032
C30   C     C_R   0.505966 0.921106 0.843451 -0.181047
C31   C     C_R   0.508823 0.921083 0.656536 -0.180991
C32   C     C_R   0.491126 0.078917 0.343464 -0.180987
C33   C     C_R   0.001437 0.574144 0.396721 -0.220181
C34   C     C_R   0.998569 0.425857 0.603279 -0.220180
C35   C     C_R   0.999378 0.425807 0.896730 -0.220261
C36   C     C_R   0.000616 0.574197 0.103269 -0.220258
C37   C     C_R   0.496088 0.925640 0.103235 -0.220390
C38   C     C_R   0.503968 0.074367 0.896766 -0.220395
C39   C     C_R   0.502929 0.074341 0.603241 -0.220402
C40   C     C_R   0.497090 0.925659 0.396759 -0.220402
C41   C     C_R   0.997666 0.501521 0.434898 0.014922
C42   C     C_R   0.002361 0.498480 0.565102 0.014921
C43   C     C_R   0.002198 0.498464 0.934898 0.014901
C44   C     C_R   0.997884 0.501538 0.065101 0.014902
C45   C     C_R   0.498311 0.998381 0.065099 0.014734
C46   C     C_R   0.501606 0.001628 0.934903 0.014734
C47   C     C_R   0.501838 0.001607 0.565098 0.014721
C48   C     C_R   0.498147 0.998393 0.434902 0.014721
C49   C     C_R   0.986384 0.386514 0.425757 0.003507
C50   C     C_R   0.013651 0.613486 0.574243 0.003505
C51   C     C_R   0.011505 0.613525 0.925742 0.003405
C52   C     C_R   0.988627 0.386475 0.074258 0.003414
C53   C     C_R   0.499400 0.113543 0.074309 0.003786
C54   C     C_R   0.500406 0.886466 0.925693 0.003780
C55   C     C_R   0.503097 0.886443 0.574297 0.003899
C56   C     C_R   0.496858 0.113557 0.425703 0.003901
C57   C     C_R   0.003057 0.539172 0.481601 0.097216
C58   C     C_R   0.996980 0.460828 0.518399 0.097216
C59   C     C_R   0.997620 0.460804 0.981606 0.097273
C60   C     C_R   0.002496 0.539197 0.018394 0.097276
C61   C     C_R   0.498837 0.960745 0.018377 0.097337
C62   C     C_R   0.501043 0.039265 0.981625 0.097334
C63   C     C_R   0.500351 0.039256 0.518380 0.097323
C64   C     C_R   0.499629 0.960743 0.481620 0.097323
C65   C     C_R   0.986160 0.347500 0.507269 -0.217574
C66   C     C_R   0.013891 0.652500 0.492731 -0.217573
C67   C     C_R   0.011439 0.652576 0.007251 -0.217606
C68   C     C_R   0.988741 0.347423 0.992749 -0.217613
C69   C     C_R   0.502873 0.152735 0.992816 -0.217938
C70   C     C_R   0.496907 0.847276 0.007185 -0.217942
C71   C     C_R   0.500068 0.847266 0.492802 -0.218031
C72   C     C_R   0.499890 0.152733 0.507198 -0.218031
C73   C     C_R   0.981337 0.311573 0.462049 -0.144281
C74   C     C_R   0.018715 0.688427 0.537952 -0.144285
C75   C     C_R   0.015500 0.688508 0.962026 -0.144362
C76   C     C_R   0.984691 0.311491 0.037974 -0.144344
C77   C     C_R   0.501950 0.188634 0.038057 -0.144270
C78   C     C_R   0.497782 0.811376 0.961945 -0.144293
C79   C     C_R   0.501848 0.811356 0.538039 -0.144306
C80   C     C_R   0.498093 0.188643 0.461961 -0.144301
F1    F     F_    0.967730 0.237695 0.371152 -0.685438
F2    F     F_    0.032309 0.762305 0.628848 -0.685437
F3    F     F_    0.027224 0.762423 0.871114 -0.685346
F4    F     F_    0.972962 0.237575 0.128886 -0.685355
F5    F     F_    0.497894 0.262569 0.129010 -0.685140
F6    F     F_    0.501729 0.737440 0.870991 -0.685130
F7    F     F_    0.508024 0.737415 0.628981 -0.685123
F8    F     F_    0.491872 0.262584 0.371019 -0.685125

loop_
_geom_bond_atom_site_label_1
_geom_bond_atom_site_label_2
_ccdc_geom_bond_type
O13   V3    S    
C7    C10   S    
O14   V4    S    
C11   C27   A    
C60   C67   A    
C4    C13   S    
C44   C60   A    
C19   C27   A    
C20   C28   A    
C23   C31   A    
O4    C1    A    
C64   C71   A    
O9    C1    A    
C10   C34   A    
C9    C33   A    
C18   F2    S    
H6    C78   S    
O8    C5    A    
H16   C31   S    
O5    V1    S    
C14   C38   A    
C71   C79   A    
C13   C37   A    
C22   F6    S    
C43   C59   A    
C42   C58   A    
C15   C39   A    
H12   C27   S    
C45   C53   A    
C59   C60   A    
C68   C76   A    
C47   C55   A    
H5    C77   S    
H28   C68   S    
C58   C65   A    
C9    C25   A    
C23   F7    S    
C57   C66   A    
C39   C47   A    
H32   C72   S    
O1    C4    A    
H23   C40   S    
O2    C3    A    
C19   C51   A    
C62   C69   A    
C61   C70   A    
C6    C11   S    
C46   C62   A    
O5    C8    A    
C41   C49   A    
C63   C72   A    
H8    C80   S    
H17   C34   S    
C21   C29   A    
C20   C52   A    
O7    C6    A    
H3    C75   S    
C2    C15   S    
H15   C32   S    
C56   C80   A    
H21   C38   S    
C17   C25   A    
C16   C32   A    
O20   V2    S    
C20   F4    S    
H27   C67   S    
C44   C52   A    
H26   C66   S    
H14   C29   S    
C53   C77   A    
C12   C28   A    
H13   C30   S    
C51   C75   A    
H24   C39   S    
C37   C45   A    
H30   C70   S    
C49   C73   A    
C24   F8    S    
O17   V3    S    
H1    C73   S    
O18   V4    S    
C33   C41   A    
O19   V1    S    
H4    C76   S    
C18   C50   A    
C5    C12   S    
O3    V4    S    
C17   C49   A    
O11   C3    A    
H11   C28   S    
C69   C77   A    
C24   C56   A    
C11   C35   A    
O10   C2    A    
C22   C54   A    
C1    C16   S    
C21   C53   A    
C3    C14   S    
C38   C46   A    
H20   C35   S    
C15   C31   A    
O11   V2    S    
H10   C25   S    
O12   C4    A    
O6    V2    S    
C40   C48   A    
O4    V3    S    
C54   C78   A    
O9    V1    S    
C41   C57   A    
C14   C30   A    
C13   C29   A    
C36   C44   A    
C48   C56   A    
C57   C58   A    
C18   C26   A    
O13   C5    A    
C50   C74   A    
C59   C68   A    
C67   C75   A    
O3    C2    A    
C47   C63   A    
O12   V1    S    
C65   C73   A    
C19   F3    S    
O8    V1    S    
C63   C64   A    
O15   C7    A    
H7    C79   S    
O16   C8    A    
C43   C51   A    
H19   C36   S    
C42   C50   A    
H2    C74   S    
C23   C55   A    
H18   C33   S    
C45   C61   A    
O15   V4    S    
C72   C80   A    
O1    V3    S    
O16   V3    S    
O14   C6    A    
C24   C32   A    
O2    V4    S    
C61   C62   A    
C55   C79   A    
H22   C37   S    
C17   F1    S    
C12   C36   A    
C34   C42   A    
O6    C7    A    
O10   V2    S    
H9    C26   S    
C21   F5    S    
C52   C76   A    
C46   C54   A    
H25   C65   S    
C16   C40   A    
C70   C78   A    
C22   C30   A    
H29   C69   S    
O7    V2    S    
C35   C43   A    
C66   C74   A    
H31   C71   S    
C10   C26   A    
C8    C9    S    
C48   C64   A    
