data_mof_unit_55822.cif
_audit_creation_date              2013-03-05T15:51:12-0500
_audit_creation_method            fapswitch 2.2
_symmetry_space_group_name_H-M    P1
_symmetry_Int_Tables_number       1
_space_group_crystal_system       triclinic
_cell_length_a                    23.033919
_cell_length_b                    6.943883
_cell_length_c                    20.713481
_cell_angle_alpha                 90.070803
_cell_angle_beta                  93.23669
_cell_angle_gamma                 90.119144
_cell_volume                      3307.71930956

loop_
_atom_site_label
_atom_site_type_symbol
_atom_site_description
_atom_site_fract_x
_atom_site_fract_y
_atom_site_fract_z
_atom_type_partial_charge
O1    O     O_R   0.188030 0.379840 0.189340 -0.569277
O2    O     O_R   0.811970 0.620160 0.810660 -0.583166
O3    O     O_R   0.311970 0.879840 0.310660 -0.604191
O4    O     O_R   0.688030 0.120160 0.689340 -0.606015
O5    O     O_R   0.307090 0.708420 0.185790 -0.594533
O6    O     O_R   0.692910 0.291580 0.814210 -0.590333
O7    O     O_R   0.192910 0.208420 0.314210 -0.570012
O8    O     O_R   0.807090 0.791580 0.685790 -0.568531
C1    C     C_R   0.326766 0.540859 0.170810 1.033564
C2    C     C_R   0.673323 0.459177 0.829305 1.019874
C3    C     C_R   0.173254 0.040732 0.329214 1.025693
C4    C     C_R   0.826671 0.959276 0.670689 1.007413
O9    O     O_R   0.188180 0.709480 0.181650 -0.613707
O10   O     O_R   0.811820 0.290520 0.818350 -0.608635
O11   O     O_R   0.311820 0.209480 0.318350 -0.561546
O12   O     O_R   0.688180 0.790520 0.681650 -0.578272
O13   O     O_R   0.192210 0.880960 0.306500 -0.605221
O14   O     O_R   0.807790 0.119040 0.693500 -0.601742
O15   O     O_R   0.307790 0.380960 0.193500 -0.579673
O16   O     O_R   0.692210 0.619040 0.806500 -0.576929
C5    C     C_R   0.168967 0.540044 0.164171 1.023357
C6    C     C_R   0.830605 0.460218 0.836606 0.989686
C7    C     C_R   0.331209 0.040631 0.335707 1.027530
C8    C     C_R   0.669316 0.959501 0.663370 0.992945
O17   O     O_3   0.251460 0.546730 0.290970 -0.265487
O18   O     O_3   0.748540 0.453270 0.709030 -0.267570
O19   O     O_3   0.248540 0.046730 0.209030 -0.268300
O20   O     O_3   0.751460 0.953270 0.790970 -0.265298
V1    V     V_3+5 0.249730 0.821120 0.242400 1.234649
V2    V     V_3+5 0.750270 0.178880 0.757600 1.228643
V3    V     V_3+5 0.250270 0.321120 0.257600 1.279771
V4    V     V_3+5 0.749730 0.678880 0.742400 1.266833
C9    C     C_R   0.581606 0.117904 0.613959 -0.143371
C10   C     C_R   0.426229 0.906934 0.374035 -0.075995
C11   C     C_R   0.920716 0.333067 0.891258 -0.159817
C12   C     C_R   0.072612 0.648165 0.120590 -0.185570
C13   C     C_R   0.622982 0.972108 0.609956 -0.210487
C14   C     C_R   0.380327 0.031640 0.385236 -0.208325
C15   C     C_R   0.876805 0.471032 0.890132 -0.178516
C16   C     C_R   0.120460 0.528248 0.114047 -0.154606
C17   C     C_R   0.619432 0.844587 0.556080 -0.043387
C18   C     C_R   0.382874 0.145711 0.442166 -0.048370
C19   C     C_R   0.878182 0.616897 0.938384 -0.034382
C20   C     C_R   0.120194 0.397161 0.061511 -0.085979
C21   C     C_R   0.574072 0.868158 0.506132 0.061780
C22   C     C_R   0.436832 0.161032 0.479510 0.063001
C23   C     C_R   0.924485 0.621214 0.988115 0.037028
C24   C     C_R   0.066932 0.362934 0.024313 0.004587
C25   C     C_R   0.530341 0.010017 0.514464 0.022649
C26   C     C_R   0.481057 0.022596 0.470219 0.005339
C27   C     C_R   0.970634 0.484713 0.984953 0.089025
C28   C     C_R   0.020403 0.496210 0.028573 0.103778
C29   C     C_R   0.535372 0.138657 0.567466 0.014284
C30   C     C_R   0.475435 0.895044 0.417140 0.054198
C31   C     C_R   0.967724 0.337949 0.937370 -0.007081
C32   C     C_R   0.023873 0.640786 0.076616 -0.004045
C33   C     C_R   0.570321 0.755561 0.448085 -0.295417
C34   C     C_R   0.447918 0.308667 0.526347 -0.232036
C35   C     C_R   0.927229 0.757404 0.040360 -0.277897
C36   C     C_R   0.058698 0.199344 0.983338 -0.251042
C37   C     C_R   0.519902 0.762062 0.406353 0.294445
C38   C     C_R   0.494606 0.288930 0.572848 0.241451
C39   C     C_R   0.977351 0.769273 0.082712 0.319024
C40   C     C_R   0.011509 0.195735 0.936732 0.342450
H1    H     H_    0.584831 0.212422 0.655603 0.180151
H2    H     H_    0.422683 0.816687 0.331318 0.164231
H3    H     H_    0.918752 0.224427 0.853680 0.166412
H4    H     H_    0.074047 0.748602 0.160692 0.166323
C41   C     C_3   0.049268 0.050360 0.531937 -0.082298
C42   C     C_3   0.950369 0.949544 0.467587 -0.098618
C43   C     C_3   0.450701 0.548994 0.967961 -0.083829
C44   C     C_3   0.549625 0.451196 0.032479 -0.086576
C45   C     C_3   0.013556 0.867607 0.544561 -0.071994
C46   C     C_3   0.986086 0.132300 0.454958 -0.074029
C47   C     C_3   0.486494 0.366633 0.955603 -0.072350
C48   C     C_3   0.513828 0.633561 0.044839 -0.082879
H5    H     H_    0.012364 0.685347 0.447338 0.164605
H6    H     H_    0.987279 0.314572 0.552178 0.165222
H7    H     H_    0.487730 0.186312 0.053080 0.164530
H8    H     H_    0.512592 0.813888 0.947363 0.165801
C49   C     C_1   0.871949 0.968735 0.624938 -0.199819
C50   C     C_1   0.127865 0.031264 0.374820 -0.200604
C51   C     C_1   0.628053 0.468521 0.875072 -0.197024
C52   C     C_1   0.372134 0.531566 0.125172 -0.195361
C53   C     C_3   0.992785 0.172404 0.528748 -0.338251
C54   C     C_3   0.006857 0.827507 0.470773 -0.335665
C55   C     C_3   0.507133 0.672097 0.970990 -0.337187
C56   C     C_3   0.493191 0.328096 0.029449 -0.334736
C57   C     C_3   0.957156 0.987500 0.541009 0.192150
C58   C     C_3   0.042486 0.012408 0.458519 0.192526
C59   C     C_3   0.542845 0.487582 0.959000 0.191345
C60   C     C_3   0.457480 0.512603 0.041434 0.190961
C61   C     C_1   0.910189 0.977000 0.587015 0.149048
C62   C     C_1   0.089527 0.022956 0.412616 0.149058
C63   C     C_1   0.589819 0.476894 0.913001 0.152491
C64   C     C_1   0.410449 0.523244 0.087350 0.152505
C65   C     C_2   0.660171 0.679417 0.555088 0.662721
H9    H     H_    0.643309 0.534386 0.547922 -0.016582
O21   O     O_2   0.712720 0.705051 0.559642 -0.543430
C66   C     C_2   0.328074 0.214254 0.470425 0.620868
H10   H     H_    0.329126 0.267295 0.519707 0.020545
O22   O     O_2   0.280701 0.203692 0.441170 -0.579920
C67   C     C_2   0.833185 0.769411 0.933205 0.497034
H11   H     H_    0.846026 0.919584 0.930602 0.054097
O23   O     O_2   0.781605 0.728212 0.933122 -0.570780
C68   C     C_2   0.176289 0.326338 0.036943 0.498280
H12   H     H_    0.177045 0.266265 0.988660 0.055591
O24   O     O_2   0.222593 0.341041 0.068165 -0.578272
C69   C     C_2   0.620467 0.648632 0.424028 0.587448
H13   H     H_    0.615102 0.501467 0.407044 0.067424
O25   O     O_2   0.667361 0.728481 0.419636 -0.508033
C70   C     C_2   0.417422 0.498050 0.521998 0.499417
H14   H     H_    0.415341 0.590107 0.564092 0.092294
O26   O     O_2   0.396615 0.557896 0.470354 -0.587893
C71   C     C_2   0.877053 0.879848 0.055668 0.619294
H15   H     H_    0.834301 0.815852 0.058832 0.045031
O27   O     O_2   0.883021 0.052991 0.064249 -0.526426
C72   C     C_2   0.093419 0.020480 0.996858 0.579164
H16   H     H_    0.116185 0.001587 0.043716 0.012621
O28   O     O_2   0.096632 0.891548 0.957137 -0.514763
N1    N     N_R   0.515122 0.636987 0.351048 0.219837
O29   O     O_R   0.522980 0.704580 0.293638 -0.357580
O30   O     O_R   0.505552 0.453897 0.358570 -0.398960
N2    N     N_R   0.501154 0.425368 0.624942 0.219183
O31   O     O_R   0.462327 0.434179 0.668079 -0.381700
O32   O     O_R   0.544775 0.544805 0.628190 -0.459253
N3    N     N_R   0.979903 0.908771 0.134095 0.250445
O33   O     O_R   0.948337 0.886172 0.183678 -0.347310
O34   O     O_R   0.014076 0.057615 0.131464 -0.406796
N4    N     N_R   0.008206 0.047399 0.888362 0.255957
O35   O     O_R   0.968694 0.913731 0.889604 -0.431979
O36   O     O_R   0.044047 0.048955 0.842025 -0.320656
C73   C     C_2   0.031006 0.716280 0.593306 0.489965
H17   H     H_    0.071913 0.641047 0.589694 0.034309
O37   O     O_2   0.999584 0.676496 0.636875 -0.557690
C74   C     C_2   0.968643 0.283561 0.406184 0.497880
H18   H     H_    0.927756 0.358907 0.409805 0.039370
O38   O     O_2   0.000045 0.323140 0.362576 -0.554246
C75   C     C_2   0.469106 0.214139 0.907034 0.488966
H19   H     H_    0.428272 0.138041 0.910795 0.035117
O39   O     O_2   0.500489 0.174413 0.863435 -0.559033
C76   C     C_2   0.531181 0.786051 0.093425 0.509170
H20   H     H_    0.572094 0.861783 0.089811 0.033965
O40   O     O_2   0.499673 0.826217 0.136866 -0.541852
C77   C     C_2   0.103507 0.108465 0.570394 0.509324
H21   H     H_    0.102156 0.131047 0.622101 0.052156
O41   O     O_2   0.149117 0.130778 0.544111 -0.547856
C78   C     C_2   0.896137 0.891427 0.429119 0.532914
H22   H     H_    0.897491 0.868920 0.377408 0.059396
O42   O     O_2   0.850530 0.869015 0.455399 -0.522008
C79   C     C_2   0.396444 0.605262 0.929398 0.515361
H23   H     H_    0.397821 0.627144 0.877677 0.050548
O43   O     O_2   0.350785 0.626802 0.955608 -0.549699
C80   C     C_2   0.603872 0.394919 0.071057 0.522902
H24   H     H_    0.602494 0.373203 0.122786 0.056430
O44   O     O_2   0.649523 0.373178 0.044848 -0.546676

loop_
_geom_bond_atom_site_label_1
_geom_bond_atom_site_label_2
_geom_bond_distance
_ccdc_geom_bond_type
C34   C38   1.409597 A    
O1    C5    1.296039 A    
C50   C62   1.214093 T    
C55   C59   1.551323 S    
O19   V1    1.712745 S    
O13   V1    1.972434 S    
O3    C7    1.297186 A    
C60   C64   1.483263 S    
C44   C48   1.541560 S    
O4    V2    1.996978 S    
O15   V3    1.971964 S    
C10   H2    1.082842 S    
C72   O28   1.220367 D    
C38   N2    1.436372 S    
C65   H9    1.085623 S    
C9    H1    1.082361 S    
O7    C3    1.293058 A    
C21   C33   1.431817 A    
O5    C1    1.293317 A    
C26   C30   1.411065 A    
C34   C70   1.492611 S    
C37   N1    1.435855 S    
C78   O42   1.219928 D    
C14   C18   1.418129 A    
H8    C55   1.110106 S    
C69   O25   1.221123 D    
C77   H21   1.084445 S    
O4    C8    1.300024 A    
C68   H12   1.084190 S    
C71   H15   1.084922 S    
C2    C51   1.449819 S    
O1    V3    1.998908 S    
C41   C77   1.497624 S    
O2    V4    1.998908 S    
C52   C64   1.214163 T    
C33   C37   1.408858 A    
O3    V1    1.996980 S    
C72   H16   1.085068 S    
H7    C56   1.110105 S    
C12   C16   1.395285 A    
C77   O41   1.219931 D    
C28   C32   1.411648 A    
C1    O15   1.291210 A    
C33   C69   1.483727 S    
C43   C60   1.542278 S    
C56   C60   1.551250 S    
C2    O16   1.291173 A    
C71   O27   1.221476 D    
C46   C74   1.497950 S    
O2    C6    1.297673 A    
C79   H23   1.084447 S    
C24   C36   1.423112 A    
N4    O36   1.300902 A    
O14   V2    1.972434 S    
C21   C25   1.427614 A    
C16   C20   1.417587 A    
C80   O44   1.219893 D    
C47   C59   1.542756 S    
O11   C7    1.299417 A    
C44   C56   1.552543 S    
O12   C8    1.301402 A    
C22   C34   1.423327 A    
O17   V1    2.155123 S    
O10   V2    1.996479 S    
C70   O26   1.220963 D    
C70   H14   1.083810 S    
C65   O21   1.221417 D    
C58   C62   1.483128 S    
O5    V1    1.977374 S    
C3    C50   1.449527 S    
C9    C29   1.402675 A    
C43   C79   1.497548 S    
C23   C35   1.434896 A    
O7    V3    1.976346 S    
C11   C31   1.403149 A    
C27   C28   1.421063 A    
O8    V4    1.976347 S    
O20   V4    2.152776 S    
C44   C80   1.497521 S    
C78   H22   1.084474 S    
C74   O38   1.219897 D    
C54   C58   1.551239 S    
C44   C59   1.542408 S    
C53   C57   1.551292 S    
O18   V4    1.711079 S    
C15   C19   1.421128 A    
C27   C31   1.415727 A    
O19   V3    2.152776 S    
C57   C61   1.483247 S    
C9    C13   1.397435 A    
C11   C15   1.393827 A    
N3    O34   1.300913 A    
C42   C46   1.541589 S    
C12   C32   1.406000 A    
C18   C66   1.499229 S    
C49   C61   1.214178 T    
C29   C38   1.413726 A    
C11   H3    1.082334 S    
O8    C4    1.293013 A    
C51   C63   1.214275 T    
C31   C40   1.413549 A    
C66   O22   1.219904 D    
C8    C13   1.496019 S    
N1    O29   1.300947 A    
C32   C39   1.406844 A    
O9    C5    1.299944 A    
C67   O23   1.221364 D    
C41   C45   1.541490 S    
C48   C55   1.552355 S    
C80   H24   1.084462 S    
C48   C60   1.542718 S    
C43   C55   1.552515 S    
H6    C53   1.110153 S    
O6    V2    1.977372 S    
C40   N4    1.434948 S    
H5    C54   1.110160 S    
C10   C30   1.405308 A    
C18   C22   1.430052 A    
C73   H17   1.084557 S    
C17   C65   1.484256 S    
C42   C57   1.542347 S    
C42   C78   1.497633 S    
C41   C58   1.542248 S    
C42   C54   1.552561 S    
C41   C53   1.552498 S    
N2    O32   1.300244 A    
O16   V4    1.971964 S    
O9    V1    1.996478 S    
C3    O13   1.291043 A    
C10   C14   1.397352 A    
O17   V3    1.711079 S    
C45   C73   1.497915 S    
C74   H18   1.084559 S    
O6    C2    1.293406 A    
C23   C27   1.429877 A    
C75   H19   1.084557 S    
C12   H4    1.082973 S    
O11   V3    1.999973 S    
C30   C37   1.407477 A    
C20   C68   1.498856 S    
O12   V4    1.999977 S    
C7    C14   1.485193 S    
C22   C26   1.422874 A    
C35   C39   1.412207 A    
C36   C40   1.412587 A    
C46   C58   1.542736 S    
O20   V2    1.712746 S    
N4    O35   1.299868 A    
C45   C57   1.542755 S    
C47   C75   1.497958 S    
C69   H13   1.084893 S    
C43   C47   1.541466 S    
C75   O39   1.219901 D    
O10   C6    1.302709 A    
C5    C16   1.483754 S    
C68   O24   1.219721 D    
C25   C29   1.413996 A    
C6    C15   1.494516 S    
C66   H10   1.083757 S    
C4    C49   1.449664 S    
C76   O40   1.219891 D    
C79   O43   1.219904 D    
C46   C53   1.552311 S    
C13   C17   1.422355 A    
C19   C67   1.483112 S    
C45   C54   1.552275 S    
N1    O30   1.300927 A    
C1    C52   1.449637 S    
C59   C63   1.483436 S    
C20   C24   1.430680 A    
C47   C56   1.552303 S    
C24   C28   1.423893 A    
C35   C71   1.484590 S    
C25   C26   1.421047 A    
C4    O14   1.291134 A    
C67   H11   1.085564 S    
C73   O37   1.219885 D    
C17   C21   1.438014 A    
C76   H20   1.084547 S    
C19   C23   1.440566 A    
C36   C72   1.496778 S    
C39   N3    1.436895 S    
N3    O33   1.300908 A    
N2    O31   1.300882 A    
O18   V2    2.155122 S    
C48   C76   1.497996 S    
