data_mof_unit_47995.cif
_audit_creation_date              2012-12-11T14:56:34-0500
_audit_creation_method            fapswitch 2.2
_symmetry_space_group_name_H-M    P1
_symmetry_Int_Tables_number       1
_space_group_crystal_system       triclinic
_cell_length_a                    10.585162
_cell_length_b                    10.707035
_cell_length_c                    17.085624
_cell_angle_alpha                 80.279456
_cell_angle_beta                  90.196635
_cell_angle_gamma                 119.833418
_cell_volume                      1648.30624174

loop_
_atom_site_label
_atom_site_type_symbol
_atom_type_description
_atom_site_fract_x
_atom_site_fract_y
_atom_site_fract_z
_atom_type_partial_charge
C1    C     C_R   0.222785 0.854121 0.128708 0.560020
C2    C     C_R   0.713529 0.259846 0.302783 -0.092641
C3    C     C_R   0.718788 0.250063 0.224005 0.365211
C4    C     C_R   0.637727 0.292267 0.171831 0.012754
C5    C     C_1   0.685205 0.832018 0.201792 0.014718
C6    C     C_1   0.703035 0.807198 0.270533 -0.002377
C7    C     C_1   0.180879 0.825627 0.211334 -0.019573
C8    C     C_1   0.151554 0.820246 0.279852 -0.020497
C9    C     C_1   0.644107 0.323571 0.778157 -0.030967
C10   C     C_1   0.651685 0.345386 0.707523 -0.039031
C11   C     C_R   0.493858 0.791408 0.771705 -0.159932
C12   C     C_R   0.632934 0.267295 0.091449 0.577029
C13   C     C_R   0.509810 0.773288 0.694897 -0.187790
C14   C     C_R   0.646220 0.858577 0.650085 0.026673
C15   C     C_R   0.759850 0.977486 0.678649 0.373135
C16   C     C_R   0.742439 0.996674 0.755614 -0.087394
C17   C     C_R   0.612710 0.896879 0.804117 -0.048227
C18   C     C_R   0.262248 0.969037 0.758715 -0.186640
C19   C     C_R   0.247791 0.956778 0.679805 -0.037281
C20   C     C_R   0.162351 0.817031 0.661290 -0.044340
C21   C     C_R   0.105167 0.690393 0.721565 -0.116657
C22   C     C_R   0.120389 0.703495 0.800668 0.341458
C23   C     C_R   0.643739 0.855872 0.124274 0.566508
C24   C     C_R   0.193988 0.843206 0.819137 0.027301
C25   C     C_R   0.710876 0.772211 0.353537 0.544458
C26   C     C_R   0.680633 0.384540 0.399449 0.540218
C27   C     C_R   0.103773 0.810600 0.359225 0.538099
C28   C     C_R   0.674949 0.805612 0.582600 0.568215
C29   C     C_R   0.679025 0.382775 0.624464 0.558314
C30   C     C_R   0.101195 0.802632 0.585468 0.545855
C31   C     C_R   0.223807 0.863427 0.899323 0.584129
C32   C     C_R   0.637544 0.284819 0.861013 0.559373
C33   C     C_R   0.599225 0.895588 0.889078 0.550030
C34   C     C_R   0.541074 0.330203 0.201171 -0.196820
C35   C     C_R   0.535709 0.340735 0.280713 -0.053431
C36   C     C_R   0.632452 0.316816 0.330218 -0.051674
Cr1   Cr    Cr6+3 0.402240 0.783890 0.019450 1.080266
Cr2   Cr    Cr6+3 0.382360 0.097900 0.991800 1.044806
Cr3   Cr    Cr6+3 0.715380 0.118170 0.988700 1.121545
Cr4   Cr    Cr6+3 0.936650 0.882420 0.465510 1.117154
Cr5   Cr    Cr6+3 0.605770 0.565620 0.493360 1.081138
Cr6   Cr    Cr6+3 0.921340 0.550490 0.496380 1.068704
H1    H     H_    0.470636 0.352221 0.161984 0.154260
H2    H     H_    0.039119 0.581706 0.708214 0.173014
H3    H     H_    0.782625 0.233618 0.340827 0.179188
H4    H     H_    0.391196 0.716595 0.807582 0.176543
H5    H     H_    0.418797 0.684181 0.673450 0.162262
H6    H     H_    0.833460 0.083081 0.778667 0.171030
H7    H     H_    0.327011 0.077276 0.773049 0.147457
O1    O     O_R   0.521780 0.757110 0.108900 -0.511660
O2    O     O_R   0.513330 0.228330 0.898660 -0.512556
O3    O     O_R   0.739230 0.266130 0.888050 -0.472118
O4    O     O_R   0.712580 0.991850 0.918770 -0.505031
O5    O     O_3   0.499990 0.999980 0.999980 -0.316431
O6    O     O_R   0.083770 0.911170 0.376030 -0.504799
O7    O     O_R   0.808770 0.880340 0.383890 -0.480501
O8    O     O_R   0.584340 0.689460 0.394160 -0.488415
O9    O     O_R   0.614320 0.443940 0.423590 -0.496595
O10   O     O_R   0.805020 0.410040 0.421340 -0.507931
O11   O     O_R   0.049240 0.685450 0.403290 -0.493028
O12   O     O_R   0.275160 0.783810 0.101120 -0.479273
O13   O     O_R   0.077520 0.903010 0.551800 -0.464857
O14   O     O_R   0.802980 0.872780 0.546830 -0.426053
O15   O     O_R   0.578090 0.681300 0.569920 -0.524739
O16   O     O_R   0.608530 0.436370 0.586530 -0.474674
O17   O     O_R   0.798770 0.401880 0.597100 -0.492013
O18   O     O_R   0.043450 0.677890 0.566230 -0.512372
O19   O     O_3   0.821250 0.666180 0.485090 -0.305778
O20   O     O_R   0.237900 0.972600 0.090980 -0.502555
O21   O     O_R   0.511190 0.220540 0.061620 -0.515912
O22   O     O_R   0.736920 0.257720 0.063840 -0.419658
O23   O     O_R   0.710450 0.984050 0.081720 -0.448153
O24   O     O_R   0.524090 0.765520 0.933110 -0.495679
O25   O     O_R   0.277300 0.791600 0.938160 -0.479184
O26   O     O_R   0.240210 0.981010 0.915190 -0.520804
C37   C     C_1   0.310953 0.088411 0.618998 0.240316
N1    N     N_1   0.357816 0.191556 0.568934 -0.238545
F1    F     F_    0.060226 0.581215 0.858871 -0.613698
C38   C     C_1   0.433086 0.379511 0.308128 0.256668
N2    N     N_1   0.350425 0.410152 0.329822 -0.238216
F2    F     F_    0.802935 0.198265 0.199609 -0.605877
F3    F     F_    0.891134 0.067678 0.635261 -0.605469

loop_
_geom_bond_atom_site_label_1
_geom_bond_atom_site_label_2
_ccdc_geom_bond_type
Cr1   O25   S    
Cr2   O21   S    
C35   C36   A    
C25   O7    A    
C16   H6    S    
C7    C8    T    
C20   C30   S    
Cr4   O14   S    
C25   O8    A    
C18   C24   A    
C19   C37   S    
Cr5   O9    S    
C34   C35   A    
C27   O11   A    
C5    C6    T    
C27   O6    A    
C6    C25   S    
C2    C36   A    
C15   C16   A    
Cr4   O13   S    
C18   C19   A    
C32   O3    A    
C12   O21   A    
C9    C32   S    
C19   C20   A    
C16   C17   A    
Cr4   O7    S    
Cr2   O5    S    
C3    F2    S    
Cr3   O23   S    
C15   F3    S    
C26   O10   A    
C30   O18   A    
Cr3   O3    S    
Cr2   O20   S    
C13   C14   A    
Cr6   O19   S    
C17   C33   S    
Cr5   O19   S    
Cr2   O26   S    
C2    H3    S    
C33   O4    A    
C4    C34   A    
C37   N1    T    
C22   F1    S    
Cr6   O11   S    
C13   H5    S    
C23   O1    A    
Cr5   O16   S    
Cr2   O2    S    
C1    O20   A    
C38   N2    T    
C32   O2    A    
C21   H2    S    
C31   O26   A    
C5    C23   S    
Cr4   O6    S    
C26   O9    A    
C29   O16   A    
Cr1   O5    S    
C28   O15   A    
C33   O24   A    
C12   O22   A    
C30   O13   A    
Cr6   O18   S    
C22   C24   A    
C4    C12   S    
C3    C4    A    
C9    C10   T    
C26   C36   S    
Cr1   O24   S    
C11   C17   A    
C1    C7    S    
C23   O23   A    
C34   H1    S    
C31   O25   A    
C1    O12   A    
Cr6   O10   S    
Cr1   O12   S    
C2    C3    A    
C24   C31   S    
Cr5   O8    S    
Cr1   O1    S    
C11   C13   A    
C10   C29   S    
Cr3   O4    S    
C35   C38   S    
C29   O17   A    
Cr3   O5    S    
C28   O14   A    
C20   C21   A    
Cr4   O19   S    
Cr6   O17   S    
C8    C27   S    
Cr3   O22   S    
C14   C15   A    
C11   H4    S    
Cr5   O15   S    
C14   C28   S    
C21   C22   A    
C18   H7    S    
