data_mof_unit_9927.cif
_audit_creation_date              2013-03-05T16:56:14-0500
_audit_creation_method            fapswitch 2.2
_symmetry_space_group_name_H-M    P1
_symmetry_Int_Tables_number       1
_space_group_crystal_system       triclinic
_cell_length_a                    17.674553
_cell_length_b                    16.71605
_cell_length_c                    10.773076
_cell_angle_alpha                 90.715193
_cell_angle_beta                  90.752094
_cell_angle_gamma                 90.701202
_cell_volume                      3182.12445009

loop_
_atom_site_label
_atom_site_type_symbol
_atom_site_description
_atom_site_fract_x
_atom_site_fract_y
_atom_site_fract_z
_atom_type_partial_charge
O1    O     O_R   0.389130 0.566570 0.500000 -0.628268
O2    O     O_R   0.389130 0.433430 0.500000 -0.629678
C1    C     C_R   0.352970 0.499576 0.505026 0.904612
O3    O     O_R   0.500000 0.566540 0.314800 -0.596060
O4    O     O_R   0.500000 0.433460 0.314800 -0.578053
C2    C     C_R   0.498401 0.499933 0.256858 0.914019
Zn1   Zn    Zn3+2 0.500020 0.588860 0.500010 0.941591
Zn2   Zn    Zn3+2 0.500020 0.411140 0.500010 0.950400
O5    O     O_R   0.610900 0.566520 0.500010 -0.637392
O6    O     O_R   0.610900 0.433480 0.500010 -0.626846
O7    O     O_R   0.500030 0.566540 0.685210 -0.593738
O8    O     O_R   0.500030 0.433460 0.685210 -0.572783
C3    C     C_R   0.646299 0.500522 0.501018 0.971387
C4    C     C_R   0.491437 0.500459 0.741678 0.907364
C5    C     C_3   0.451924 0.582354 0.072198 0.545122
C6    C     C_3   0.451533 0.418960 0.068857 0.626991
C7    C     C_3   0.455582 0.583958 0.926556 0.241864
C8    C     C_3   0.433190 0.433627 0.927700 0.230308
H1    H     H_    0.397176 0.586985 0.885715 0.010706
H2    H     H_    0.374858 0.457644 0.920074 -0.012597
H3    H     H_    0.611148 0.546927 0.094669 0.139874
H4    H     H_    0.605539 0.445594 0.103245 0.243915
H5    H     H_    0.606262 0.539665 0.888505 0.206673
H6    H     H_    0.591840 0.432915 0.894961 0.217702
C9    C     C_3   0.573599 0.497359 0.067388 -0.486026
C10   C     C_3   0.491890 0.500615 0.120296 -0.135433
C11   C     C_3   0.487476 0.501930 0.878097 -0.125642
C12   C     C_3   0.569567 0.491733 0.926284 -0.405670
C13   C     C_R   0.846393 0.533371 0.611129 0.473403
C14   C     C_R   0.846866 0.481111 0.398163 0.496163
C15   C     C_R   0.767432 0.523250 0.613549 0.011454
C16   C     C_R   0.767623 0.483886 0.393542 0.022488
C17   C     C_R   0.728363 0.502146 0.502866 -0.177560
C18   C     C_R   0.885111 0.511311 0.503714 -0.188855
C19   C     C_1   0.965229 0.516979 0.502437 0.127601
C20   C     C_1   0.032522 0.518908 0.500373 0.091157
C21   C     C_R   0.155822 0.576630 0.555511 0.439529
C22   C     C_R   0.146280 0.446979 0.450821 0.443383
C23   C     C_R   0.234137 0.567357 0.569972 0.050824
C24   C     C_R   0.224380 0.436521 0.464682 0.052512
C25   C     C_R   0.269699 0.500099 0.514883 -0.224920
C26   C     C_R   0.112624 0.515582 0.499066 -0.218307
C27   C     C_R   0.436479 0.832436 0.466718 0.367567
C28   C     C_R   0.440774 0.164914 0.444727 0.389058
C29   C     C_R   0.436890 0.747981 0.465819 -0.129452
C30   C     C_R   0.441455 0.250264 0.447440 -0.217265
H7    H     H_    0.386600 0.715207 0.436456 0.162345
H8    H     H_    0.396048 0.283351 0.406832 0.143055
N1    N     N_R   0.500030 0.707230 0.500030 -0.119967
N2    N     N_R   0.500030 0.292770 0.500030 -0.113546
C31   C     C_R   0.565188 0.747929 0.530207 -0.046392
C32   C     C_R   0.559047 0.254183 0.554130 0.001808
H9    H     H_    0.614877 0.714572 0.555940 0.155522
H10   H     H_    0.604410 0.289337 0.596669 0.151042
C33   C     C_R   0.568478 0.832478 0.530071 0.057664
C34   C     C_R   0.561435 0.169864 0.556203 0.048249
C35   C     C_R   0.503002 0.875667 0.498134 -0.000859
C36   C     C_R   0.501606 0.124583 0.500977 0.024709
C37   C     C_1   0.502906 0.963592 0.499081 0.051440
C38   C     C_1   0.502432 0.036608 0.500124 0.064051
O9    O     O_3   0.477546 0.656932 0.128875 -0.552192
C39   C     C_3   0.555326 0.678851 0.132672 0.201745
H11   H     H_    0.584376 0.670619 0.043378 0.179370
H12   H     H_    0.586222 0.646883 0.206544 0.139951
C40   C     C_3   0.561985 0.766903 0.169620 -0.832789
H13   H     H_    0.548677 0.774679 0.269151 0.256610
H14   H     H_    0.620496 0.789257 0.154194 0.198249
H15   H     H_    0.521486 0.803183 0.115790 0.262270
O10   O     O_3   0.506627 0.356570 0.084239 -0.584180
C41   C     C_3   0.485485 0.276645 0.052239 0.212129
H16   H     H_    0.506872 0.261630 0.958494 0.205030
H17   H     H_    0.423676 0.264481 0.053363 0.136839
C42   C     C_3   0.525462 0.220318 0.140425 -0.920503
H18   H     H_    0.515050 0.238540 0.237509 0.274868
H19   H     H_    0.504621 0.158020 0.124708 0.220467
H20   H     H_    0.587454 0.222644 0.124886 0.257643
C43   C     C_3   0.277495 0.626937 0.651295 -0.837202
H21   H     H_    0.240468 0.656017 0.720553 0.259168
H22   H     H_    0.322105 0.596210 0.705220 0.208445
H23   H     H_    0.303075 0.674145 0.593617 0.222269
C44   C     C_3   0.257078 0.356779 0.428720 -0.849001
H24   H     H_    0.213748 0.311684 0.399610 0.266898
H25   H     H_    0.295574 0.364580 0.350148 0.229068
H26   H     H_    0.286924 0.331066 0.509911 0.239988
O11   O     O_3   0.372252 0.872781 0.430648 -0.585098
C45   C     C_3   0.322103 0.875374 0.531492 0.093796
H27   H     H_    0.351534 0.893001 0.620233 0.124570
H28   H     H_    0.294018 0.816064 0.542627 0.129638
C46   C     C_3   0.261728 0.937215 0.505743 -0.793335
H29   H     H_    0.230607 0.921698 0.418315 0.249544
H30   H     H_    0.221112 0.939022 0.583446 0.197075
H31   H     H_    0.288453 0.997300 0.496965 0.289768
O12   O     O_3   0.381597 0.118036 0.394744 -0.599169
C47   C     C_3   0.338814 0.157018 0.302431 0.073495
H32   H     H_    0.375624 0.189469 0.236406 0.136272
H33   H     H_    0.298617 0.198860 0.346470 0.147682
C48   C     C_3   0.292993 0.095009 0.228213 -0.795886
H34   H     H_    0.253281 0.063004 0.289905 0.255602
H35   H     H_    0.259869 0.124982 0.154259 0.194990
H36   H     H_    0.331420 0.051087 0.184525 0.266125
C49   C     C_3   0.641129 0.875318 0.565440 -0.925687
H37   H     H_    0.686847 0.832673 0.588086 0.233872
H38   H     H_    0.660088 0.912896 0.487193 0.250283
H39   H     H_    0.631981 0.914126 0.648172 0.249138
C50   C     C_3   0.627465 0.129283 0.617369 -0.919606
H40   H     H_    0.669300 0.173338 0.656079 0.238621
H41   H     H_    0.607074 0.091531 0.694455 0.245491
H42   H     H_    0.656525 0.090917 0.548412 0.249283
C51   C     C_3   0.367019 0.583712 0.107317 -0.967222
H43   H     H_    0.342151 0.641850 0.080164 0.253735
H44   H     H_    0.331492 0.537660 0.059890 0.199476
H45   H     H_    0.360329 0.579536 0.209410 0.257426
C52   C     C_3   0.378738 0.396185 0.142393 -1.019563
H46   H     H_    0.391582 0.348723 0.210058 0.258563
H47   H     H_    0.356441 0.445148 0.199858 0.224304
H48   H     H_    0.332493 0.373128 0.080918 0.213188
O13   O     O_3   0.500208 0.649500 0.885054 -0.589292
C53   C     C_3   0.454406 0.714113 0.848088 0.167810
H49   H     H_    0.412936 0.730244 0.920931 0.147735
H50   H     H_    0.423475 0.698122 0.760523 0.144392
C54   C     C_3   0.504180 0.786991 0.823583 -0.839616
H51   H     H_    0.556191 0.768826 0.775036 0.273627
H52   H     H_    0.472634 0.830467 0.766230 0.196985
H53   H     H_    0.521472 0.817060 0.911497 0.237713
O14   O     O_3   0.438648 0.361443 0.857440 -0.594590
C55   C     C_3   0.368020 0.336178 0.805907 0.104281
H54   H     H_    0.353218 0.374309 0.725633 0.166853
H55   H     H_    0.321702 0.338875 0.874659 0.118146
C56   C     C_3   0.373417 0.249661 0.761949 -0.837717
H56   H     H_    0.377293 0.209454 0.842972 0.224004
H57   H     H_    0.322465 0.232777 0.705696 0.215559
H58   H     H_    0.424464 0.241647 0.704995 0.273906
O15   O     O_3   0.887033 0.557550 0.716308 -0.597259
C57   C     C_3   0.876735 0.640343 0.739474 0.078853
H59   H     H_    0.870768 0.649393 0.841162 0.166647
H60   H     H_    0.825103 0.665868 0.695021 0.130904
C58   C     C_3   0.945787 0.687449 0.698178 -0.816520
H61   H     H_    0.951847 0.681894 0.596013 0.250155
H62   H     H_    0.939206 0.751588 0.723287 0.197172
H63   H     H_    0.997397 0.664576 0.744880 0.301363
O16   O     O_3   0.888425 0.451696 0.299513 -0.626971
C59   C     C_3   0.878448 0.367423 0.287998 0.091158
H64   H     H_    0.909286 0.347563 0.204253 0.169747
H65   H     H_    0.818396 0.349563 0.271754 0.155840
C60   C     C_3   0.909950 0.322024 0.399645 -0.881984
H66   H     H_    0.872945 0.330080 0.481250 0.239631
H67   H     H_    0.912167 0.257149 0.376816 0.219707
H68   H     H_    0.967639 0.343776 0.424102 0.312488
C61   C     C_3   0.724852 0.533164 0.732944 -0.904043
H69   H     H_    0.762522 0.541497 0.815274 0.264284
H70   H     H_    0.687095 0.585584 0.726313 0.238270
H71   H     H_    0.690717 0.478147 0.748429 0.229599
C62   C     C_3   0.725102 0.471994 0.272542 -0.916763
H72   H     H_    0.763050 0.467730 0.191562 0.265765
H73   H     H_    0.689441 0.416966 0.276403 0.247745
H74   H     H_    0.688769 0.524621 0.257843 0.218745
O17   O     O_3   0.121308 0.645056 0.599509 -0.605580
C63   C     C_3   0.124121 0.703711 0.506061 0.100250
H75   H     H_    0.077871 0.692279 0.436828 0.139956
H76   H     H_    0.179337 0.705079 0.456798 0.137364
C64   C     C_3   0.113650 0.786065 0.564427 -0.853131
H77   H     H_    0.158909 0.798146 0.634901 0.252611
H78   H     H_    0.116593 0.832350 0.491592 0.212196
H79   H     H_    0.057884 0.789792 0.609686 0.259891
O18   O     O_3   0.102276 0.388516 0.391942 -0.615125
C65   C     C_3   0.098302 0.404938 0.263434 0.102050
H80   H     H_    0.150518 0.434526 0.227425 0.128128
H81   H     H_    0.049296 0.444282 0.244814 0.185572
C66   C     C_3   0.087090 0.326845 0.191028 -0.842101
H82   H     H_    0.037264 0.293380 0.225723 0.262399
H83   H     H_    0.078089 0.339600 0.091046 0.213100
H84   H     H_    0.137991 0.289083 0.201398 0.244335

loop_
_geom_bond_atom_site_label_1
_geom_bond_atom_site_label_2
_geom_bond_distance
_ccdc_geom_bond_type
C22   O18   1.383933 S    
C63   H76   1.117121 S    
O18   C65   1.415752 S    
C44   H26   1.109461 S    
C42   H19   1.110571 S    
C42   H18   1.104097 S    
C5    C51   1.552786 S    
C20   C26   1.417785 S    
C19   C20   1.189923 T    
C6    C52   1.565317 S    
C64   H79   1.107460 S    
C57   C58   1.518865 S    
C44   H24   1.107591 S    
C61   H69   1.108387 S    
C23   C25   1.421875 A    
C43   H21   1.110337 S    
C9    C12   1.522541 S    
Zn1   O7    2.034330 S    
C58   H62   1.110343 S    
O12   C47   1.412064 S    
C14   O16   1.388196 S    
C23   C43   1.512809 S    
C13   C15   1.404387 A    
C22   C24   1.399808 A    
C22   C26   1.396068 A    
O10   C41   1.419985 S    
C61   H70   1.110354 S    
C8    O14   1.421325 S    
C60   H66   1.110443 S    
O4    C2    1.281703 A    
C15   C61   1.507126 S    
O7    C4    1.276089 A    
C45   H28   1.111841 S    
C35   C37   1.469690 S    
C36   C38   1.470754 S    
C48   H34   1.110196 S    
C5    C7    1.571748 S    
C18   C19   1.418315 S    
C66   H82   1.109036 S    
C21   O17   1.384283 S    
C21   C26   1.395475 A    
O5    C3    1.275026 A    
C53   H49   1.113753 S    
C54   H53   1.104449 S    
C39   H12   1.106097 S    
C28   O12   1.397343 S    
C63   C64   1.520653 S    
C64   H78   1.110073 S    
C52   H46   1.107628 S    
O17   C63   1.414943 S    
C32   H10   1.081790 S    
C40   H14   1.110549 S    
H4    C9    1.109613 S    
N2    C32   1.361498 A    
C15   C17   1.408908 A    
C41   H16   1.109886 S    
C4    C11   1.472140 S    
C46   H30   1.110250 S    
C31   C33   1.413816 A    
C7    O13   1.422204 S    
C56   H58   1.106285 S    
C29   H7    1.080102 S    
C58   H61   1.110079 S    
C37   C38   1.220590 T    
C49   H38   1.110367 S    
C65   H81   1.111616 S    
C66   H83   1.110408 S    
C59   C60   1.532365 S    
C65   H80   1.117964 S    
C47   H32   1.112030 S    
O3    Zn1   2.025278 S    
C60   H67   1.110269 S    
C28   C30   1.426561 A    
C30   N2    1.361689 A    
C64   H77   1.110563 S    
C43   H22   1.108294 S    
C6    C10   1.620467 S    
C50   H42   1.110476 S    
C30   H8    1.071943 S    
C14   C18   1.400690 A    
C27   O11   1.381372 S    
C49   H37   1.110806 S    
Zn1   N1    1.978674 S    
O3    C2    1.269455 A    
C48   H35   1.110594 S    
C51   H45   1.110697 S    
C28   C36   1.410158 A    
C45   H27   1.116932 S    
C5    C10   1.632808 S    
C57   H60   1.116860 S    
C55   C56   1.520650 S    
N1    C31   1.363923 A    
C9    C10   1.560834 S    
O11   C45   1.411679 S    
C13   C18   1.399881 A    
C45   C46   1.520093 S    
O1    C1    1.284686 A    
C53   C54   1.521717 S    
C7    C11   1.574547 S    
C63   H75   1.112494 S    
C3    C17   1.450242 S    
C39   H11   1.104233 S    
O15   C57   1.417568 S    
C50   H41   1.110473 S    
C29   N1    1.363579 A    
Zn2   O8    2.025174 S    
C40   H15   1.106784 S    
C41   C42   1.519657 S    
C13   O15   1.386839 S    
C5    O9    1.446354 S    
H5    C12   1.109321 S    
C56   H57   1.110449 S    
C46   H31   1.110306 S    
C47   H33   1.109863 S    
C27   C29   1.411766 A    
C54   H51   1.107374 S    
Zn2   O6    1.990521 S    
C24   C25   1.420213 A    
O8    C4    1.279470 A    
C49   H39   1.110520 S    
C33   C35   1.412461 A    
O14   C55   1.416999 S    
C66   H84   1.110561 S    
C59   H65   1.110112 S    
C61   H71   1.109290 S    
C62   H73   1.110216 S    
Zn2   N2    1.978684 S    
C60   H68   1.105779 S    
C56   H56   1.110197 S    
C6    O10   1.445088 S    
C43   H23   1.106402 S    
Zn1   O5    1.999499 S    
H3    C9    1.090280 S    
C1    C25   1.477118 S    
C55   H55   1.112112 S    
C48   H36   1.110777 S    
C39   C40   1.522697 S    
O1    Zn1   1.990549 S    
C24   C44   1.507562 S    
O2    Zn2   1.999509 S    
C8    C11   1.584826 S    
H6    C12   1.113655 S    
O6    C3    1.276654 A    
C44   H25   1.100981 S    
O4    Zn2   2.034435 S    
C57   H59   1.110585 S    
C50   H40   1.110795 S    
C33   C49   1.504882 S    
C47   C48   1.520314 S    
C16   C17   1.406923 A    
C52   H48   1.107666 S    
C51   H44   1.103574 S    
O2    C1    1.284785 A    
C62   H72   1.109505 S    
C21   C23   1.401596 A    
O16   C59   1.421253 S    
C14   C16   1.402161 A    
C2    C10   1.474380 S    
C55   H54   1.111079 S    
C58   H63   1.110271 S    
C62   H74   1.107253 S    
C7    H1    1.118792 S    
C34   C36   1.413423 A    
C8    H2    1.113376 S    
O9    C39   1.418313 S    
C53   H50   1.112117 S    
C34   C50   1.505562 S    
C54   H52   1.110358 S    
C27   C35   1.407779 A    
C16   C62   1.505882 S    
C42   H20   1.110851 S    
C65   C66   1.521842 S    
C6    C8    1.573543 S    
C40   H13   1.107172 S    
C51   H43   1.112391 S    
C11   C12   1.546689 S    
C59   H64   1.109549 S    
C41   H17   1.109001 S    
C31   H9    1.080978 S    
C46   H29   1.110741 S    
O13   C53   1.415682 S    
C32   C34   1.411090 A    
C52   H47   1.100053 S    
