data_mof_unit_9451.cif
_audit_creation_date              2012-12-11T15:17:37-0500
_audit_creation_method            fapswitch 2.2
_symmetry_space_group_name_H-M    P1
_symmetry_Int_Tables_number       1
_space_group_crystal_system       triclinic
_cell_length_a                    15.669534
_cell_length_b                    15.669524
_cell_length_c                    34.490077
_cell_angle_alpha                 90.006981
_cell_angle_beta                  90.007234
_cell_angle_gamma                 119.462275
_cell_volume                      7373.3435626

loop_
_atom_site_label
_atom_site_type_symbol
_atom_type_description
_atom_site_fract_x
_atom_site_fract_y
_atom_site_fract_z
_atom_type_partial_charge
C1    C     C_R   0.578794 0.441202 0.555194 0.558731
C2    C     C_R   0.558723 0.136866 0.554975 0.561470
C3    C     C_R   0.862685 0.421315 0.555150 0.572339
C4    C     C_R   0.441202 0.578794 0.055195 0.558730
C5    C     C_R   0.136866 0.558723 0.054975 0.561473
C6    C     C_R   0.421315 0.862685 0.055150 0.572340
C7    C     C_R   0.967002 0.496783 0.714446 0.374067
C8    C     C_R   0.505191 0.470211 0.714804 0.372404
C9    C     C_R   0.475884 0.943481 0.701941 0.371672
C10   C     C_R   0.496776 0.966993 0.214448 0.374059
C11   C     C_R   0.470209 0.505193 0.214805 0.372405
C12   C     C_R   0.943493 0.475897 0.201943 0.371675
C13   C     C_R   0.006884 0.440208 0.852660 -0.125701
C14   C     C_R   0.561845 0.568040 0.852702 -0.108533
C15   C     C_R   0.348496 0.847854 0.836516 -0.119019
C16   C     C_R   0.440204 0.006877 0.352661 -0.125699
C17   C     C_R   0.568036 0.561848 0.352703 -0.108534
C18   C     C_R   0.847870 0.348509 0.336516 -0.119018
C19   C     C_R   0.044243 0.450691 0.889969 -0.117986
C20   C     C_R   0.550417 0.595019 0.889887 -0.109431
C21   C     C_R   0.334803 0.830569 0.876101 -0.118242
C22   C     C_R   0.450689 0.044240 0.389970 -0.117988
C23   C     C_R   0.595017 0.550419 0.389888 -0.109431
C24   C     C_R   0.830581 0.334812 0.376102 -0.118238
C25   C     C_R   0.065201 0.614303 0.893314 -0.139463
C26   C     C_R   0.389558 0.451086 0.893829 -0.127204
C27   C     C_R   0.489452 0.831448 0.880369 -0.125395
C28   C     C_R   0.614300 0.065198 0.393315 -0.139460
C29   C     C_R   0.451086 0.389557 0.393829 -0.127204
C30   C     C_R   0.831444 0.489453 0.380370 -0.125397
C31   C     C_R   0.026938 0.604603 0.855837 0.045752
C32   C     C_R   0.400341 0.422356 0.856490 0.046761
C33   C     C_R   0.505465 0.850990 0.840516 0.052508
C34   C     C_R   0.604598 0.026931 0.355839 0.045757
C35   C     C_R   0.422355 0.400341 0.356490 0.046761
C36   C     C_R   0.850989 0.505469 0.340517 0.052501
C37   C     C_R   0.002588 0.518189 0.834531 0.012278
C38   C     C_R   0.485532 0.485013 0.834925 0.009037
C39   C     C_R   0.433753 0.859697 0.818329 0.006338
C40   C     C_R   0.518184 0.002580 0.334533 0.012278
C41   C     C_R   0.485011 0.485534 0.334926 0.009038
C42   C     C_R   0.859706 0.433763 0.318330 0.006338
C43   C     C_R   0.077701 0.539352 0.909870 -0.006075
C44   C     C_R   0.462450 0.539178 0.910002 -0.011038
C45   C     C_R   0.406288 0.824933 0.898566 -0.013433
C46   C     C_R   0.539351 0.077700 0.409871 -0.006075
C47   C     C_R   0.539177 0.462451 0.410002 -0.011038
C48   C     C_R   0.824936 0.406291 0.398566 -0.013435
C49   C     C_R   0.578101 0.442089 0.445442 0.546434
C50   C     C_R   0.558254 0.135893 0.445441 0.549254
C51   C     C_R   0.809400 0.391980 0.440696 0.565287
C52   C     C_R   0.442089 0.578101 0.945442 0.546436
C53   C     C_R   0.135893 0.558254 0.945441 0.549254
C54   C     C_R   0.391979 0.809399 0.940696 0.565290
C55   C     C_R   0.911838 0.453089 0.592946 -0.004974
C56   C     C_R   0.547335 0.458879 0.593098 -0.005130
C57   C     C_R   0.534854 0.074346 0.589605 -0.005153
C58   C     C_R   0.453089 0.911836 0.092946 -0.004972
C59   C     C_R   0.458879 0.547335 0.093098 -0.005131
C60   C     C_R   0.074346 0.534852 0.089605 -0.005154
C61   C     C_R   0.930854 0.389200 0.614954 -0.119767
C62   C     C_R   0.612028 0.540126 0.615249 -0.119332
C63   C     C_R   0.441919 0.035610 0.606534 -0.118408
C64   C     C_R   0.389204 0.930859 0.114953 -0.119768
C65   C     C_R   0.540125 0.612029 0.115250 -0.119328
C66   C     C_R   0.035639 0.441928 0.106541 -0.118408
C67   C     C_R   0.951899 0.406644 0.654259 -0.127099
C68   C     C_R   0.595136 0.543679 0.654607 -0.122855
C69   C     C_R   0.423332 0.989467 0.642366 -0.125506
C70   C     C_R   0.406645 0.951901 0.154259 -0.127099
C71   C     C_R   0.543678 0.595138 0.154608 -0.122849
C72   C     C_R   0.989499 0.423345 0.142373 -0.125505
C73   C     C_R   0.954395 0.488084 0.672284 0.013508
C74   C     C_R   0.513315 0.466447 0.672580 0.013350
C75   C     C_R   0.497032 0.981048 0.662123 0.013013
C76   C     C_R   0.488079 0.954386 0.172286 0.013511
C77   C     C_R   0.466446 0.513317 0.172581 0.013351
C78   C     C_R   0.981053 0.497037 0.162124 0.013011
C79   C     C_R   0.941125 0.556452 0.649895 0.051335
C80   C     C_R   0.444004 0.386756 0.650043 0.051585
C81   C     C_R   0.590310 0.016181 0.644644 0.052979
C82   C     C_R   0.556442 0.941107 0.149897 0.051337
C83   C     C_R   0.386755 0.444006 0.150044 0.051584
C84   C     C_R   0.016153 0.590301 0.144637 0.052981
C85   C     C_R   0.922161 0.538955 0.610126 -0.126632
C86   C     C_R   0.461154 0.385211 0.610219 -0.124437
C87   C     C_R   0.607368 0.061106 0.608064 -0.126955
C88   C     C_R   0.538949 0.922147 0.110128 -0.126631
C89   C     C_R   0.385210 0.461155 0.110220 -0.124439
C90   C     C_R   0.061078 0.607356 0.108057 -0.126955
C91   C     C_R   0.986051 0.511888 0.792452 0.371916
C92   C     C_R   0.491403 0.474581 0.792857 0.372267
C93   C     C_R   0.446264 0.885858 0.776973 0.366076
C94   C     C_R   0.511882 0.986040 0.292453 0.371907
C95   C     C_R   0.474579 0.491405 0.292857 0.372266
C96   C     C_R   0.885871 0.446278 0.276975 0.366082
Cr1   Cr    Cr6+3 0.522350 0.263930 0.500020 1.039023
Cr2   Cr    Cr6+3 0.736070 0.258420 0.500020 1.039895
Cr3   Cr    Cr6+3 0.741580 0.477650 0.500020 1.042014
Cr4   Cr    Cr6+3 0.263930 0.522350 0.000020 1.039023
Cr5   Cr    Cr6+3 0.258420 0.736070 0.000020 1.039896
Cr6   Cr    Cr6+3 0.477650 0.741580 0.000020 1.042015
H1    H     H_    0.923518 0.322540 0.602409 0.157038
H2    H     H_    0.678990 0.598064 0.602779 0.157702
H3    H     H_    0.384453 0.044225 0.592790 0.156496
H4    H     H_    0.322548 0.923532 0.102407 0.157033
H5    H     H_    0.598063 0.678991 0.102779 0.157705
H6    H     H_    0.044277 0.384469 0.092803 0.156501
H7    H     H_    0.906720 0.588196 0.593271 0.158914
H8    H     H_    0.411254 0.321876 0.593244 0.159840
H9    H     H_    0.679617 0.091756 0.595177 0.158609
H10   H     H_    0.588187 0.906700 0.093274 0.158911
H11   H     H_    0.321876 0.411255 0.093244 0.159839
H12   H     H_    0.091704 0.679597 0.095164 0.158609
H13   H     H_    0.052277 0.391443 0.902288 0.160054
H14   H     H_    0.608178 0.662809 0.901900 0.169058
H15   H     H_    0.268450 0.822575 0.889213 0.167998
H16   H     H_    0.391441 0.052275 0.402289 0.160054
H17   H     H_    0.662805 0.608180 0.401901 0.169061
H18   H     H_    0.822592 0.268460 0.389213 0.168003
H19   H     H_    0.962937 0.354366 0.671019 0.155754
H20   H     H_    0.648137 0.605592 0.671431 0.159134
H21   H     H_    0.351676 0.962808 0.655359 0.155120
H22   H     H_    0.354370 0.962946 0.171018 0.155753
H23   H     H_    0.605591 0.648139 0.171431 0.159135
H24   H     H_    0.962865 0.351698 0.155372 0.155122
H25   H     H_    0.987919 0.373332 0.836937 0.158420
H26   H     H_    0.627810 0.616316 0.836759 0.172212
H27   H     H_    0.292357 0.853027 0.820002 0.171278
H28   H     H_    0.373326 0.987912 0.336939 0.158425
H29   H     H_    0.616311 0.627814 0.336760 0.172210
H30   H     H_    0.853051 0.292374 0.320002 0.171276
H31   H     H_    0.087987 0.681724 0.909244 0.163670
H32   H     H_    0.322857 0.406022 0.909945 0.173473
H33   H     H_    0.544115 0.825358 0.897567 0.169086
H34   H     H_    0.681722 0.087986 0.409244 0.163664
H35   H     H_    0.406023 0.322856 0.409945 0.173473
H36   H     H_    0.825347 0.544112 0.397567 0.169098
N1    N     N_R   0.922655 0.425171 0.775693 -0.197436
N2    N     N_R   0.578171 0.497765 0.775855 -0.190828
N3    N     N_R   0.421604 0.952413 0.763882 -0.192756
N4    N     N_R   0.425158 0.922658 0.275694 -0.197442
N5    N     N_R   0.497761 0.578172 0.275855 -0.190826
N6    N     N_R   0.952449 0.421647 0.263887 -0.192753
N7    N     N_R   0.913065 0.417860 0.737352 -0.190247
N8    N     N_R   0.584823 0.495239 0.737487 -0.182858
N9    N     N_R   0.436139 0.980696 0.727058 -0.186689
N10   N     N_R   0.417847 0.913068 0.237353 -0.190247
N11   N     N_R   0.495235 0.584825 0.237488 -0.182854
N12   N     N_R   0.980732 0.436182 0.227063 -0.186693
N13   N     N_R   0.031934 0.582989 0.731091 -0.170044
N14   N     N_R   0.418970 0.449232 0.731716 -0.167713
N15   N     N_R   0.497588 0.874302 0.714586 -0.168124
N16   N     N_R   0.582989 0.031911 0.231093 -0.170045
N17   N     N_R   0.449232 0.418972 0.231716 -0.167712
N18   N     N_R   0.874293 0.497573 0.214584 -0.168122
N19   N     N_R   0.041561 0.590228 0.769440 -0.175041
N20   N     N_R   0.412344 0.451730 0.770087 -0.169330
N21   N     N_R   0.482776 0.845770 0.751530 -0.164076
N22   N     N_R   0.590228 0.041537 0.269442 -0.175035
N23   N     N_R   0.451730 0.412346 0.270087 -0.169331
N24   N     N_R   0.845761 0.482762 0.251529 -0.164078
O1    O     O_R   0.498680 0.159540 0.541860 -0.509954
O2    O     O_R   0.840460 0.339140 0.541860 -0.504929
O3    O     O_R   0.660860 0.501320 0.541860 -0.510659
O4    O     O_R   0.159540 0.498680 0.041860 -0.509957
O5    O     O_R   0.339140 0.840460 0.041860 -0.504927
O6    O     O_R   0.501320 0.660860 0.041860 -0.510659
O7    O     O_R   0.532760 0.358060 0.540030 -0.501098
O8    O     O_R   0.641940 0.174700 0.540030 -0.503069
O9    O     O_R   0.825300 0.467240 0.540030 -0.498289
O10   O     O_R   0.358060 0.532760 0.040030 -0.501099
O11   O     O_R   0.174700 0.641940 0.040030 -0.503068
O12   O     O_R   0.467240 0.825300 0.040030 -0.498290
O13   O     O_R   0.498590 0.161190 0.456930 -0.509088
O14   O     O_R   0.838810 0.337400 0.456930 -0.498197
O15   O     O_R   0.662600 0.501410 0.456930 -0.526272
O16   O     O_R   0.161190 0.498590 0.956930 -0.509086
O17   O     O_R   0.337400 0.838810 0.956930 -0.498194
O18   O     O_R   0.501410 0.662600 0.956930 -0.526271
O19   O     O_R   0.532680 0.359580 0.461300 -0.503097
O20   O     O_R   0.640420 0.173100 0.461300 -0.525435
O21   O     O_R   0.826900 0.467320 0.461300 -0.491409
O22   O     O_R   0.359580 0.532680 0.961300 -0.503097
O23   O     O_R   0.173100 0.640420 0.961300 -0.525437
O24   O     O_R   0.467320 0.826900 0.961300 -0.491410
O25   O     O_3   0.666667 0.333333 0.499990 -0.277834
O26   O     O_3   0.333333 0.666667 0.999990 -0.277835
C97   C     C_2   0.936185 0.640633 0.667320 0.584366
O27   O     O_2   0.967363 0.717403 0.649253 -0.502007
O28   O     O_R   0.892226 0.631236 0.703527 -0.641316
H37   H     H_    0.892417 0.693345 0.711911 0.363333
C98   C     C_2   0.358967 0.299570 0.667311 0.589758
O29   O     O_2   0.281799 0.257129 0.649364 -0.498949
O30   O     O_R   0.367908 0.263185 0.703203 -0.637368
H38   H     H_    0.305115 0.202972 0.711537 0.366131
C99   C     C_2   0.673857 0.015640 0.664780 0.587840
O31   O     O_2   0.733714 0.004065 0.646076 -0.501976
O32   O     O_R   0.686871 0.032398 0.704722 -0.631798
H39   H     H_    0.746971 0.031033 0.714800 0.367853
C100  C     C_2   0.640613 0.936150 0.167324 0.584366
O33   O     O_2   0.717388 0.967331 0.149261 -0.502000
O34   O     O_R   0.631200 0.892173 0.203529 -0.641320
H40   H     H_    0.693303 0.892353 0.211915 0.363329
C101  C     C_2   0.299568 0.358969 0.167311 0.589751
O35   O     O_2   0.257125 0.281802 0.149365 -0.498954
O36   O     O_R   0.263185 0.367911 0.203204 -0.637371
H41   H     H_    0.202971 0.305118 0.211538 0.366129
C102  C     C_2   0.015578 0.673840 0.164765 0.587839
O37   O     O_2   0.003970 0.733668 0.146054 -0.501974
O38   O     O_R   0.032337 0.686880 0.204706 -0.631804
H42   H     H_    0.030943 0.746969 0.214778 0.367850
C103  C     C_2   0.013369 0.685512 0.840174 0.587173
O39   O     O_2   0.948938 0.668462 0.816425 -0.462675
O40   O     O_R   0.072599 0.781287 0.853565 -0.717721
H43   H     H_    0.056048 0.829829 0.840994 0.356083
C104  C     C_2   0.321870 0.327118 0.841209 0.596948
O41   O     O_2   0.340964 0.281747 0.817091 -0.457923
O42   O     O_R   0.226195 0.287586 0.855376 -0.702354
H44   H     H_    0.179527 0.222204 0.843047 0.354245
C105  C     C_2   0.600296 0.867939 0.824291 0.594432
O43   O     O_2   0.643187 0.931200 0.799763 -0.456082
O44   O     O_R   0.642940 0.814055 0.838520 -0.722253
H45   H     H_    0.707903 0.832518 0.825635 0.351349
C106  C     C_2   0.685505 0.013359 0.340175 0.587178
O45   O     O_2   0.668450 0.948913 0.316433 -0.462680
O46   O     O_R   0.781284 0.072605 0.353560 -0.717720
H46   H     H_    0.829825 0.056050 0.340990 0.356082
C107  C     C_2   0.327118 0.321869 0.341208 0.596947
O47   O     O_2   0.281745 0.340963 0.317091 -0.457924
O48   O     O_R   0.287589 0.226193 0.355374 -0.702353
H47   H     H_    0.222208 0.179524 0.343046 0.354245
C108  C     C_2   0.867927 0.600298 0.324291 0.594426
O49   O     O_2   0.931173 0.643183 0.299757 -0.456077
O50   O     O_R   0.814053 0.642946 0.338527 -0.722259
H48   H     H_    0.832508 0.707906 0.325641 0.351349

loop_
_geom_bond_atom_site_label_1
_geom_bond_atom_site_label_2
_ccdc_geom_bond_type
C25   C31   A    
O34   H40   S    
C95   N5    A    
C30   H36   S    
C7    N7    A    
C17   H29   S    
Cr6   O18   S    
C100  O33   D    
C6    C58   S    
C18   H30   S    
O44   H45   S    
C71   C77   A    
Cr4   O4    S    
Cr4   O16   S    
C53   O16   A    
C25   C43   A    
Cr3   O25   S    
C2    C57   S    
C26   C44   A    
C7    C73   S    
C101  O35   D    
C27   C33   A    
C90   H12   S    
C26   C32   A    
C80   C98   S    
C28   C46   A    
C16   C22   A    
C17   C23   A    
C29   C47   A    
N15   N21   A    
C34   C40   A    
N13   N19   A    
C30   C48   A    
C8    N14   A    
C1    C56   S    
Cr3   O15   S    
C51   O21   A    
C18   C42   A    
C23   H17   S    
Cr3   O9    S    
C77   C83   A    
C68   C74   A    
C38   C92   S    
C14   H26   S    
C54   O17   A    
C99   O32   S    
C59   C89   A    
C93   N21   A    
C53   O23   A    
C39   C93   S    
C92   N20   A    
C80   C86   A    
C11   C77   S    
C102  O38   S    
C33   C39   A    
C36   C42   A    
C43   C53   S    
C48   C51   S    
C66   C72   A    
C63   C69   A    
C19   C43   A    
Cr1   O1    S    
Cr2   O25   S    
C12   C78   S    
N5    N11   A    
C94   N22   A    
O50   H48   S    
C57   C87   A    
C67   C73   A    
C32   C38   A    
C63   H3    S    
Cr5   O26   S    
C25   H31   S    
C108  O49   D    
C13   C37   A    
C32   C104  S    
N18   N24   A    
C11   N17   A    
C79   C97   S    
C66   H6    S    
C44   C52   S    
C103  O40   S    
C60   C66   A    
O32   H39   S    
C74   C80   A    
C100  O34   S    
C10   N16   A    
C50   O20   A    
C84   C90   A    
C12   N18   A    
C21   C45   A    
Cr5   O23   S    
C67   H19   S    
C20   C44   A    
Cr4   O26   S    
C11   N11   A    
C46   C50   S    
C57   C63   A    
C85   H7    S    
C49   O15   A    
C101  O36   S    
C58   C64   A    
C83   C89   A    
C102  O37   D    
C89   H11   S    
C24   H18   S    
C23   C47   A    
Cr5   O11   S    
C37   C91   S    
O36   H41   S    
C94   N4    A    
C14   C20   A    
C34   C106  S    
C18   C24   A    
C47   C49   S    
C68   H20   S    
Cr1   O13   S    
C20   H14   S    
C87   H9    S    
C13   C19   A    
C84   C102  S    
C75   C81   A    
C6    O12   A    
C98   O30   S    
C36   C108  S    
C103  O39   D    
N6    N12   A    
C9    N9    A    
C62   H2    S    
Cr6   O26   S    
C4    O6    A    
C72   H24   S    
C50   O13   A    
C35   C107  S    
C24   C48   A    
C55   C85   A    
O40   H43   S    
C52   O18   A    
O38   H42   S    
N16   N22   A    
C107  O47   D    
C26   H32   S    
C13   H25   S    
C12   N12   A    
Cr5   O17   S    
C96   N6    A    
C105  O43   D    
Cr2   O14   S    
C61   C67   A    
C56   C86   A    
O46   H46   S    
C15   H27   S    
C19   H13   S    
C8    C74   S    
C106  O45   D    
C73   C79   A    
C97   O27   D    
N17   N23   A    
Cr6   O24   S    
C5    O4    A    
C64   H4    S    
C108  O50   S    
N4    N10   A    
C15   C39   A    
C81   C87   A    
C35   C41   A    
C3    O2    A    
C2    O8    A    
N14   N20   A    
C91   N1    A    
C22   C46   A    
C16   C40   A    
C45   C54   S    
C64   C70   A    
C3    O9    A    
C70   H22   S    
C70   C76   A    
C49   O19   A    
Cr6   O12   S    
C5    O11   A    
C61   H1    S    
C76   C82   A    
C14   C38   A    
C92   N2    A    
C79   C85   A    
C93   N3    A    
Cr4   O10   S    
O28   H37   S    
O42   H44   S    
C22   H16   S    
C6    O5    A    
N1    N7    A    
Cr6   O6    S    
C4    O10   A    
C5    C60   S    
C86   H8    S    
C1    O3    A    
C28   H34   S    
C10   C76   S    
C8    N8    A    
N2    N8    A    
C52   O22   A    
C40   C94   S    
C99   O31   D    
C58   C88   A    
C2    O1    A    
C82   C100  S    
Cr2   O2    S    
Cr1   O19   S    
C31   C103  S    
C60   C90   A    
Cr2   O20   S    
C104  O42   S    
C29   H35   S    
C29   C35   A    
C3    C55   S    
C30   C36   A    
C42   C96   S    
C27   H33   S    
C95   N23   A    
C104  O41   D    
Cr1   O7    S    
C105  O44   S    
C65   C71   A    
C59   C65   A    
C88   H10   S    
C81   C99   S    
C83   C101  S    
C27   C45   A    
C41   C95   S    
C82   C88   A    
C55   C61   A    
C4    C59   S    
C1    O7    A    
C106  O46   S    
C96   N24   A    
C69   C75   A    
C56   C62   A    
C62   C68   A    
C28   C34   A    
C51   O14   A    
Cr4   O22   S    
C17   C41   A    
C78   C84   A    
C91   N19   A    
C21   H15   S    
N3    N9    A    
C9    N15   A    
O30   H38   S    
Cr2   O8    S    
C16   H28   S    
C31   C37   A    
C15   C21   A    
C7    N13   A    
C107  O48   S    
C98   O29   D    
C54   O24   A    
C72   C78   A    
O48   H47   S    
C69   H21   S    
C71   H23   S    
Cr3   O21   S    
C9    C75   S    
C97   O28   S    
Cr1   O25   S    
C65   H5    S    
Cr5   O5    S    
C10   N10   A    
Cr3   O3    S    
C33   C105  S    
