data_mof_unit_56464.cif
_audit_creation_date              2012-12-11T20:37:10-0500
_audit_creation_method            fapswitch 2.2
_symmetry_space_group_name_H-M    P1
_symmetry_Int_Tables_number       1
_space_group_crystal_system       triclinic
_cell_length_a                    8.545555
_cell_length_b                    18.97624
_cell_length_c                    22.90553
_cell_angle_alpha                 98.081447
_cell_angle_beta                  88.643607
_cell_angle_gamma                 94.875673
_cell_volume                      3663.96506551

loop_
_atom_site_label
_atom_site_type_symbol
_atom_type_description
_atom_site_fract_x
_atom_site_fract_y
_atom_site_fract_z
_atom_type_partial_charge
Ba1   Ba    Ba6+2 0.849480 0.533290 0.473010 0.107111
Ba2   Ba    Ba6+2 0.340340 0.466770 0.527000 1.858818
C1    C     C_3   0.598224 0.780401 0.302154 0.551125
C2    C     C_3   0.559820 0.702213 0.312475 0.707239
C3    C     C_3   0.539326 0.358679 0.340977 0.631611
C4    C     C_3   0.635929 0.351417 0.283689 0.094631
C5    C     C_3   0.109601 0.302012 0.685265 0.030404
C6    C     C_3   0.153406 0.271159 0.742009 -0.076546
C7    C     C_3   0.562917 0.268800 0.662698 0.130805
C8    C     C_3   0.595274 0.207677 0.699755 0.180664
C9    C     C_R   0.346701 0.509509 0.331597 -0.189680
C10   C     C_R   0.171053 0.556865 0.935540 0.020163
C11   C     C_R   0.119477 0.557144 0.876464 0.603278
C12   C     C_3   0.110513 0.726186 0.324047 0.687761
C13   C     C_R   0.862520 0.516202 0.902702 0.707906
C14   C     C_R   0.911552 0.504618 0.958575 -0.294597
C15   C     C_R   0.066559 0.526582 0.975607 0.089038
C16   C     C_R   0.320935 0.587489 0.957003 0.492473
C17   C     C_R   0.356089 0.591378 0.017056 0.058989
C18   C     C_R   0.254317 0.558084 0.056036 -0.045069
C19   C     C_R   0.112609 0.523074 0.034376 -0.024544
C20   C     C_R   0.808545 0.472915 0.998108 0.429532
C21   C     C_R   0.861760 0.460534 0.052851 -0.196262
C22   C     C_R   0.014040 0.486477 0.071989 -0.026759
C23   C     C_3   0.101637 0.776808 0.277217 0.281965
C24   C     C_R   0.070133 0.476421 0.127701 0.722583
C25   C     C_R   0.289161 0.560873 0.116625 0.839411
C26   C     C_2   0.796158 0.462949 0.774538 -0.140922
C27   C     C_3   0.761604 0.447999 0.708217 0.185929
C28   C     C_1   0.995319 0.522976 0.689057 0.054240
C29   C     C_2   0.041101 0.527402 0.744724 -0.010955
C30   C     C_2   0.929252 0.506654 0.793820 0.137855
C31   C     C_R   0.411708 0.530994 0.232167 0.906907
C32   C     C_R   0.453920 0.534397 0.291486 -0.150448
C33   C     C_R   0.192968 0.487306 0.315611 0.298424
C34   C     C_3   0.206689 0.690013 0.608037 0.298411
C35   C     C_R   0.144570 0.491566 0.257874 -0.131193
C36   C     C_R   0.253178 0.512617 0.213661 0.302948
C37   C     C_2   0.854637 0.496373 0.671882 -0.450415
C38   C     C_2   0.417968 0.694666 0.471660 0.186726
C39   C     C_3   0.329469 0.742609 0.439098 -0.025375
C40   C     C_2   0.378197 0.820843 0.452953 -0.023539
C41   C     C_2   0.515273 0.843306 0.480321 -0.028731
C42   C     C_2   0.608464 0.788346 0.502757 0.174833
C43   C     C_1   0.544931 0.721107 0.502676 0.030071
C44   C     C_R   0.661111 0.063737 0.498224 0.281876
C45   C     C_3   0.203188 0.769883 0.633213 0.203490
C46   C     C_R   0.568952 0.921146 0.487044 0.362804
C47   C     C_R   0.613660 0.188740 0.479839 0.573228
C48   C     C_R   0.661114 0.263081 0.485690 -0.449739
C49   C     C_R   0.894504 0.243867 0.538675 0.015462
C50   C     C_R   0.847073 0.170641 0.533729 -0.079899
C51   C     C_R   0.706806 0.142310 0.504760 0.073316
C52   C     C_R   0.799936 0.289567 0.515807 -0.442323
C53   C     C_3   0.026636 0.305522 0.387777 0.271460
C54   C     C_3   0.072087 0.230134 0.363260 -0.138489
C55   C     C_3   0.691474 0.670004 0.665658 0.251555
C56   C     C_3   0.718926 0.728157 0.719466 -0.475673
H1    H     H_    0.529990 0.702523 0.359673 -0.067749
H2    H     H_    0.079146 0.783418 0.634610 0.225573
H3    H     H_    0.899435 0.303243 0.398826 0.183116
H4    H     H_    0.098369 0.325604 0.427338 0.077450
H5    H     H_    0.202807 0.230696 0.361784 0.131489
H6    H     H_    0.785648 0.776233 0.705999 0.187198
H7    H     H_    0.787541 0.708146 0.753438 0.324236
H8    H     H_    0.605473 0.744581 0.739277 0.214680
H9    H     H_    0.456580 0.678918 0.285568 -0.863345
H10   H     H_    0.577748 0.411505 0.365924 0.047762
H11   H     H_    0.598821 0.300644 0.255278 0.127265
H12   H     H_    0.619800 0.396755 0.259205 0.155305
H13   H     H_    0.762301 0.351190 0.293495 0.138261
H14   H     H_    0.194613 0.763349 0.243406 0.085641
H15   H     H_    0.274923 0.257809 0.735987 0.201855
H16   H     H_    0.675348 0.287583 0.643828 -0.023181
H17   H     H_    0.648694 0.233255 0.741819 0.147271
H18   H     H_    0.781262 0.433312 0.081171 0.379372
H19   H     H_    0.688663 0.454886 0.985709 0.156637
H20   H     H_    0.468300 0.617470 0.032416 0.273254
H21   H     H_    0.504717 0.543474 0.201746 -9.571069
H22   H     H_    0.166471 0.530946 0.751187 0.178208
H23   H     H_    0.021952 0.478397 0.249004 0.254614
H24   H     H_    0.385480 0.504977 0.375391 0.183100
H25   H     H_    0.237612 0.725208 0.332326 0.130644
H26   H     H_    0.802459 0.512130 0.633652 0.224879
H27   H     H_    0.307180 0.858248 0.436206 0.173626
H28   H     H_    0.922620 0.135402 0.550670 0.431801
H29   H     H_    0.327963 0.676387 0.597632 0.227951
H30   H     H_    0.134631 0.677485 0.567635 0.935471
N1    N     N_R   0.971746 0.525474 0.857751 -0.386770
N2    N     N_R   0.204086 0.516360 0.152206 -0.314704
N3    N     N_R   0.570300 0.031548 0.452606 -0.051269
N4    N     N_R   0.525143 0.962074 0.447162 -0.161422
N5    N     N_R   0.660676 0.953042 0.532638 -0.045594
N6    N     N_R   0.706433 0.022729 0.537934 -0.105236
O1    O     O_2   0.898140 0.461210 0.359840 -0.450359
O2    O     O_3   0.609572 0.699004 0.623425 -0.604180
O3    O     O_3   0.026895 0.750125 0.376245 -0.450048
O4    O     O_2   0.291560 0.538810 0.640200 -0.474442
O5    O     O_3   0.051160 0.538120 0.569110 -0.345825
O6    O     O_3   0.535440 0.410410 0.602240 -0.343360
O7    O     O_3   0.144526 0.652145 0.652420 -0.573668
O8    O     O_3   0.632100 0.415050 0.468960 -0.394514
O9    O     O_3   0.124670 0.374100 0.572690 -0.549808
O10   O     O_2   0.211504 0.245990 0.523743 -0.467272
O11   O     O_3   0.131705 0.249894 0.635440 -0.474232
O12   O     O_3   0.138540 0.461940 0.430900 -0.296315
O13   O     O_3   0.557600 0.585010 0.531050 -0.335347
O14   O     O_2   0.379790 0.327560 0.468300 -0.364844
O15   O     O_3   0.563469 0.301156 0.371370 -0.643535
O16   O     O_2   0.440951 0.461466 0.708818 -0.353610
O17   O     O_3   0.495565 0.326262 0.698558 -0.503272
O18   O     O_2   0.201870 0.589837 0.843594 -0.522887
O19   O     O_2   0.723427 0.521780 0.895275 -0.520502
O20   O     O_2   0.000837 0.430520 0.153106 -0.345216
O21   O     O_2   0.392412 0.604866 0.137525 -0.268213
O22   O     O_3   0.654260 0.589640 0.397760 -0.371848
O23   O     O_2   0.781626 0.535071 0.294473 -0.296291
O24   O     O_3   0.054647 0.348370 0.343155 -0.445634
O25   O     O_3   0.689144 0.661825 0.297812 -0.343812
O26   O     O_2   0.809910 0.672460 0.531740 -0.331073
O27   O     O_3   0.065030 0.625960 0.427320 -0.370747
O28   O     O_2   0.028992 0.752124 0.491688 -0.378427
P1    P     P_3+3 0.069200 0.440380 0.368230 0.740091
P2    P     P_3+3 0.634560 0.662100 0.548650 1.282306
P3    P     P_3+3 0.112292 0.718388 0.435410 0.982559
P4    P     P_3+3 0.120500 0.559680 0.631780 1.194564
P5    P     P_3+3 0.090621 0.279656 0.567920 1.430995
P6    P     P_3+3 0.644041 0.577756 0.320113 1.452111
P7    P     P_3+3 0.557945 0.326013 0.448167 1.169688
P8    P     P_3+3 0.561410 0.411323 0.678593 0.757409
O29   O     O_3   0.258344 0.783182 0.691398 -0.643991
H31   H     H_    0.367147 0.768385 0.690702 0.338833
C57   C     C_2   0.295070 0.818770 0.596888 0.531808
H32   H     H_    0.421672 0.819213 0.594961 0.085343
O30   O     O_2   0.229258 0.861059 0.572492 -0.485110
O31   O     O_3   0.010742 0.209117 0.306517 -0.546218
H33   H     H_    0.089337 0.226437 0.278059 0.473945
C58   C     C_2   0.008831 0.176332 0.401414 0.822839
H34   H     H_    0.883033 0.165866 0.406203 -0.004277
O32   O     O_2   0.097136 0.142239 0.425310 -0.501644
O33   O     O_3   0.836251 0.649070 0.644031 -0.772800
H35   H     H_    0.893778 0.692526 0.632545 0.405723
C59   C     C_2   0.594503 0.606585 0.682787 0.676226
H36   H     H_    0.570476 0.561062 0.649387 0.071690
O34   O     O_2   0.542865 0.605093 0.732865 -0.559429
O35   O     O_3   0.735832 0.808573 0.332420 -0.609576
H37   H     H_    0.713304 0.809808 0.375261 0.386770
O36   O     O_3   0.472413 0.819978 0.323715 -0.866630
H38   H     H_    0.507647 0.871374 0.324560 0.384869
O37   O     O_3   0.379884 0.357257 0.328020 -0.737544
H39   H     H_    0.349420 0.310275 0.304486 0.383932
C60   C     C_2   0.621398 0.786945 0.237402 0.779282
H40   H     H_    0.652133 0.839271 0.224446 0.135384
O38   O     O_2   0.606460 0.735036 0.199229 -0.280849
O39   O     O_3   0.208647 0.363426 0.679964 -0.510524
H41   H     H_    0.179156 0.401711 0.711357 0.300766
C61   C     C_2   0.944071 0.321588 0.688272 0.191550
H42   H     H_    0.901176 0.345819 0.652691 0.228018
O40   O     O_2   0.860540 0.313899 0.730873 -0.775258
C62   C     C_2   0.149355 0.324099 0.797909 0.340656
H43   H     H_    0.042185 0.347889 0.812916 0.161381
O41   O     O_2   0.267097 0.340144 0.827559 -0.368093
C63   C     C_2   0.054460 0.203438 0.750339 0.711139
H44   H     H_    0.958626 0.204540 0.782366 0.020567
O42   O     O_2   0.077687 0.147067 0.719908 -0.400938
C64   C     C_2   0.465503 0.243855 0.609137 0.544781
H45   H     H_    0.440411 0.282895 0.581486 0.082827
O43   O     O_2   0.421289 0.181164 0.594284 -0.662204
C65   C     C_2   0.714222 0.160283 0.668871 0.186396
H46   H     H_    0.826487 0.183982 0.655482 0.048104
O44   O     O_2   0.688271 0.095411 0.659316 -0.377916
C66   C     C_2   0.452603 0.162497 0.717525 0.346232
H47   H     H_    0.377403 0.130613 0.684726 0.216537
O45   O     O_2   0.423545 0.159096 0.769586 -0.372256
O46   O     O_3   0.049047 0.657073 0.301412 -0.605909
H48   H     H_    0.120995 0.639241 0.269081 0.333653
O47   O     O_3   0.435990 0.614644 0.921308 -0.555949
H49   H     H_    0.443430 0.579299 0.885374 0.415759
C67   C     C_2   0.714245 0.412933 0.811748 0.578919
H50   H     H_    0.780344 0.388373 0.842191 0.115459
O48   O     O_2   0.572184 0.400167 0.809999 -0.448370
O49   O     O_3   0.757791 0.806849 0.524323 -0.626271
H51   H     H_    0.805100 0.846827 0.504630 0.380642
O50   O     O_3   0.477391 0.159507 0.451303 -0.693233
H52   H     H_    0.424971 0.196017 0.434279 0.357012
O51   O     O_3   0.389396 0.622000 0.456997 -0.685275
H53   H     H_    0.335578 0.613424 0.418795 0.333064
C68   C     C_2   0.853781 0.365282 0.519987 0.763880
H54   H     H_    0.914896 0.386547 0.483762 -0.064943
O52   O     O_2   0.827844 0.405463 0.564448 -0.602862
O53   O     O_3   0.955311 0.765631 0.249756 -0.571749
H55   H     H_    0.967043 0.787015 0.212565 0.422362
C69   C     C_2   0.133829 0.854354 0.302400 0.401690
H56   H     H_    0.234037 0.885481 0.286411 0.195098
O54   O     O_2   0.047096 0.883276 0.339767 -0.464909

loop_
_geom_bond_atom_site_label_1
_geom_bond_atom_site_label_2
_ccdc_geom_bond_type
C7    H16   S    
C7    O17   S    
C4    H11   S    
C53   C54   S    
C28   P4    S    
C4    H12   S    
N5    N6    A    
C65   H46   S    
C17   C18   A    
O8    P7    S    
C21   H18   S    
Ba1   O5    S    
C24   O20   D    
C55   C56   S    
C29   H22   S    
C29   C30   S    
C34   H30   S    
C8    C65   S    
C10   C11   A    
C1    C60   S    
C61   H42   S    
C25   N2    Am   
C3    C4    S    
C12   H25   S    
C7    C64   S    
C63   O42   D    
C35   C36   A    
C22   C24   A    
C37   H26   S    
C16   C17   A    
C11   O18   D    
C28   C29   D    
O6    P8    S    
C38   O51   S    
Ba2   O8    S    
C8    C66   S    
C59   H36   S    
C53   H4    S    
Ba2   O13   S    
O50   H52   S    
C2    H1    S    
C34   C45   S    
C68   O52   D    
Ba1   Ba2   S    
C39   C40   S    
O49   H51   S    
C56   H7    S    
C45   H2    S    
C56   H8    S    
C63   H44   S    
C16   O47   S    
C14   C15   A    
C69   O54   D    
C55   O2    S    
O12   P1    S    
C46   N4    A    
C21   C22   A    
C5    O11   S    
C2    O25   S    
Ba1   O22   S    
C50   H28   S    
O9    P5    S    
C7    C8    S    
C69   H56   S    
Ba1   O12   S    
O25   P6    S    
C26   C67   S    
Ba2   O6    S    
C1    O36   S    
C9    H24   S    
C52   C68   S    
C45   C57   S    
C64   O43   D    
C65   O44   D    
C35   H23   S    
C38   C43   D    
O13   P2    S    
C3    H10   S    
C54   O31   S    
C66   O45   D    
C31   C32   A    
O5    P4    S    
C34   H29   S    
C56   H6    S    
C4    H13   S    
C46   N5    A    
O2    P2    S    
C49   C50   A    
C39   P3    S    
C26   C30   D    
O36   H38   S    
O3    P3    S    
C23   O53   S    
N3    N4    A    
C23   H14   S    
O11   P5    S    
C31   H21   S    
C44   N3    A    
Ba2   O12   S    
C15   C19   A    
C3    O37   S    
O53   H55   S    
C45   O29   S    
C68   H54   S    
Ba1   O26   S    
C62   O41   D    
C10   C15   A    
C17   H20   S    
C41   C42   S    
Ba1   P1    S    
O27   P3    S    
C12   O46   S    
C48   P7    S    
C13   N1    Am   
C47   O50   S    
C54   C58   S    
C8    H17   S    
O17   P8    S    
C30   N1    S    
C44   N6    A    
Ba1   O1    S    
C27   C37   S    
C13   O19   D    
O7    P4    S    
C54   H5    S    
C40   H27   S    
C48   C52   A    
C50   C51   A    
C18   C19   A    
O14   P7    D    
C58   O32   D    
Ba1   O13   S    
Ba2   P4    S    
C32   P6    S    
C38   C39   S    
C60   O38   D    
Ba2   O5    S    
C47   C48   A    
O15   P7    S    
C57   H32   S    
C40   C41   D    
C1    C2    S    
C6    C62   S    
C42   O49   S    
C23   C69   S    
C66   H47   S    
C33   C35   A    
C12   O3    S    
O35   H37   S    
C41   C46   S    
O1    P1    D    
C59   O34   D    
C26   C27   S    
C14   C20   A    
C11   N1    Am   
C20   C21   A    
C9    C32   A    
C42   C43   D    
C20   H19   S    
O31   H33   S    
C6    C63   S    
C2    H9    S    
C33   P1    S    
C5    C61   S    
C18   C25   A    
C24   N2    Am   
C36   N2    S    
C31   C36   A    
C55   O33   S    
C49   C52   A    
C49   P5    S    
C62   H43   S    
O28   P3    D    
C9    C33   A    
Ba1   P2    S    
O46   H48   S    
O33   H35   S    
C43   P2    S    
C64   H45   S    
O10   P5    D    
C3    O15   S    
Ba2   O9    S    
C47   C51   A    
C13   C14   A    
C53   H3    S    
C44   C51   S    
Ba2   O14   S    
C6    H15   S    
C28   C37   D    
O16   P8    D    
O24   P1    S    
C12   C23   S    
O23   P6    D    
Ba1   O27   S    
C5    C6    S    
C58   H34   S    
C67   H50   S    
C27   P8    S    
O26   P2    D    
O4    P4    D    
C5    O39   S    
C60   H40   S    
Ba2   O4    S    
C1    O35   S    
C61   O40   D    
O47   H49   S    
O22   P6    S    
C19   C22   A    
C10   C16   A    
O39   H41   S    
C57   O30   D    
O37   H39   S    
C34   O7    S    
O51   H53   S    
Ba1   O8    S    
O29   H31   S    
C55   C59   S    
C67   O48   D    
C53   O24   S    
C25   O21   D    
