data_mof_unit_49907.cif
_audit_creation_date              2013-03-05T15:53:04-0500
_audit_creation_method            fapswitch 2.2
_symmetry_space_group_name_H-M    P1
_symmetry_Int_Tables_number       1
_space_group_crystal_system       triclinic
_cell_length_a                    20.059635
_cell_length_b                    17.145095
_cell_length_c                    15.336866
_cell_angle_alpha                 89.962603
_cell_angle_beta                  52.271286
_cell_angle_gamma                 89.939467
_cell_volume                      4171.86449602

loop_
_atom_site_label
_atom_site_type_symbol
_atom_site_description
_atom_site_fract_x
_atom_site_fract_y
_atom_site_fract_z
_atom_type_partial_charge
C1    C     C_R   0.862126 0.688356 0.008485 0.282046
C2    C     C_R   0.133519 0.690101 0.997097 0.311047
C3    C     C_R   0.362065 0.188329 0.008566 0.282041
C4    C     C_R   0.633522 0.190098 0.997093 0.311032
N1    N     N_R   0.908660 0.628630 0.995840 -0.071546
N2    N     N_R   0.091340 0.628630 0.004160 -0.077152
N3    N     N_R   0.408660 0.128630 0.995840 -0.071518
N4    N     N_R   0.591340 0.128630 0.004160 -0.077152
C5    C     C_R   0.898385 0.302095 0.207748 -0.138527
C6    C     C_R   0.101581 0.302058 0.792419 -0.137309
C7    C     C_R   0.398384 0.802095 0.207750 -0.138522
C8    C     C_R   0.601583 0.802059 0.792418 -0.137320
H1    H     H_    0.904759 0.246360 0.170674 0.101309
H2    H     H_    0.095214 0.246343 0.829600 0.101001
H3    H     H_    0.404759 0.746360 0.170675 0.101309
H4    H     H_    0.595218 0.746343 0.829595 0.101004
N5    N     N_R   0.922310 0.368460 0.151950 -0.039321
N6    N     N_R   0.077690 0.368460 0.848050 -0.038916
N7    N     N_R   0.422310 0.868460 0.151950 -0.039321
N8    N     N_R   0.577690 0.868460 0.848050 -0.038915
C9    C     C_R   0.860498 0.390544 0.904273 -0.115795
C10   C     C_R   0.136906 0.389159 0.099001 -0.107461
C11   C     C_R   0.360500 0.890543 0.904271 -0.115804
C12   C     C_R   0.636933 0.889170 0.098968 -0.107494
H5    H     H_    0.852683 0.416985 0.847015 0.093040
H6    H     H_    0.143145 0.414940 0.158024 0.097834
H7    H     H_    0.352686 0.916980 0.847010 0.093038
H8    H     H_    0.643188 0.914953 0.157974 0.097858
N9    N     N_R   0.903470 0.421430 0.936420 -0.041183
N10   N     N_R   0.096530 0.421430 0.063580 -0.043333
N11   N     N_R   0.403470 0.921430 0.936420 -0.041184
N12   N     N_R   0.596530 0.921430 0.063580 -0.043336
C13   C     C_R   0.858680 0.577681 0.315699 -0.138146
C14   C     C_R   0.141548 0.577540 0.684410 -0.139634
C15   C     C_R   0.358679 0.077682 0.315702 -0.138129
C16   C     C_R   0.641548 0.077539 0.684411 -0.139633
H9    H     H_    0.844661 0.536244 0.377507 0.113188
H10   H     H_    0.155656 0.536126 0.622569 0.113914
H11   H     H_    0.344659 0.036245 0.377511 0.113182
H12   H     H_    0.655655 0.036125 0.622569 0.113914
N13   N     N_R   0.927500 0.575670 0.211370 -0.045407
N14   N     N_R   0.072500 0.575670 0.788630 -0.045187
N15   N     N_R   0.427500 0.075670 0.211370 -0.045405
N16   N     N_R   0.572500 0.075670 0.788630 -0.045186
C17   C     C_R   0.869747 0.301765 0.003516 -0.147185
C18   C     C_R   0.127841 0.300827 0.999510 -0.159872
C19   C     C_R   0.369747 0.801765 0.003517 -0.147187
C20   C     C_R   0.627865 0.800835 0.999477 -0.159919
H13   H     H_    0.872638 0.246920 0.036041 0.096296
H14   H     H_    0.123217 0.245910 0.968793 0.098121
H15   H     H_    0.372636 0.746921 0.036045 0.096301
H16   H     H_    0.623262 0.745919 0.968739 0.098146
N17   N     N_R   0.908660 0.365680 0.995820 -0.040009
N18   N     N_R   0.091340 0.365680 0.004180 -0.040476
N19   N     N_R   0.408660 0.865680 0.995820 -0.040007
N20   N     N_R   0.591340 0.865680 0.004180 -0.040475
C21   C     C_R   0.850627 0.671443 0.222256 -0.074281
C22   C     C_R   0.149705 0.670970 0.778091 -0.064561
C23   C     C_R   0.350630 0.171449 0.222262 -0.074325
C24   C     C_R   0.649705 0.170970 0.778091 -0.064594
H17   H     H_    0.829369 0.720169 0.201220 0.132812
H18   H     H_    0.171258 0.719095 0.799652 0.137037
H19   H     H_    0.329375 0.220183 0.201236 0.132861
H20   H     H_    0.671258 0.219097 0.799650 0.137039
N21   N     N_R   0.922310 0.631420 0.151980 -0.029944
N22   N     N_R   0.077690 0.631420 0.848020 -0.030309
N23   N     N_R   0.422310 0.131420 0.151980 -0.029949
N24   N     N_R   0.577690 0.131420 0.848020 -0.030311
C25   C     C_R   0.905806 0.393163 0.304708 -0.140907
C26   C     C_R   0.094121 0.393143 0.695383 -0.141742
C27   C     C_R   0.405805 0.893164 0.304708 -0.140900
C28   C     C_R   0.594122 0.893144 0.695382 -0.141742
H21   H     H_    0.916267 0.420074 0.359092 0.086281
H22   H     H_    0.083664 0.420106 0.640974 0.086084
H23   H     H_    0.416268 0.920075 0.359092 0.086282
H24   H     H_    0.583666 0.920107 0.640972 0.086086
N25   N     N_R   0.927500 0.426330 0.211360 -0.042249
N26   N     N_R   0.072500 0.426330 0.788640 -0.041917
N27   N     N_R   0.427500 0.926330 0.211360 -0.042250
N28   N     N_R   0.572500 0.926330 0.788640 -0.041917
C29   C     C_R   0.844973 0.591300 0.925334 -0.179224
C30   C     C_R   0.150587 0.594003 0.081509 -0.195118
C31   C     C_R   0.344910 0.091258 0.925431 -0.179185
C32   C     C_R   0.650591 0.093999 0.081501 -0.195125
H25   H     H_    0.828870 0.559639 0.879600 0.123942
H26   H     H_    0.165304 0.562967 0.129234 0.125938
H27   H     H_    0.328789 0.059585 0.879726 0.123948
H28   H     H_    0.665310 0.062962 0.129224 0.125931
N29   N     N_R   0.903470 0.570760 0.936440 -0.060708
N30   N     N_R   0.096530 0.570760 0.063560 -0.060976
N31   N     N_R   0.403470 0.070760 0.936440 -0.060707
N32   N     N_R   0.596530 0.070760 0.063560 -0.060975
C33   C     C_R   0.815588 0.663157 0.975725 0.054678
C34   C     C_R   0.176939 0.667350 0.035306 0.071151
C35   C     C_R   0.315485 0.163095 0.975877 0.054638
C36   C     C_R   0.676947 0.167343 0.035294 0.071167
C37   C     C_R   0.887454 0.315196 0.304326 0.081290
C38   C     C_R   0.112423 0.315137 0.695922 0.080606
C39   C     C_R   0.387453 0.815197 0.304329 0.081292
C40   C     C_R   0.612427 0.815139 0.695920 0.080605
C41   C     C_R   0.837784 0.316027 0.948138 0.096058
C42   C     C_R   0.157826 0.313899 0.057432 0.130517
C43   C     C_R   0.337786 0.816025 0.948138 0.096058
C44   C     C_R   0.657870 0.813917 0.057373 0.130557
C45   C     C_R   0.808583 0.637707 0.325898 0.037404
C46   C     C_R   0.191772 0.637330 0.674382 0.037709
C47   C     C_R   0.308583 0.137710 0.325903 0.037402
C48   C     C_R   0.691772 0.137329 0.674381 0.037715
Ni1   Ni    Ni4+2 0.000000 0.630300 0.000000 0.306202
Ni2   Ni    Ni4+2 0.500000 0.130300 0.000000 0.306206
Ni3   Ni    Ni4+2 0.000000 0.369700 0.000000 0.205214
Ni4   Ni    Ni4+2 0.500000 0.869700 0.000000 0.205215
Ni5   Ni    Ni4+2 0.988090 0.497570 0.863760 0.206689
Ni6   Ni    Ni4+2 0.011910 0.497570 0.136240 0.206686
Ni7   Ni    Ni4+2 0.488090 0.997570 0.863760 0.206696
Ni8   Ni    Ni4+2 0.511910 0.997570 0.136240 0.206688
C49   C     C_R   0.704466 0.634907 0.530394 0.175501
C50   C     C_R   0.295891 0.634810 0.469831 0.174400
C51   C     C_R   0.204455 0.134903 0.530399 0.175496
C52   C     C_R   0.795878 0.134813 0.469832 0.174397
C53   C     C_R   0.729338 0.663140 0.428665 0.036144
C54   C     C_R   0.271001 0.662861 0.571635 0.039059
C55   C     C_R   0.229336 0.163141 0.428669 0.036148
C56   C     C_R   0.770998 0.162860 0.571632 0.039062
C57   C     C_R   0.184462 0.226720 0.429542 -0.187238
C58   C     C_R   0.815638 0.226538 0.570865 -0.192299
C59   C     C_R   0.684460 0.726717 0.429542 -0.187234
C60   C     C_R   0.315632 0.726546 0.570873 -0.192297
H29   H     H_    0.196301 0.247238 0.354622 0.124996
H30   H     H_    0.803888 0.246893 0.645838 0.128464
H31   H     H_    0.696294 0.747230 0.354624 0.124997
H32   H     H_    0.303875 0.746905 0.645849 0.128462
C61   C     C_R   0.134482 0.272807 0.524297 -0.196971
C62   C     C_R   0.865263 0.272851 0.476229 -0.194244
C63   C     C_R   0.634483 0.772805 0.524295 -0.196974
C64   C     C_R   0.365255 0.772860 0.476237 -0.194247
H33   H     H_    0.109823 0.327026 0.518548 0.124827
H34   H     H_    0.889709 0.327112 0.482073 0.124213
H35   H     H_    0.609820 0.827021 0.518549 0.124830
H36   H     H_    0.389691 0.827126 0.482088 0.124215
C65   C     C_R   0.129263 0.254605 0.617801 0.024415
C66   C     C_R   0.870549 0.254696 0.382656 0.030476
C67   C     C_R   0.629271 0.754608 0.617796 0.024415
C68   C     C_R   0.370550 0.754699 0.382659 0.030473
C69   C     C_R   0.654700 0.680021 0.623964 0.162134
C70   C     C_R   0.345421 0.680071 0.376373 0.163652
C71   C     C_R   0.154685 0.180015 0.623972 0.162127
C72   C     C_R   0.845407 0.180074 0.376374 0.163660
C73   C     C_3   0.699996 0.653253 0.668018 -0.514557
C74   C     C_3   0.300261 0.653228 0.332243 -0.516502
C75   C     C_3   0.199972 0.153237 0.668036 -0.514540
C76   C     C_3   0.800233 0.153249 0.332258 -0.516509
C77   C     C_3   0.754697 0.604310 0.565652 -0.516655
C78   C     C_3   0.245771 0.604159 0.434503 -0.516354
C79   C     C_3   0.254677 0.104297 0.565667 -0.516640
C80   C     C_3   0.745743 0.104179 0.434518 -0.516361
H37   H     H_    0.736035 0.700382 0.672178 0.203653
H38   H     H_    0.264038 0.700297 0.328169 0.202976
H39   H     H_    0.236010 0.200361 0.672207 0.203651
H40   H     H_    0.764013 0.200327 0.328196 0.202986
H41   H     H_    0.659043 0.617737 0.744201 0.201493
H42   H     H_    0.341372 0.617805 0.255986 0.202348
H43   H     H_    0.159011 0.117719 0.744216 0.201494
H44   H     H_    0.841331 0.117826 0.256000 0.202343
H45   H     H_    0.821354 0.624357 0.512557 0.202631
H46   H     H_    0.179043 0.624101 0.487611 0.202505
H47   H     H_    0.321336 0.124342 0.512579 0.202625
H48   H     H_    0.679018 0.124130 0.487636 0.202515
H49   H     H_    0.745568 0.540635 0.582971 0.200006
H50   H     H_    0.255142 0.540506 0.417040 0.200835
H51   H     H_    0.245545 0.040621 0.582981 0.200008
H52   H     H_    0.755101 0.040526 0.417052 0.200829
C81   C     C_2   0.737174 0.215147 0.029401 -0.173082
C82   C     C_2   0.253308 0.209097 0.983680 -0.195938
C83   C     C_2   0.237162 0.715157 0.029417 -0.173080
C84   C     C_2   0.753432 0.709183 0.983515 -0.195977
H53   H     H_    0.734490 0.217622 0.102318 0.122669
H54   H     H_    0.258082 0.212254 0.909226 0.130947
H55   H     H_    0.234472 0.717643 0.102337 0.122675
H56   H     H_    0.758219 0.712379 0.909053 0.130970
C85   C     C_2   0.289589 0.759703 0.940140 0.048401
C86   C     C_2   0.700960 0.755277 0.071439 0.052143
C87   C     C_2   0.789593 0.259703 0.940132 0.048407
C88   C     C_2   0.200869 0.255239 0.071560 0.052197
Br1   Br    Br    0.892605 0.794704 0.007926 -0.554667
Br2   Br    Br    0.100470 0.795110 0.995720 -0.550196
Br3   Br    Br    0.392504 0.294695 0.007990 -0.554727
Br4   Br    Br    0.600473 0.295108 0.995721 -0.550245
N33   N     N_3   0.299333 0.751369 0.839583 -0.211782
H57   H     H_    0.287075 0.805280 0.820175 0.130622
H58   H     H_    0.362412 0.737627 0.776680 0.100005
N34   N     N_3   0.684034 0.747398 0.176898 -0.218102
H59   H     H_    0.716178 0.791321 0.184508 0.135197
H60   H     H_    0.702792 0.692983 0.185678 0.108169
N35   N     N_3   0.799328 0.251386 0.839578 -0.211782
H61   H     H_    0.787054 0.305300 0.820193 0.130642
H62   H     H_    0.862410 0.237658 0.776663 0.099994
N36   N     N_3   0.183959 0.247413 0.177016 -0.218081
H63   H     H_    0.216048 0.291399 0.184623 0.135189
H64   H     H_    0.202789 0.193041 0.185798 0.108167

loop_
_geom_bond_atom_site_label_1
_geom_bond_atom_site_label_2
_geom_bond_distance
_ccdc_geom_bond_type
C22   H18   1.073850 S    
C44   C86   1.424974 S    
C76   H40   1.112375 S    
C61   H33   1.081141 S    
C30   C34   1.380132 A    
C67   C69   1.400709 A    
N19   Ni4   1.873506 S    
C26   N26   1.341227 A    
N9    Ni5   1.874850 S    
C23   C47   1.389841 A    
C25   N25   1.341409 A    
C29   N29   1.331782 A    
C14   N14   1.328497 A    
C47   C55   1.460950 S    
N13   Ni6   1.896629 S    
C4    N4    1.314491 A    
C51   C55   1.401543 A    
C27   N27   1.341406 A    
C85   N33   1.438193 S    
N8    Ni4   1.848051 S    
N7    Ni4   1.848053 S    
C84   C86   1.346627 D    
C18   C42   1.362236 A    
C7    N7    1.324610 A    
N9    N17   1.367164 A    
C1    N1    1.316897 A    
C56   C58   1.408222 A    
C35   C82   1.416826 S    
C59   C63   1.399328 A    
C53   C59   1.407794 A    
C20   H16   1.082279 S    
C3    N3    1.316947 A    
C60   C64   1.399996 A    
C32   C36   1.380116 A    
C55   C57   1.407796 A    
C16   C48   1.379065 A    
C58   H30   1.080820 S    
C51   C71   1.378708 A    
C2    Br2   1.922480 S    
C20   C44   1.362221 A    
C60   H32   1.080823 S    
C52   C80   1.499560 S    
C29   C33   1.380127 A    
C78   H50   1.111944 S    
C49   C69   1.378701 A    
C50   C54   1.401731 A    
C6    C38   1.376091 A    
C73   C77   1.504806 S    
N13   N21   1.367052 A    
C5    H1    1.079018 S    
N14   Ni5   1.898090 S    
C27   C39   1.387859 A    
C23   N23   1.342537 A    
C4    C36   1.370346 A    
C7    H3    1.079018 S    
C22   N22   1.342345 A    
C11   C43   1.384718 A    
C76   C80   1.504803 S    
N16   Ni7   1.898090 S    
C79   H47   1.112287 S    
C26   H22   1.080528 S    
C87   N35   1.438219 S    
C26   C38   1.387889 A    
C25   H21   1.080521 S    
N36   H63   1.043923 S    
N4    N32   1.392799 A    
C11   H7    1.081229 S    
C15   N15   1.328128 A    
C82   H54   1.087255 S    
C24   C48   1.390036 A    
C64   H36   1.081136 S    
C34   C83   1.416980 S    
C83   C85   1.342422 D    
C9    C41   1.384720 A    
N17   Ni3   1.873506 S    
C63   C67   1.407351 A    
N3    N31   1.393802 A    
C70   C74   1.497390 S    
N27   Ni8   1.816954 S    
N12   N20   1.368149 A    
C8    N8    1.324166 A    
C2    N2    1.314517 A    
C86   N34   1.441284 S    
C48   C56   1.461566 S    
C10   C42   1.385661 A    
N5    Ni3   1.848053 S    
N11   Ni7   1.874850 S    
N1    N29   1.393802 A    
C74   H42   1.111860 S    
N29   Ni5   1.838520 S    
C72   C76   1.497384 S    
C27   H23   1.080522 S    
C19   C43   1.363110 A    
C36   C81   1.416990 S    
N8    N28   1.392907 A    
C14   C46   1.379071 A    
C15   C47   1.378093 A    
C8    H4    1.079055 S    
C39   C68   1.461049 S    
C2    C34   1.370345 A    
C13   C45   1.378087 A    
N6    Ni3   1.848051 S    
C68   C70   1.400550 A    
C6    H2    1.079055 S    
C82   C88   1.346644 D    
C50   C70   1.378806 A    
C19   H15   1.082168 S    
C57   H29   1.079869 S    
N2    N30   1.392799 A    
C9    N9    1.337155 A    
C80   H52   1.111941 S    
C1    C33   1.373229 A    
C13   H9    1.075031 S    
C28   N28   1.341223 A    
C3    Br3   1.922084 S    
C12   C44   1.385649 A    
C11   N11   1.337156 A    
C15   H11   1.075036 S    
C46   C54   1.461569 S    
C12   N12   1.339534 A    
C62   H34   1.081135 S    
C66   C72   1.400545 A    
N15   Ni8   1.896629 S    
C62   C66   1.407823 A    
N10   N18   1.368149 A    
N23   Ni2   1.848371 S    
N28   Ni7   1.815558 S    
C16   H12   1.075068 S    
N6    N26   1.392907 A    
C31   C35   1.380137 A    
C18   N18   1.308345 A    
N5    N25   1.393911 A    
C17   H13   1.082170 S    
C45   C53   1.460950 S    
C28   H24   1.080528 S    
N24   Ni2   1.848374 S    
N12   Ni8   1.873363 S    
N7    N27   1.393911 A    
N32   Ni8   1.839973 S    
C58   C62   1.399997 A    
C76   H44   1.111856 S    
C10   H6    1.081550 S    
C17   C41   1.363119 A    
N11   N19   1.367164 A    
C5    N5    1.324602 A    
C52   C72   1.378797 A    
C88   N36   1.441285 S    
C38   C65   1.460224 S    
C49   C77   1.499419 S    
N2    Ni1   1.872157 S    
C51   C79   1.499425 S    
C23   H19   1.072892 S    
C16   N16   1.328490 A    
N26   Ni5   1.815558 S    
C73   H41   1.111866 S    
C77   H49   1.111950 S    
N25   Ni6   1.816954 S    
C25   C37   1.387859 A    
C31   N31   1.331798 A    
C19   N19   1.308788 A    
N10   Ni6   1.873363 S    
C57   C61   1.399327 A    
C20   N20   1.308339 A    
C9    H5    1.081229 S    
C5    C37   1.376720 A    
C74   H38   1.112381 S    
C77   H45   1.112276 S    
C14   H10   1.075068 S    
C61   C65   1.407353 A    
C12   H8    1.081549 S    
C21   N21   1.342505 A    
C40   C67   1.460219 S    
C41   C87   1.424606 S    
C31   H27   1.081266 S    
C28   C40   1.387884 A    
C83   H55   1.087054 S    
C21   H17   1.072899 S    
C49   C53   1.401535 A    
C43   C85   1.424608 S    
C18   H14   1.082278 S    
C33   C84   1.416797 S    
C75   H43   1.111876 S    
C75   C79   1.504815 S    
C30   N30   1.332966 A    
N3    Ni2   1.872219 S    
C24   H20   1.073853 S    
C63   H35   1.081141 S    
C13   N13   1.328095 A    
C1    Br1   1.922075 S    
C4    Br4   1.922473 S    
N36   H64   1.044591 S    
C42   C88   1.425056 S    
N4    Ni2   1.872157 S    
C64   C68   1.407831 A    
C10   N10   1.339546 A    
N34   H59   1.043905 S    
C30   H26   1.081518 S    
N21   Ni1   1.848371 S    
C32   H28   1.081519 S    
N1    Ni1   1.872219 S    
C21   C45   1.389841 A    
C6    N6    1.324169 A    
C71   C75   1.497592 S    
C7    C39   1.376726 A    
N31   Ni7   1.838520 S    
N18   Ni3   1.873357 S    
C50   C78   1.499561 S    
N30   Ni6   1.839973 S    
N22   Ni1   1.848374 S    
C54   C60   1.408227 A    
N33   H57   1.045056 S    
C59   H31   1.079868 S    
C37   C66   1.461048 S    
C8    C40   1.376093 A    
N16   N24   1.368037 A    
C24   N24   1.342349 A    
C65   C71   1.400722 A    
C17   N17   1.308794 A    
N35   H61   1.045073 S    
C80   H48   1.112255 S    
C79   H51   1.111958 S    
C84   H56   1.087257 S    
C81   C87   1.342438 D    
N15   N23   1.367052 A    
C74   C78   1.504811 S    
C22   C46   1.390035 A    
N14   N22   1.368037 A    
C69   C73   1.497580 S    
C78   H46   1.112260 S    
C3    C35   1.373310 A    
C32   N32   1.332944 A    
N33   H58   1.045473 S    
C81   H53   1.087067 S    
C73   H37   1.112367 S    
N20   Ni4   1.873357 S    
C29   H25   1.081265 S    
C52   C56   1.401719 A    
C75   H39   1.112376 S    
N35   H62   1.045483 S    
N34   H60   1.044600 S    
