data_mof_unit_39015.cif
_audit_creation_date              2012-12-11T15:09:38-0500
_audit_creation_method            fapswitch 2.2
_symmetry_space_group_name_H-M    P1
_symmetry_Int_Tables_number       1
_space_group_crystal_system       triclinic
_cell_length_a                    20.944818
_cell_length_b                    7.127143
_cell_length_c                    13.998687
_cell_angle_alpha                 90.026943
_cell_angle_beta                  98.16458
_cell_angle_gamma                 90.038532
_cell_volume                      2068.49664791

loop_
_atom_site_label
_atom_site_type_symbol
_atom_type_description
_atom_site_fract_x
_atom_site_fract_y
_atom_site_fract_z
_atom_type_partial_charge
O1    O     O_R   0.447130 0.507140 0.597350 -0.531700
O2    O     O_R   0.552870 0.007140 0.402650 -0.546694
O3    O     O_R   0.578910 0.181280 0.586990 -0.543466
O4    O     O_R   0.421090 0.681280 0.413010 -0.536782
C1    C     C_R   0.604485 0.344541 0.607397 0.747501
C2    C     C_R   0.395514 0.844416 0.392595 0.748860
O5    O     O_R   0.449230 0.177860 0.608640 -0.548064
O6    O     O_R   0.550770 0.677860 0.391360 -0.532988
O7    O     O_R   0.422260 0.000770 0.424450 -0.541208
O8    O     O_R   0.577740 0.500770 0.575550 -0.535084
C3    C     C_R   0.432210 0.346329 0.633984 0.777258
C4    C     C_R   0.568032 0.846024 0.366277 0.778188
O9    O     O_3   0.491310 0.336980 0.439550 -0.376989
O10   O     O_3   0.508690 0.836980 0.560450 -0.376341
V1    V     V_3+5 0.501610 0.064760 0.511210 1.477575
V2    V     V_3+5 0.498390 0.564760 0.488790 1.508920
C5    C     C_R   0.619010 0.820488 0.119881 0.299232
C6    C     C_R   0.378667 0.445791 0.874186 0.310814
C7    C     C_R   0.608983 0.852591 0.289604 -0.216771
C8    C     C_R   0.390832 0.357578 0.709958 -0.217048
C9    C     C_R   0.922026 0.847321 0.307540 0.328543
C10   C     C_R   0.077345 0.364503 0.691910 0.329119
C11   C     C_R   0.883686 0.819544 0.381809 0.086230
C12   C     C_R   0.115477 0.381135 0.616579 0.086403
C13   C     C_R   0.816394 0.813550 0.358426 -0.113526
C14   C     C_R   0.182792 0.387848 0.639295 -0.116082
C15   C     C_R   0.785130 0.843947 0.263304 0.094596
C16   C     C_R   0.214273 0.368407 0.735023 0.095128
C17   C     C_R   0.823825 0.851006 0.188555 -0.065488
C18   C     C_R   0.175874 0.366082 0.810280 -0.065198
C19   C     C_R   0.716392 0.853764 0.239941 -0.033132
C20   C     C_R   0.283007 0.366301 0.758158 -0.031971
C21   C     C_R   0.687399 0.832957 0.141762 -0.091994
C22   C     C_R   0.311563 0.405073 0.854678 -0.101090
C23   C     C_R   0.727361 0.822023 0.068310 0.403170
C24   C     C_R   0.272833 0.396042 0.929562 0.393063
C25   C     C_R   0.794204 0.842543 0.092193 -0.257955
C26   C     C_R   0.206015 0.372484 0.906525 -0.255134
C27   C     C_R   0.675905 0.888041 0.311314 0.225228
C28   C     C_R   0.323901 0.321160 0.688867 0.227648
C29   C     C_R   0.580879 0.813842 0.194901 0.285359
C30   C     C_R   0.417949 0.422735 0.801210 0.284276
C31   C     C_R   0.891864 0.857866 0.211383 -0.124798
C32   C     C_R   0.107798 0.361379 0.788099 -0.125616
H1    H     H_    0.789236 0.774192 0.415235 0.179466
H2    H     H_    0.209860 0.419495 0.581222 0.178970
H3    H     H_    0.823244 0.841885 0.034116 0.103543
H4    H     H_    0.177551 0.364446 0.965168 0.102725
C33   C     C_1   0.166595 0.857277 0.168319 -0.175109
C34   C     C_1   0.833400 0.357081 0.831701 -0.174620
C35   C     C_1   0.219002 0.854908 0.219413 0.017256
C36   C     C_1   0.780993 0.354915 0.780602 0.018638
C37   C     C_1   0.280751 0.853303 0.279429 0.029809
C38   C     C_1   0.719248 0.353564 0.720574 0.031155
C39   C     C_1   0.333115 0.850915 0.330643 -0.159077
C40   C     C_1   0.666885 0.351249 0.669351 -0.159142
O11   O     O_R   0.922300 0.202240 0.924350 -0.535177
O12   O     O_R   0.077700 0.702240 0.075650 -0.536279
O13   O     O_R   0.050780 0.535130 0.891350 -0.541242
O14   O     O_R   0.949220 0.035130 0.108650 -0.540050
C41   C     C_R   0.067292 0.368138 0.865258 0.779171
C42   C     C_R   0.932639 0.867943 0.134653 0.779528
O15   O     O_R   0.921100 0.531560 0.912990 -0.540189
O16   O     O_R   0.078900 0.031560 0.087010 -0.539084
O17   O     O_R   0.947120 0.708470 0.097370 -0.542022
O18   O     O_R   0.052880 0.208470 0.902630 -0.540859
C43   C     C_R   0.895877 0.363522 0.893446 0.736912
C44   C     C_R   0.104123 0.863625 0.106567 0.736344
O19   O     O_3   0.008710 0.375800 0.060400 -0.377958
O20   O     O_3   0.991290 0.875800 0.939600 -0.377937
V3    V     V_3+5 0.998380 0.648080 0.988790 1.463547
V4    V     V_3+5 0.001620 0.148080 0.011210 1.467949
O21   O     O_3   0.514984 0.782564 0.177382 -0.630968
H5    H     H_    0.502164 0.743902 0.109436 0.355289
O22   O     O_3   0.483394 0.462201 0.816402 -0.631867
H6    H     H_    0.496831 0.503766 0.883701 0.358323
O23   O     O_3   0.700932 0.787515 0.973645 -0.624279
H7    H     H_    0.735554 0.781475 0.932208 0.289314
O24   O     O_3   0.301206 0.398578 0.025047 -0.622684
H8    H     H_    0.267458 0.390542 0.067920 0.289760
O25   O     O_3   0.588109 0.816164 0.026299 -0.610367
H9    H     H_    0.601643 0.931097 0.994626 0.336101
O26   O     O_3   0.406502 0.517091 0.961914 -0.614130
H10   H     H_    0.377489 0.616440 0.980447 0.329618
O27   O     O_3   0.702498 0.967143 0.398448 -0.651355
H11   H     H_    0.669854 0.985680 0.441883 0.286562
O28   O     O_3   0.297768 0.228640 0.605209 -0.650936
H12   H     H_    0.330788 0.200866 0.563487 0.285700
O29   O     O_3   0.988767 0.856493 0.324467 -0.658444
H13   H     H_    0.004405 0.854291 0.394396 0.298158
O30   O     O_3   0.010547 0.358275 0.675778 -0.658365
H14   H     H_    0.994577 0.356363 0.605952 0.298297
C45   C     C_3   0.913095 0.791494 0.485647 -0.772992
H15   H     H_    0.941068 0.917957 0.512487 0.214554
H16   H     H_    0.875880 0.767964 0.533557 0.219429
H17   H     H_    0.945160 0.666899 0.491629 0.208103
C46   C     C_3   0.085819 0.397450 0.512156 -0.773730
H18   H     H_    0.054433 0.523352 0.502206 0.208238
H19   H     H_    0.122930 0.411694 0.463265 0.219507
H20   H     H_    0.057093 0.269782 0.489803 0.214903

loop_
_geom_bond_atom_site_label_1
_geom_bond_atom_site_label_2
_ccdc_geom_bond_type
O28   H12   S    
C45   H15   S    
C33   C44   S    
C15   C17   A    
O21   H5    S    
C1    C40   S    
O1    C3    A    
C2    C39   S    
O2    C4    A    
C2    O7    A    
C46   H18   S    
C9    O29   S    
O27   H11   S    
O5    C3    A    
C30   O22   S    
O16   C44   A    
C28   O28   S    
C23   C25   A    
C12   C14   A    
C6    C30   A    
C8    C28   A    
O12   V3    S    
O14   V4    S    
C18   C26   A    
O14   C42   A    
O19   V3    S    
C9    C31   A    
C41   O18   A    
C10   C32   A    
O18   V4    S    
C33   C35   T    
C34   C36   T    
C10   O30   S    
C19   C21   A    
O20   V3    S    
C25   H3    S    
C5    O25   S    
C34   C43   S    
C26   H4    S    
C11   C13   A    
O6    V2    S    
C17   C31   A    
C18   C32   A    
C5    C21   A    
O11   C43   A    
C46   H19   S    
C36   C38   S    
O25   H9    S    
C38   C40   T    
C37   C39   T    
O15   C43   A    
C3    C8    S    
O13   C41   A    
O20   V4    S    
C15   C19   A    
C12   C46   S    
C16   C20   A    
O4    C2    A    
O30   H14   S    
O23   H7    S    
C23   O23   S    
C11   C45   S    
C35   C37   S    
C20   C22   A    
O4    V2    S    
O19   V4    S    
O22   H6    S    
O26   H10   S    
O6    C4    A    
C6    O26   S    
O1    V2    S    
O2    V1    S    
C6    C22   A    
C7    C27   A    
O12   C44   A    
O15   V3    S    
C45   H17   S    
C20   C28   A    
C9    C11   A    
C10   C12   A    
C27   O27   S    
C24   C26   A    
C13   H1    S    
C46   H20   S    
O3    V1    S    
C42   O17   A    
O3    C1    A    
C24   O24   S    
C8    C30   A    
C32   C41   S    
C13   C15   A    
C14   C16   A    
C16   C18   A    
O7    V1    S    
C1    O8    A    
O17   V3    S    
C4    C7    S    
O5    V1    S    
C21   C23   A    
C19   C27   A    
C22   C24   A    
O16   V4    S    
O11   V4    S    
C5    C29   A    
C14   H2    S    
C29   O21   S    
O24   H8    S    
C45   H16   S    
O9    V2    S    
C17   C25   A    
O10   V1    S    
O8    V2    S    
O29   H13   S    
C7    C29   A    
C31   C42   S    
O13   V3    S    
