data_mof_unit_56296.cif
_audit_creation_date              2012-10-26T19:17:54-0400
_audit_creation_method            fapswitch 2.2
_symmetry_space_group_name_H-M    P1
_symmetry_Int_Tables_number       1
_space_group_crystal_system       triclinic
_cell_length_a                    10.88533
_cell_length_b                    12.296057
_cell_length_c                    13.281586
_cell_angle_alpha                 116.589453
_cell_angle_beta                  77.301682
_cell_angle_gamma                 101.262147
_cell_volume                      1541.2000477

loop_
_atom_site_label
_atom_site_type_symbol
_atom_type_description
_atom_site_fract_x
_atom_site_fract_y
_atom_site_fract_z
_atom_type_partial_charge
C1    C     C_R   0.517713 0.854553 0.287039 0.515926
C2    C     C_R   0.268574 0.300945 0.347216 -0.148519
C3    C     C_R   0.364273 0.240813 0.262178 -0.124654
C4    C     C_R   0.737541 0.997595 0.498193 0.541547
C5    C     C_R   0.370649 0.116889 0.229683 0.036014
C6    C     C_R   0.277424 0.051173 0.278712 -0.054157
C7    C     C_R   0.183550 0.111973 0.368042 0.032361
C8    C     C_R   0.299699 0.288162 0.011075 0.227564
C9    C     C_R   0.448613 0.230064 0.834042 0.031209
C10   C     C_R   0.669954 0.794968 0.111301 -0.160062
C11   C     C_R   0.734676 0.699847 0.026519 -0.055524
C12   C     C_R   0.659407 0.747918 0.739350 0.253581
C13   C     C_R   0.680789 0.578825 0.995478 0.262536
C14   C     C_R   0.549436 0.553422 0.033646 0.022668
C15   C     C_R   0.487568 0.649844 0.125661 -0.002389
C16   C     C_R   0.478814 0.145667 0.713239 0.623153
C17   C     C_R   0.478691 0.435833 0.986411 -0.035049
C18   C     C_R   0.362697 0.408957 0.049357 -0.026664
C19   C     C_R   0.306074 0.505699 0.143113 -0.125110
C20   C     C_R   0.364435 0.624577 0.176512 -0.110419
C21   C     C_R   0.513140 0.348901 0.873720 0.157798
C22   C     C_R   0.342563 0.199011 0.902450 0.259806
C23   C     C_R   0.039138 0.964638 0.574486 0.220273
C24   C     C_R   0.551645 0.769482 0.168135 -0.010415
C25   C     C_R   0.706068 0.348205 0.331992 -0.039862
C26   C     C_R   0.328476 0.762326 0.645659 0.037303
C27   C     C_R   0.296375 0.672313 0.685348 -0.137370
C28   C     C_R   0.262794 0.001720 0.500924 0.585385
C29   C     C_R   0.364169 0.569852 0.637345 0.256956
C30   C     C_R   0.461813 0.554903 0.541925 0.046500
C31   C     C_R   0.493522 0.653674 0.508119 0.129523
C32   C     C_R   0.532151 0.449511 0.480260 0.001038
C33   C     C_R   0.635614 0.449802 0.393041 -0.010388
C34   C     C_R   0.129491 0.004670 0.501334 0.027955
C35   C     C_R   0.665692 0.550146 0.366434 -0.183608
C36   C     C_R   0.595733 0.648192 0.421553 -0.095092
C37   C     C_R   0.502669 0.341124 0.497517 0.094726
C38   C     C_R   0.672518 0.247390 0.356958 0.055115
C39   C     C_R   0.639476 0.869754 0.768664 0.005876
C40   C     C_R   0.723448 0.938532 0.716696 -0.084512
C41   C     C_R   0.820177 0.883812 0.628035 0.010749
C42   C     C_R   0.836242 0.761560 0.596517 -0.142139
C43   C     C_R   0.757908 0.695277 0.652827 -0.055023
C44   C     C_1   0.479894 0.061048 0.154563 0.228231
C45   C     C_R   0.091986 0.045202 0.429326 -0.085940
C46   C     C_1   0.528715 0.922135 0.844414 0.216223
C47   C     C_1   0.811915 0.343814 0.243104 0.180600
C48   C     C_1   0.929709 0.041947 0.327184 0.219232
C49   C     C_1   0.087993 0.306519 0.495231 0.213558
C50   C     C_R   0.963462 0.031030 0.421811 -0.039735
C51   C     C_R   0.871536 0.993218 0.496346 -0.034683
C52   C     C_R   0.909565 0.953141 0.569006 -0.031227
C53   C     C_R   0.179702 0.238359 0.402025 0.027619
Cu1   Cu    Cu3+1 0.529370 0.098270 0.475420 0.999358
Cu2   Cu    Cu3+1 0.470630 0.901730 0.524580 0.967543
H1    H     H_    0.435690 0.292075 0.224320 0.121938
H2    H     H_    0.277471 0.842037 0.685786 0.215137
H3    H     H_    0.220902 0.684818 0.756679 0.116223
H4    H     H_    0.626794 0.719073 0.393742 0.191094
H5    H     H_    0.710224 0.032788 0.741312 0.131837
H6    H     H_    0.910657 0.717767 0.528627 0.138789
H7    H     H_    0.772919 0.601573 0.628059 0.167519
H8    H     H_    0.266412 0.397630 0.372830 0.112123
H9    H     H_    0.525401 0.726286 0.856022 0.337522
H10   H     H_    0.204455 0.073294 0.912890 0.383072
H11   H     H_    0.198894 0.304399 0.156298 0.329498
H12   H     H_    0.282645 0.954974 0.253140 0.097837
H13   H     H_    0.585827 0.463777 0.808474 0.383435
H14   H     H_    0.727207 0.418911 0.955478 0.343609
H15   H     H_    0.271461 0.516113 0.754082 0.340087
H16   H     H_    0.013149 0.949586 0.718642 0.338571
H17   H     H_    0.212163 0.492589 0.187098 0.139902
H18   H     H_    0.719665 0.886293 0.142655 0.172817
H19   H     H_    0.832279 0.719520 0.993063 0.159770
H20   H     H_    0.312517 0.696873 0.243986 0.129896
H21   H     H_    0.722773 0.167838 0.310221 0.170238
H22   H     H_    0.743603 0.553453 0.300835 0.134089
H23   H     H_    0.421218 0.325587 0.553300 0.212818
N1    N     N_R   0.573890 0.246290 0.438210 -0.270719
N2    N     N_R   0.426890 0.754320 0.561170 -0.261215
N3    N     N_1   0.569263 0.017472 0.095806 -0.304096
N4    N     N_1   0.438561 0.962764 0.904145 -0.263074
N5    N     N_1   0.896620 0.340199 0.172009 -0.244646
N6    N     N_1   0.906257 0.049428 0.249874 -0.317588
N7    N     N_1   0.014511 0.361141 0.569913 -0.252855
O1    O     O_R   0.536940 0.972510 0.318130 -0.508299
O2    O     O_3   0.276096 0.084001 0.856446 -0.657652
O3    O     O_3   0.192786 0.255833 0.074507 -0.681321
O4    O     O_3   0.600441 0.381437 0.796397 -0.620925
O5    O     O_3   0.762106 0.489686 0.937048 -0.642864
O6    O     O_3   0.341019 0.490672 0.688814 -0.713522
O7    O     O_3   0.080762 0.939784 0.652687 -0.678760
O8    O     O_R   0.487330 0.806530 0.359650 -0.534812
O9    O     O_R   0.705160 0.082990 0.479250 -0.478004
O10   O     O_R   0.655550 0.917010 0.520760 -0.534776
O11   O     O_R   0.512670 0.193470 0.640350 -0.445818
O12   O     O_R   0.463060 0.027490 0.681870 -0.472037
O13   O     O_R   0.344450 0.082990 0.479240 -0.532703
O14   O     O_R   0.294840 0.917010 0.520750 -0.452470
O15   O     O_3   0.585037 0.676579 0.790866 -0.695051

loop_
_geom_bond_atom_site_label_1
_geom_bond_atom_site_label_2
_ccdc_geom_bond_type
C40   H5    S    
C13   O5    S    
C27   C29   A    
C41   C42   A    
C19   C20   A    
Cu2   O8    S    
C36   H4    S    
C31   N2    A    
C21   O4    S    
C37   N1    A    
C26   C27   A    
C7    C45   S    
C9    C16   S    
C12   C43   A    
C31   C36   A    
H11   O3    S    
C30   C31   A    
C10   H18   S    
C9    C22   A    
C38   N1    A    
C18   C19   A    
H15   O6    S    
C46   N4    T    
H16   O7    S    
C35   C36   A    
C8    C22   A    
H10   O2    S    
C47   N5    T    
C25   C47   S    
C41   C52   S    
Cu1   O11   S    
C48   C50   S    
C28   C34   S    
C13   C14   A    
C14   C17   A    
C19   H17   S    
C50   C51   A    
C15   C20   A    
C16   O11   A    
Cu1   O9    S    
C4    C51   S    
C51   C52   A    
C2    C53   A    
C49   N7    T    
Cu2   O10   S    
C44   N3    T    
C39   C40   A    
Cu1   O1    S    
C38   H21   S    
C10   C24   A    
C22   O2    S    
C35   H22   S    
C26   N2    A    
C48   N6    T    
C20   H20   S    
C8    O3    S    
C29   C30   A    
C25   C38   A    
C4    O10   A    
C3    H1    S    
C23   C34   A    
Cu2   O12   S    
C17   C18   A    
C34   C45   A    
C32   C37   A    
C42   H6    S    
C39   C46   S    
C4    O9    A    
C28   O14   A    
C40   C41   A    
C5    C44   S    
C42   C43   A    
C7    C53   A    
H14   O5    S    
C29   O6    S    
C2    H8    S    
Cu1   N1    S    
C28   O13   A    
C1    O1    A    
Cu1   Cu2   S    
C15   C24   A    
C14   C15   A    
C3    C5    A    
C11   H19   S    
C6    C7    A    
C37   H23   S    
C32   C33   A    
C12   C39   A    
C2    C3    A    
C6    H12   S    
C30   C32   A    
Cu2   N2    S    
C11   C13   A    
C9    C21   A    
C23   C52   A    
C5    C6    A    
C45   C50   A    
C27   H3    S    
C49   C53   S    
C33   C35   A    
C16   O12   A    
C26   H2    S    
C8    C18   A    
C12   O15   S    
C10   C11   A    
H9    O15   S    
C1    C24   S    
C1    O8    A    
Cu2   O14   S    
C23   O7    S    
Cu1   O13   S    
H13   O4    S    
C43   H7    S    
C25   C33   A    
C17   C21   A    
