data_mof_unit_62027.cif
_audit_creation_date              2012-12-10T19:35:23-0500
_audit_creation_method            fapswitch 2.2
_symmetry_space_group_name_H-M    P1
_symmetry_Int_Tables_number       1
_space_group_crystal_system       triclinic
_cell_length_a                    30.533497
_cell_length_b                    30.53346
_cell_length_c                    22.470419
_cell_angle_alpha                 89.999727
_cell_angle_beta                  89.999758
_cell_angle_gamma                 90.000152
_cell_volume                      20949.0212906

loop_
_atom_site_label
_atom_site_type_symbol
_atom_type_description
_atom_site_fract_x
_atom_site_fract_y
_atom_site_fract_z
_atom_type_partial_charge
C1    C     C_R   0.617947 0.117947 0.250000 0.011060
C2    C     C_R   0.617877 0.882122 0.250001 0.015524
C3    C     C_R   0.366896 0.135153 0.303887 -0.230250
C4    C     C_R   0.893794 0.337753 0.747096 -0.228038
C5    C     C_R   0.135336 0.632909 0.303874 -0.230288
C6    C     C_R   0.337753 0.106202 0.747188 -0.228058
C7    C     C_R   0.633011 0.864760 0.303882 -0.230272
C8    C     C_R   0.893801 0.662248 0.252727 -0.228059
C9    C     C_R   0.135288 0.367039 0.696122 -0.230286
C10   C     C_R   0.337753 0.893794 0.252905 -0.228034
C11   C     C_R   0.632910 0.135336 0.696126 -0.230292
C12   C     C_R   0.106191 0.337750 0.252576 -0.228084
C13   C     C_R   0.882053 0.382053 0.750000 0.011068
C14   C     C_R   0.864704 0.632951 0.696123 -0.230290
C15   C     C_R   0.662246 0.106206 0.252904 -0.228035
C16   C     C_R   0.367091 0.864664 0.696126 -0.230290
C17   C     C_R   0.638465 0.194573 0.248200 -0.122272
C18   C     C_R   0.331761 0.835408 0.803833 -0.121976
C19   C     C_R   0.194572 0.361546 0.248533 -0.122203
C20   C     C_R   0.835367 0.668199 0.803838 -0.122011
C21   C     C_R   0.361535 0.805427 0.248201 -0.122273
C22   C     C_R   0.668239 0.164590 0.803834 -0.121974
C23   C     C_R   0.805427 0.638458 0.248385 -0.122247
C24   C     C_R   0.117876 0.617875 0.250000 0.015702
C25   C     C_R   0.164642 0.331809 0.803839 -0.122025
C26   C     C_R   0.361538 0.194573 0.751705 -0.122269
C27   C     C_R   0.668141 0.835305 0.196157 -0.122058
C28   C     C_R   0.805427 0.361534 0.751801 -0.122273
C29   C     C_R   0.164591 0.668239 0.196167 -0.121968
C30   C     C_R   0.638463 0.805427 0.751739 -0.122270
C31   C     C_R   0.331945 0.164785 0.196144 -0.122118
C32   C     C_R   0.194572 0.638465 0.751799 -0.122274
C33   C     C_R   0.835410 0.331760 0.196166 -0.121967
C34   C     C_R   0.138465 0.694573 0.748199 -0.122275
C35   C     C_R   0.617946 0.882054 0.750000 0.011123
C36   C     C_R   0.831761 0.335408 0.303833 -0.121968
C37   C     C_R   0.694572 0.861537 0.748260 -0.122271
C38   C     C_R   0.335214 0.168054 0.303854 -0.122121
C39   C     C_R   0.861535 0.305427 0.748201 -0.122275
C40   C     C_R   0.168239 0.664590 0.303834 -0.121966
C41   C     C_R   0.305427 0.138462 0.748295 -0.122271
C42   C     C_R   0.664692 0.831857 0.303847 -0.122050
C43   C     C_R   0.861539 0.694572 0.251621 -0.122245
C44   C     C_R   0.168191 0.335358 0.696160 -0.122025
C45   C     C_R   0.305427 0.861534 0.251800 -0.122271
C46   C     C_R   0.382121 0.117879 0.250000 0.015372
C47   C     C_R   0.664591 0.168239 0.696167 -0.121974
C48   C     C_R   0.138453 0.305428 0.251465 -0.122203
C49   C     C_R   0.831801 0.664632 0.696161 -0.122011
C50   C     C_R   0.694572 0.138465 0.251799 -0.122272
C51   C     C_R   0.335410 0.831761 0.696166 -0.121975
C52   C     C_R   0.682988 0.182988 0.249999 0.227253
C53   C     C_R   0.317108 0.817107 0.749999 0.226336
C54   C     C_R   0.182982 0.317017 0.249999 0.227146
C55   C     C_R   0.817107 0.682893 0.750000 0.226318
C56   C     C_R   0.317012 0.817012 0.250001 0.227254
C57   C     C_R   0.117947 0.617947 0.749999 0.011067
C58   C     C_R   0.682893 0.182892 0.750001 0.226337
C59   C     C_R   0.817014 0.682983 0.250003 0.227190
C60   C     C_R   0.182893 0.317107 0.750000 0.226318
C61   C     C_R   0.317013 0.182986 0.750000 0.227210
C62   C     C_R   0.682894 0.817104 0.250002 0.226285
C63   C     C_R   0.817012 0.317012 0.750001 0.227256
C64   C     C_R   0.182893 0.682891 0.250001 0.226350
C65   C     C_R   0.682987 0.817013 0.750000 0.227210
C66   C     C_R   0.317103 0.182896 0.249999 0.226257
C67   C     C_R   0.182988 0.682988 0.749999 0.227255
C68   C     C_R   0.882125 0.382124 0.250000 0.015702
C69   C     C_R   0.817108 0.317107 0.249999 0.226348
C70   C     C_R   0.782762 0.282761 0.249999 -0.307482
C71   C     C_R   0.217325 0.717325 0.749999 -0.307832
C72   C     C_R   0.282757 0.217242 0.249999 -0.307578
C73   C     C_R   0.717324 0.782675 0.749999 -0.307847
C74   C     C_R   0.217239 0.717238 0.250001 -0.307482
C75   C     C_R   0.782675 0.282675 0.750001 -0.307830
C76   C     C_R   0.717239 0.782757 0.250003 -0.307536
C77   C     C_R   0.282676 0.217324 0.750000 -0.307874
C78   C     C_R   0.217239 0.282761 0.750000 -0.307528
C79   C     C_R   0.751912 0.215724 0.291608 0.370325
C80   C     C_R   0.782676 0.717321 0.250004 -0.307873
C81   C     C_R   0.717239 0.217238 0.750001 -0.307488
C82   C     C_R   0.282675 0.782675 0.250001 -0.307823
C83   C     C_R   0.782761 0.717239 0.749999 -0.307515
C84   C     C_R   0.217320 0.282679 0.249999 -0.307881
C85   C     C_R   0.282762 0.782761 0.749999 -0.307488
C86   C     C_R   0.717325 0.217325 0.249999 -0.307823
C87   C     C_3   0.732655 0.197167 0.385558 -0.240572
C88   C     C_3   0.217080 0.853522 0.701926 -0.242867
C89   C     C_3   0.196682 0.266865 0.385324 -0.240453
C90   C     C_R   0.246644 0.785876 0.711018 0.369564
C91   C     C_3   0.853562 0.782947 0.702126 -0.242914
C92   C     C_3   0.267345 0.802831 0.385559 -0.240569
C93   C     C_3   0.782920 0.146477 0.701934 -0.242871
C94   C     C_3   0.803085 0.732895 0.385437 -0.240526
C95   C     C_3   0.146425 0.217046 0.702188 -0.242934
C96   C     C_3   0.267223 0.197030 0.614511 -0.240718
C97   C     C_3   0.782997 0.853614 0.297593 -0.242913
C98   C     C_3   0.802833 0.267345 0.614443 -0.240571
C99   C     C_3   0.146480 0.782923 0.298076 -0.242863
C100  C     C_3   0.732752 0.802935 0.614491 -0.240640
C101  C     C_R   0.215572 0.247945 0.291371 0.370360
C102  C     C_3   0.216952 0.146287 0.297128 -0.242949
C103  C     C_3   0.197169 0.732655 0.614441 -0.240571
C104  C     C_3   0.853521 0.217076 0.298067 -0.242842
C105  C     C_3   0.232654 0.697167 0.885557 -0.240571
C106  C     C_3   0.717077 0.353521 0.201924 -0.242856
C107  C     C_3   0.697065 0.767247 0.885508 -0.240642
C108  C     C_3   0.353709 0.283052 0.202865 -0.242948
C109  C     C_3   0.767346 0.302831 0.885559 -0.240570
C110  C     C_3   0.282924 0.646478 0.201934 -0.242844
C111  C     C_3   0.302970 0.232777 0.885489 -0.240715
C112  C     C_R   0.382125 0.882124 0.750000 0.015697
C113  C     C_R   0.785905 0.753386 0.711072 0.369584
C114  C     C_3   0.646374 0.717015 0.202427 -0.242904
C115  C     C_3   0.767102 0.696907 0.114572 -0.240515
C116  C     C_3   0.282954 0.353575 0.797812 -0.242935
C117  C     C_3   0.302833 0.767345 0.114443 -0.240571
C118  C     C_3   0.646478 0.282920 0.798074 -0.242867
C119  C     C_3   0.233133 0.303316 0.114673 -0.240455
C120  C     C_3   0.717053 0.646437 0.797872 -0.242913
C121  C     C_3   0.697169 0.232655 0.114441 -0.240568
C122  C     C_3   0.353523 0.717080 0.798066 -0.242868
C123  C     C_R   0.248088 0.784275 0.291610 0.370321
C124  C     C_R   0.753357 0.214123 0.711020 0.369561
C125  C     C_R   0.784353 0.751984 0.291489 0.370338
C126  C     C_R   0.214086 0.246604 0.711090 0.369592
C127  C     C_R   0.248049 0.215682 0.708456 0.370372
C128  C     C_R   0.753430 0.785945 0.288849 0.369603
C129  C     C_R   0.784276 0.248088 0.708392 0.370331
C130  C     C_R   0.214123 0.753355 0.288982 0.369561
C131  C     C_R   0.751942 0.784307 0.708440 0.370350
C132  C     C_R   0.117942 0.382057 0.250000 0.011364
C133  C     C_R   0.246499 0.213988 0.288720 0.369618
C134  C     C_R   0.215725 0.751912 0.708390 0.370327
C135  C     C_R   0.785877 0.246643 0.288980 0.369555
C136  C     C_R   0.251911 0.715724 0.791608 0.370331
C137  C     C_R   0.746644 0.285877 0.211018 0.369559
C138  C     C_R   0.715692 0.748057 0.791559 0.370350
C139  C     C_R   0.286011 0.253499 0.211277 0.369621
C140  C     C_R   0.748088 0.284275 0.791610 0.370326
C141  C     C_R   0.253357 0.714123 0.211020 0.369555
C142  C     C_R   0.284318 0.251951 0.791543 0.370371
C143  C     C_R   0.882124 0.617876 0.750000 0.015629
C144  C     C_R   0.714051 0.746566 0.211158 0.369593
C145  C     C_R   0.748012 0.715643 0.208519 0.370360
C146  C     C_R   0.253395 0.285914 0.788910 0.369593
C147  C     C_R   0.284276 0.748088 0.208392 0.370326
C148  C     C_R   0.714124 0.253355 0.788983 0.369563
C149  C     C_R   0.252054 0.284426 0.208626 0.370352
C150  C     C_R   0.746614 0.714094 0.788927 0.369583
C151  C     C_R   0.715724 0.251912 0.208390 0.370322
C152  C     C_R   0.285877 0.746643 0.788981 0.369561
C153  C     C_R   0.000000 0.500000 0.409949 0.834319
C154  C     C_R   0.382053 0.882053 0.250000 0.011061
C155  C     C_R   1.000000 0.500000 0.590051 0.834336
C156  C     C_R   0.500000 0.000000 0.409949 0.834342
C157  C     C_R   0.500000 0.000000 0.590051 0.834328
C158  C     C_R   0.500000 1.000000 0.909949 0.834329
C159  C     C_R   0.500000 0.000000 0.090051 0.834343
C160  C     C_R   1.000000 0.500000 0.909949 0.834335
C161  C     C_R   1.000000 0.500000 0.090051 0.834318
C162  C     C_R   0.915944 0.584055 0.250000 0.785775
C163  C     C_R   0.084032 0.415968 0.750000 0.782717
C164  C     C_R   0.584056 0.084056 0.250000 0.785834
C165  C     C_R   0.617876 0.117875 0.750000 0.015697
C166  C     C_R   0.415969 0.915968 0.750000 0.782700
C167  C     C_R   0.084055 0.415945 0.250000 0.785746
C168  C     C_R   0.915968 0.584032 0.750000 0.782721
C169  C     C_R   0.415944 0.915944 0.250000 0.785833
C170  C     C_R   0.584031 0.084031 0.750000 0.782700
C171  C     C_R   0.084056 0.584056 0.750000 0.785824
C172  C     C_R   0.915968 0.415968 0.250000 0.782692
C173  C     C_R   0.415944 0.084056 0.750000 0.785791
C174  C     C_R   0.584032 0.915968 0.250000 0.782735
C175  C     C_R   0.915944 0.415944 0.750000 0.785824
C176  C     C_R   0.882055 0.617944 0.250001 0.011227
C177  C     C_R   0.084031 0.584031 0.250000 0.782693
C178  C     C_R   0.584056 0.915944 0.750000 0.785808
C179  C     C_R   0.415967 0.084033 0.250000 0.782772
C180  C     C_1   0.000000 0.500000 0.026684 -0.157943
C181  C     C_1   1.000000 0.500000 0.973316 -0.157951
C182  C     C_1   0.500000 0.000000 0.026684 -0.157959
C183  C     C_1   0.500000 1.000000 0.973316 -0.157950
C184  C     C_1   0.500000 0.000000 0.526684 -0.157950
C185  C     C_1   0.500000 0.000000 0.473316 -0.157959
C186  C     C_1   0.000000 0.500000 0.526684 -0.157951
C187  C     C_R   0.117876 0.382123 0.750000 0.015614
C188  C     C_1   1.000000 0.500000 0.473316 -0.157944
C189  C     C_R   0.606206 0.162247 0.247095 -0.228033
C190  C     C_R   0.364664 0.867089 0.803874 -0.230292
C191  C     C_R   0.162249 0.393808 0.247423 -0.228085
C192  C     C_R   0.867048 0.635296 0.803877 -0.230289
C193  C     C_R   0.393794 0.837754 0.247096 -0.228036
C194  C     C_R   0.635336 0.132909 0.803874 -0.230290
C195  C     C_R   0.837751 0.606197 0.247276 -0.228057
C196  C     C_R   0.132961 0.364712 0.803878 -0.230285
C197  C     C_R   0.393798 0.162248 0.752812 -0.228058
C198  C     C_R   0.382054 0.117946 0.750000 0.011149
C199  C     C_R   0.635239 0.866987 0.196120 -0.230269
C200  C     C_R   0.837753 0.393794 0.752906 -0.228039
C201  C     C_R   0.132910 0.635336 0.196127 -0.230281
C202  C     C_R   0.606203 0.837753 0.752846 -0.228057
C203  C     C_R   0.364847 0.133104 0.196112 -0.230251
C204  C     C_R   0.162246 0.606206 0.752904 -0.228038
C205  C     C_R   0.867091 0.364664 0.196126 -0.230287
C206  C     C_R   0.106206 0.662247 0.747094 -0.228038
C207  C     C_R   0.864664 0.367090 0.303873 -0.230281
C208  C     C_R   0.662247 0.893797 0.747153 -0.228057
H1    H     H_    0.572063 0.171811 0.245338 0.150951
H2    H     H_    0.624039 0.880428 0.154175 0.147202
H3    H     H_    0.117947 0.786274 0.328285 0.185250
H4    H     H_    0.697591 0.795582 0.623022 0.139783
H5    H     H_    0.749433 0.773797 0.595165 0.170470
H6    H     H_    0.734123 0.829514 0.580895 0.188289
H7    H     H_    0.233479 0.134719 0.255852 0.140846
H8    H     H_    0.183455 0.158476 0.286699 0.172567
H9    H     H_    0.213425 0.117676 0.327163 0.185253
H10   H     H_    0.204522 0.697501 0.623028 0.139759
H11   H     H_    0.226317 0.749327 0.595130 0.170489
H12   H     H_    0.170614 0.733996 0.580808 0.188313
H13   H     H_    0.828189 0.427937 0.754662 0.150946
H14   H     H_    0.865197 0.233369 0.256673 0.140738
H15   H     H_    0.841359 0.183521 0.287932 0.172809
H16   H     H_    0.882053 0.213720 0.328275 0.185255
H17   H     H_    0.197501 0.704522 0.876970 0.139756
H18   H     H_    0.249327 0.726314 0.904869 0.170489
H19   H     H_    0.233994 0.670611 0.919190 0.188313
H20   H     H_    0.733367 0.365197 0.243320 0.140735
H21   H     H_    0.683521 0.341359 0.212054 0.172822
H22   H     H_    0.713725 0.382053 0.171715 0.185249
H23   H     H_    0.704418 0.802408 0.876977 0.139784
H24   H     H_    0.119392 0.624212 0.154191 0.147061
H25   H     H_    0.726202 0.750566 0.904834 0.170472
H26   H     H_    0.670486 0.765876 0.919104 0.188290
H27   H     H_    0.365272 0.266534 0.244151 0.140834
H28   H     H_    0.341519 0.316551 0.213277 0.172591
H29   H     H_    0.382323 0.286571 0.172834 0.185249
H30   H     H_    0.802499 0.295478 0.876972 0.139759
H31   H     H_    0.750674 0.273683 0.904870 0.170488
H32   H     H_    0.766004 0.329386 0.919192 0.188313
H33   H     H_    0.266631 0.634802 0.243327 0.140739
H34   H     H_    0.316479 0.658640 0.212068 0.172810
H35   H     H_    0.572059 0.828188 0.754559 0.150905
H36   H     H_    0.286280 0.617946 0.171725 0.185256
H37   H     H_    0.295623 0.197613 0.876973 0.139804
H38   H     H_    0.273832 0.249454 0.904820 0.170440
H39   H     H_    0.329554 0.234161 0.919075 0.188264
H40   H     H_    0.634736 0.733451 0.243734 0.140827
H41   H     H_    0.658553 0.683499 0.212758 0.172626
H42   H     H_    0.617813 0.713548 0.172292 0.185255
H43   H     H_    0.802273 0.704264 0.123018 0.139768
H44   H     H_    0.750405 0.726025 0.095217 0.170474
H45   H     H_    0.765692 0.670291 0.081033 0.188313
H46   H     H_    0.376116 0.119732 0.154160 0.147328
H47   H     H_    0.266586 0.365232 0.756464 0.140798
H48   H     H_    0.316489 0.341405 0.787573 0.172719
H49   H     H_    0.286369 0.382122 0.827983 0.185238
H50   H     H_    0.295477 0.802498 0.123029 0.139757
H51   H     H_    0.273686 0.750671 0.095131 0.170490
H52   H     H_    0.329389 0.766005 0.080810 0.188314
H53   H     H_    0.634799 0.266625 0.756684 0.140743
H54   H     H_    0.658640 0.316474 0.787934 0.172805
H55   H     H_    0.617949 0.286277 0.828287 0.185249
H56   H     H_    0.197950 0.295928 0.122980 0.139753
H57   H     H_    0.171810 0.572063 0.754661 0.150946
H58   H     H_    0.249877 0.274241 0.095277 0.170524
H59   H     H_    0.234590 0.329993 0.081227 0.188315
H60   H     H_    0.733401 0.634778 0.756511 0.140778
H61   H     H_    0.683512 0.658605 0.787663 0.172745
H62   H     H_    0.713655 0.617892 0.828050 0.185241
H63   H     H_    0.704522 0.197501 0.123028 0.139759
H64   H     H_    0.726317 0.249327 0.095130 0.170489
H65   H     H_    0.670613 0.233997 0.080808 0.188315
H66   H     H_    0.365204 0.733381 0.756682 0.140749
H67   H     H_    0.341361 0.683527 0.787917 0.172789
H68   H     H_    0.880610 0.375788 0.154190 0.147060
H69   H     H_    0.382051 0.713717 0.828280 0.185249
H70   H     H_    0.072063 0.671811 0.745337 0.150946
H71   H     H_    0.875788 0.380608 0.345809 0.147061
H72   H     H_    0.671812 0.927941 0.745441 0.150905
H73   H     H_    0.375788 0.880608 0.845809 0.147061
H74   H     H_    0.380267 0.123884 0.345839 0.147328
H75   H     H_    0.927937 0.328189 0.745339 0.150946
H76   H     H_    0.124212 0.619390 0.345810 0.147060
H77   H     H_    0.328187 0.072057 0.745503 0.150879
H78   H     H_    0.619570 0.875961 0.345826 0.147202
H79   H     H_    0.927947 0.671814 0.254344 0.150816
H80   H     H_    0.124126 0.380519 0.654182 0.147127
H81   H     H_    0.328189 0.927937 0.254662 0.150951
H82   H     H_    0.619392 0.124212 0.654191 0.147061
H83   H     H_    0.072042 0.328184 0.254078 0.150712
H84   H     H_    0.171816 0.427957 0.245921 0.150711
H85   H     H_    0.875859 0.619465 0.654183 0.147118
H86   H     H_    0.671810 0.072063 0.254661 0.150949
H87   H     H_    0.380610 0.875788 0.654190 0.147062
H88   H     H_    0.628624 0.228642 0.247955 0.163589
H89   H     H_    0.317609 0.825359 0.845853 0.162972
H90   H     H_    0.228641 0.371389 0.248553 0.163636
H91   H     H_    0.825286 0.682319 0.845863 0.162980
H92   H     H_    0.371376 0.771358 0.247957 0.163589
H93   H     H_    0.682392 0.174638 0.845854 0.162974
H94   H     H_    0.771357 0.628615 0.248284 0.163604
H95   H     H_    0.880535 0.624141 0.845816 0.147117
H96   H     H_    0.174730 0.317696 0.845866 0.162971
H97   H     H_    0.371380 0.228642 0.751876 0.163598
H98   H     H_    0.682216 0.825176 0.154124 0.162990
H99   H     H_    0.771358 0.371376 0.752046 0.163586
H100  H     H_    0.174641 0.682391 0.154147 0.162969
H101  H     H_    0.628620 0.771358 0.751936 0.163616
H102  H     H_    0.317941 0.174983 0.154098 0.162994
H103  H     H_    0.228642 0.628624 0.752044 0.163588
H104  H     H_    0.825362 0.317608 0.154146 0.162972
H105  H     H_    0.128624 0.728642 0.747954 0.163586
H106  H     H_    0.427937 0.828189 0.245339 0.150948
H107  H     H_    0.817608 0.325359 0.345853 0.162969
H108  H     H_    0.728641 0.871379 0.748063 0.163616
H109  H     H_    0.325015 0.182059 0.345899 0.162994
H110  H     H_    0.871376 0.271358 0.747956 0.163588
H111  H     H_    0.182392 0.674638 0.345854 0.162971
H112  H     H_    0.271358 0.128620 0.748124 0.163599
H113  H     H_    0.674819 0.817783 0.345880 0.162991
H114  H     H_    0.871381 0.728642 0.251723 0.163598
H115  H     H_    0.182304 0.325269 0.654134 0.162971
H116  H     H_    0.271358 0.871376 0.252045 0.163588
H117  H     H_    0.624212 0.119390 0.845810 0.147062
H118  H     H_    0.674641 0.182391 0.654147 0.162971
H119  H     H_    0.128610 0.271358 0.251445 0.163638
H120  H     H_    0.817680 0.674713 0.654135 0.162980
H121  H     H_    0.728642 0.128624 0.252044 0.163589
H122  H     H_    0.325362 0.817608 0.654146 0.162974
H123  H     H_    0.697502 0.204523 0.376971 0.139758
H124  H     H_    0.749328 0.226314 0.404869 0.170490
H125  H     H_    0.733995 0.170611 0.419190 0.188314
H126  H     H_    0.233377 0.865202 0.743314 0.140745
H127  H     H_    0.183526 0.841360 0.712068 0.172801
H128  H     H_    0.828186 0.572050 0.245658 0.150817
H129  H     H_    0.213722 0.882051 0.671713 0.185250
H130  H     H_    0.204070 0.302048 0.377018 0.139751
H131  H     H_    0.225757 0.250121 0.404720 0.170524
H132  H     H_    0.170005 0.265407 0.418770 0.188315
H133  H     H_    0.865221 0.766599 0.743488 0.140778
H134  H     H_    0.841394 0.816488 0.712335 0.172745
H135  H     H_    0.882107 0.786345 0.671948 0.185240
H136  H     H_    0.302499 0.795478 0.376972 0.139759
H137  H     H_    0.250673 0.773683 0.404870 0.170488
H138  H     H_    0.266004 0.829386 0.419192 0.188315
H139  H     H_    0.119480 0.375874 0.845818 0.147127
H140  H     H_    0.766619 0.134795 0.743319 0.140750
H141  H     H_    0.816473 0.158638 0.712084 0.172789
H142  H     H_    0.786282 0.117948 0.671720 0.185249
H143  H     H_    0.795726 0.697724 0.376991 0.139774
H144  H     H_    0.773968 0.749593 0.404790 0.170477
H145  H     H_    0.829701 0.734304 0.418977 0.188313
H146  H     H_    0.134768 0.233414 0.743536 0.140798
H147  H     H_    0.158595 0.183511 0.712427 0.172719
H148  H     H_    0.117878 0.213631 0.672017 0.185238
H149  H     H_    0.302387 0.204377 0.623027 0.139805
H150  H     H_    0.427943 0.171813 0.754497 0.150879
H151  H     H_    0.250546 0.226168 0.595179 0.170440
H152  H     H_    0.265839 0.170445 0.580925 0.188264
H153  H     H_    0.766592 0.865236 0.256254 0.140789
H154  H     H_    0.816522 0.841433 0.287318 0.172706
H155  H     H_    0.786439 0.882187 0.327713 0.185245
H156  H     H_    0.795478 0.302499 0.623030 0.139756
H157  H     H_    0.773686 0.250672 0.595131 0.170490
H158  H     H_    0.829389 0.266005 0.580811 0.188313
H159  H     H_    0.134805 0.766635 0.256679 0.140734
H160  H     H_    0.158642 0.816480 0.287948 0.172826
O1    O     O_3   1.000000 0.500000 0.250000 -0.480674
O2    O     O_R   1.000000 0.463680 0.618090 -0.636329
O3    O     O_R   0.536320 0.000000 0.381910 -0.636329
O4    O     O_R   0.463680 0.000000 0.618090 -0.636328
O5    O     O_R   0.500000 0.963680 0.881910 -0.636327
O6    O     O_R   0.500000 0.036320 0.118090 -0.636341
O7    O     O_R   0.963680 0.500000 0.881910 -0.636328
O8    O     O_R   0.036320 0.500000 0.118090 -0.636328
O9    O     O_R   0.500000 0.036320 0.881910 -0.636329
O10   O     O_R   0.500000 0.963680 0.118090 -0.636329
O11   O     O_R   0.036320 0.500000 0.881910 -0.636329
O12   O     O_3   0.000000 0.500000 0.750000 -0.480643
O13   O     O_R   0.963680 0.500000 0.118090 -0.636326
O14   O     O_R   0.948950 0.587490 0.284490 -0.638616
O15   O     O_R   0.051050 0.412510 0.715510 -0.639309
O16   O     O_R   0.587490 0.051050 0.284490 -0.638645
O17   O     O_R   0.412510 0.948950 0.715510 -0.639287
O18   O     O_R   0.051050 0.412510 0.284490 -0.638591
O19   O     O_R   0.948950 0.587490 0.715510 -0.639306
O20   O     O_R   0.412510 0.948950 0.284490 -0.638646
O21   O     O_R   0.587490 0.051050 0.715510 -0.639290
O22   O     O_R   0.051050 0.587490 0.715510 -0.638649
O23   O     O_3   0.500000 0.000000 0.250000 -0.480628
O24   O     O_R   0.948950 0.412510 0.284490 -0.639279
O25   O     O_R   0.412510 0.051050 0.715510 -0.638633
O26   O     O_R   0.587490 0.948950 0.284490 -0.639322
O27   O     O_R   0.948950 0.412510 0.715510 -0.638648
O28   O     O_R   0.051050 0.587490 0.284490 -0.639286
O29   O     O_R   0.587490 0.948950 0.715510 -0.638640
O30   O     O_R   0.412510 0.051050 0.284490 -0.639350
O31   O     O_R   0.448950 0.087490 0.784490 -0.638634
O32   O     O_R   0.551050 0.912510 0.215510 -0.639324
O33   O     O_R   0.087490 0.551050 0.784490 -0.638648
O34   O     O_3   0.500000 0.000000 0.750000 -0.480656
O35   O     O_R   0.912510 0.448950 0.215510 -0.639286
O36   O     O_R   0.551050 0.912510 0.784490 -0.638640
O37   O     O_R   0.448950 0.087490 0.215510 -0.639350
O38   O     O_R   0.912510 0.448950 0.784490 -0.638648
O39   O     O_R   0.087490 0.551050 0.215510 -0.639279
O40   O     O_R   0.551050 0.087490 0.215510 -0.638646
O41   O     O_R   0.448950 0.912510 0.784490 -0.639291
O42   O     O_R   0.912510 0.551050 0.215510 -0.638616
O43   O     O_R   0.087490 0.448950 0.784490 -0.639308
O44   O     O_R   0.448950 0.912510 0.215510 -0.638646
O45   O     O_R   1.000000 0.463680 0.381910 -0.636328
O46   O     O_R   0.551050 0.087490 0.784490 -0.639288
O47   O     O_R   0.087490 0.448950 0.215510 -0.638591
O48   O     O_R   0.912510 0.551050 0.784490 -0.639305
O49   O     O_3   0.753957 0.182633 0.333523 -0.583203
O50   O     O_3   0.242300 0.821230 0.673025 -0.584521
O51   O     O_3   0.182334 0.245749 0.333055 -0.583193
O52   O     O_3   0.821287 0.757762 0.673135 -0.584505
O53   O     O_3   0.246043 0.817366 0.333525 -0.583207
O54   O     O_3   0.757703 0.178769 0.673029 -0.584516
O55   O     O_3   0.817520 0.754108 0.333284 -0.583198
O56   O     O_R   0.000000 0.536320 0.618090 -0.636328
O57   O     O_3   0.178696 0.242220 0.673170 -0.584497
O58   O     O_3   0.245961 0.182551 0.666605 -0.583160
O59   O     O_3   0.757847 0.821369 0.326704 -0.584476
O60   O     O_3   0.817367 0.246043 0.666477 -0.583199
O61   O     O_3   0.178770 0.757700 0.326975 -0.584525
O62   O     O_3   0.754019 0.817428 0.666573 -0.583191
O63   O     O_3   0.242013 0.178498 0.326447 -0.584431
O64   O     O_3   0.182634 0.753957 0.666475 -0.583203
O65   O     O_3   0.821231 0.242296 0.326970 -0.584522
O66   O     O_3   0.253956 0.682633 0.833523 -0.583198
O67   O     O_R   0.463680 0.000000 0.381910 -0.636340
O68   O     O_3   0.742300 0.321230 0.173025 -0.584526
O69   O     O_3   0.682571 0.745980 0.833426 -0.583191
O70   O     O_3   0.321500 0.257985 0.173550 -0.584435
O71   O     O_3   0.746043 0.317366 0.833525 -0.583204
O72   O     O_3   0.257703 0.678768 0.173030 -0.584522
O73   O     O_3   0.317449 0.254039 0.833395 -0.583160
O74   O     O_3   0.678627 0.742146 0.173303 -0.584462
O75   O     O_3   0.745888 0.682474 0.166725 -0.583173
O76   O     O_3   0.257780 0.321304 0.826830 -0.584498
O77   O     O_3   0.317367 0.746043 0.166478 -0.583204
O78   O     O_R   0.536320 0.000000 0.618090 -0.636327
O79   O     O_3   0.678770 0.257700 0.826975 -0.584521
O80   O     O_3   0.254249 0.317665 0.166942 -0.583201
O81   O     O_3   0.742238 0.678712 0.826863 -0.584504
O82   O     O_3   0.682634 0.253957 0.166476 -0.583206
O83   O     O_3   0.321231 0.742297 0.826972 -0.584516
O84   O     O_R   1.000000 0.536320 0.381910 -0.636326
Zn1   Zn    Zn3+2 0.948160 0.500000 0.200440 0.971445
Zn2   Zn    Zn3+2 0.551840 0.000000 0.299560 0.971442
Zn3   Zn    Zn3+2 0.000000 0.551840 0.700440 0.971440
Zn4   Zn    Zn3+2 0.000000 0.448160 0.299560 0.971458
Zn5   Zn    Zn3+2 0.551840 0.000000 0.700440 0.971442
Zn6   Zn    Zn3+2 0.448160 0.000000 0.299560 0.971427
Zn7   Zn    Zn3+2 0.000000 0.448160 0.700440 0.971437
Zn8   Zn    Zn3+2 0.000000 0.551840 0.299560 0.971445
Zn9   Zn    Zn3+2 0.051840 0.500000 0.799560 0.971437
Zn10  Zn    Zn3+2 0.500000 0.051840 0.200440 0.971427
Zn11  Zn    Zn3+2 0.500000 0.948160 0.799560 0.971442
Zn12  Zn    Zn3+2 0.051840 0.500000 0.200440 0.971458
Zn13  Zn    Zn3+2 0.948160 0.500000 0.799560 0.971441
Zn14  Zn    Zn3+2 0.500000 0.948160 0.200440 0.971441
Zn15  Zn    Zn3+2 0.500000 0.051840 0.799560 0.971442
Zn16  Zn    Zn3+2 0.448160 0.000000 0.700440 0.971442

loop_
_geom_bond_atom_site_label_1
_geom_bond_atom_site_label_2
_ccdc_geom_bond_type
C126  C127  A    
C13   C200  A    
C107  H23   S    
C21   H92   S    
C115  O75   S    
C142  C146  A    
C104  O65   S    
C41   C61   A    
C155  O56   A    
C174  O26   A    
C99   H159  S    
C10   C154  A    
O23   Zn2   S    
C82   C147  A    
O47   Zn12  S    
C15   H86   S    
C156  C185  S    
C12   H83   S    
C100  H6    S    
C170  O46   A    
C139  O70   S    
C75   C140  A    
C122  H66   S    
C117  H51   S    
C109  H32   S    
C165  C170  S    
C4    H75   S    
C120  H62   S    
C13   C175  S    
O1    Zn8   S    
C142  O73   S    
C182  C183  T    
C102  H9    S    
C72   C139  A    
C66   C72   S    
C45   C56   A    
C178  O29   A    
C171  O22   A    
C50   C52   A    
C8    C43   A    
C1    C15   A    
C25   C60   A    
O39   Zn12  S    
C104  H15   S    
C175  O38   A    
C33   C69   A    
C35   C178  S    
C107  H25   S    
C29   C64   A    
C71   C134  A    
C17   C52   A    
O33   Zn9   S    
C136  C152  A    
C168  O19   A    
O23   Zn6   S    
C109  H31   S    
C31   H102  S    
C94   H143  S    
C30   C202  A    
O7    Zn13  S    
C16   H87   S    
O44   Zn14  S    
O38   Zn13  S    
O42   Zn1   S    
O31   Zn15  S    
C204  H57   S    
C106  H22   S    
O37   Zn10  S    
C93   H142  S    
C98   H158  S    
C110  H34   S    
C129  O60   S    
O12   Zn3   S    
C122  O83   S    
C22   H93   S    
C68   C207  A    
C95   H146  S    
O17   Zn16  S    
C121  H64   S    
C164  O16   A    
C40   H111  S    
C145  O75   S    
C76   C144  A    
C146  O76   S    
C46   C203  A    
C37   C208  A    
C96   H151  S    
C55   C83   S    
C179  O37   A    
C116  H48   S    
C173  O31   A    
C138  O69   S    
C18   C190  A    
C12   C132  A    
O6    Zn10  S    
C46   C179  S    
C144  C145  A    
O5    Zn11  S    
C59   C80   S    
C22   C58   A    
C34   H105  S    
C85   C90   A    
C106  H21   S    
C101  C133  A    
C3    C46   A    
C167  O47   A    
C52   C86   S    
C7    H78   S    
O27   Zn7   S    
C96   H149  S    
C92   H138  S    
C72   C133  A    
C170  O21   A    
C90   C134  A    
C57   C204  A    
C161  O13   A    
C89   O51   S    
C91   H134  S    
O9    Zn15  S    
C69   C70   S    
C111  O73   S    
C141  C147  A    
C159  O6    A    
C103  H10   S    
C35   C208  A    
C108  H29   S    
C50   H121  S    
C11   C165  A    
O1    Zn1   S    
O2    Zn7   S    
C53   C85   S    
C152  O83   S    
O15   Zn7   S    
C116  H49   S    
C19   C191  A    
C150  O81   S    
C2    C7    A    
C99   O61   S    
C16   C51   A    
C99   H3    S    
C23   C59   A    
C95   O57   S    
C205  H68   S    
C60   C78   S    
C97   H154  S    
O29   Zn5   S    
C92   H136  S    
O34   Zn5   S    
C111  H38   S    
C7    C42   A    
C115  H43   S    
O12   Zn13  S    
C166  O17   A    
C184  C185  T    
O11   Zn9   S    
C26   C197  A    
C39   H110  S    
C193  H106  S    
C149  O80   S    
C11   H82   S    
C118  H55   S    
C1    C164  S    
C61   C77   S    
C37   C65   A    
C94   O55   S    
C93   H141  S    
C51   H122  S    
C157  C184  S    
C105  H17   S    
O84   Zn8   S    
C158  C183  S    
C42   C62   A    
C77   C127  A    
C43   C59   A    
C103  H12   S    
C83   C150  A    
C84   C149  A    
C173  O25   A    
O13   Zn1   S    
C89   H131  S    
C126  O57   S    
C14   H85   S    
C137  O68   S    
O18   Zn4   S    
C104  H14   S    
C201  H24   S    
C153  O45   A    
O3    Zn2   S    
C24   C201  A    
C2    C199  A    
O1    Zn12  S    
C6    H77   S    
C27   C199  A    
C179  O30   A    
C71   C136  A    
C78   C146  A    
C41   H112  S    
O14   Zn8   S    
C49   C55   A    
C114  H41   S    
C57   C206  A    
C168  O48   A    
C51   C53   A    
C169  O20   A    
O19   Zn3   S    
C28   C63   A    
C87   H123  S    
C27   C62   A    
C119  H56   S    
O67   Zn6   S    
C105  O66   S    
C10   C45   A    
C144  O74   S    
C127  O58   S    
C116  O76   S    
C160  O11   A    
C25   C196  A    
O23   Zn10  S    
O26   Zn2   S    
C19   C54   A    
C102  H8    S    
C74   C141  A    
C32   C67   A    
C123  C130  A    
C95   H147  S    
C18   H89   S    
C136  O66   S    
C160  C181  S    
C175  O27   A    
O34   Zn11  S    
C49   H120  S    
C8    C176  A    
O78   Zn5   S    
C56   C82   S    
C156  O3    A    
C190  H73   S    
C38   H109  S    
C148  O79   S    
C96   O58   S    
C122  H67   S    
C117  H50   S    
C118  H53   S    
C63   C75   S    
C88   H129  S    
C105  H19   S    
C176  C195  A    
C197  C198  A    
C30   H101  S    
C108  H27   S    
C140  O71   S    
C160  O7    A    
C112  C190  A    
C101  O51   S    
O23   Zn14  S    
C162  O42   A    
C111  H39   S    
C88   H126  S    
C91   H135  S    
C94   H145  S    
C21   C193  A    
C104  H16   S    
C1    C189  A    
C108  H28   S    
C47   H118  S    
C120  H60   S    
O56   Zn3   S    
C187  C196  A    
C5    H76   S    
C118  O79   S    
C83   C113  A    
C11   C47   A    
C132  C167  S    
C12   C48   A    
C27   H98   S    
C165  C194  A    
C45   H116  S    
C54   C84   S    
O34   Zn15  S    
C109  H30   S    
C94   H144  S    
O48   Zn13  S    
C25   H96   S    
C124  O54   S    
O40   Zn10  S    
C87   O49   S    
C26   C61   A    
C43   H114  S    
C48   H119  S    
C20   H91   S    
C206  H70   S    
C161  O8    A    
C174  O32   A    
C18   C53   A    
C154  C193  A    
C3    H74   S    
C114  H40   S    
O10   Zn14  S    
C171  O33   A    
C121  H63   S    
C97   O59   S    
C108  O70   S    
C197  H150  S    
C113  O52   S    
C62   C76   S    
O22   Zn3   S    
C93   H140  S    
C99   H160  S    
C103  O64   S    
O21   Zn5   S    
C191  H84   S    
C100  H5    S    
C37   H108  S    
C29   C201  A    
O25   Zn16  S    
C123  O53   S    
C58   C81   S    
C117  H52   S    
O12   Zn7   S    
C119  H58   S    
C139  C149  A    
C138  C150  A    
C120  H61   S    
C154  C169  S    
C29   H100  S    
O8    Zn12  S    
C32   C204  A    
C167  O18   A    
C111  H37   S    
C81   C148  A    
C112  C166  S    
C91   H133  S    
C134  O64   S    
C107  O69   S    
C80   C145  A    
C107  H26   S    
C70   C135  A    
C76   C128  A    
C106  H20   S    
C200  H13   S    
C186  C188  T    
C78   C126  A    
C82   C123  A    
C98   H156  S    
C180  C181  T    
C16   C112  A    
C177  O28   A    
O46   Zn15  S    
C14   C143  A    
C166  O41   A    
O43   Zn9   S    
C34   C67   A    
C20   C192  A    
C21   C56   A    
C158  O9    A    
C35   C202  A    
C23   H94   S    
C153  C188  S    
C79   C135  A    
C19   H90   S    
C162  O14   A    
C199  H2    S    
C97   H153  S    
C96   H152  S    
C85   C152  A    
C98   H157  S    
C189  H1    S    
C86   C151  A    
C68   C172  S    
C110  H33   S    
C109  O71   S    
C44   C60   A    
C202  H35   S    
C157  O4    A    
C163  O43   A    
C124  C129  A    
C67   C71   S    
C159  C182  S    
C121  H65   S    
C119  O80   S    
C135  O65   S    
C70   C137  A    
C80   C125  A    
C5    C40   A    
C24   C177  S    
C64   C74   S    
C102  O63   S    
C79   C86   A    
C195  H128  S    
C159  O10   A    
C103  H11   S    
C116  H47   S    
C31   C66   A    
C73   C131  A    
C89   H130  S    
C158  O5    A    
O12   Zn9   S    
C169  O44   A    
C140  C148  A    
O32   Zn14  S    
C34   C206  A    
C192  H95   S    
C48   C54   A    
C133  O63   S    
C28   C200  A    
C117  O77   S    
O30   Zn6   S    
C93   O54   S    
O28   Zn8   S    
C100  O62   S    
C92   H137  S    
C91   O52   S    
C14   C49   A    
C162  C176  S    
C73   C138  A    
C177  O39   A    
C114  H42   S    
C155  O2    A    
C121  O82   S    
C65   C73   S    
C163  C187  S    
C15   C50   A    
C4    C13   A    
C77   C142  A    
C164  O40   A    
O36   Zn11  S    
O41   Zn11  S    
C8    H79   S    
C38   C66   A    
C3    C38   A    
C6    C41   A    
C115  H45   S    
C125  C128  A    
C143  C192  A    
C131  O62   S    
C31   C203  A    
C120  O81   S    
C203  H46   S    
C84   C101  A    
C153  O84   A    
C147  O77   S    
C20   C55   A    
C88   O50   S    
C10   H81   S    
C194  H117  S    
O24   Zn4   S    
C81   C124  A    
C97   H155  S    
C196  H139  S    
C128  O59   S    
C178  O36   A    
C6    C198  A    
C87   H125  S    
C44   H115  S    
C115  H44   S    
C88   H127  S    
C17   C189  A    
C100  H4    S    
C36   C207  A    
C102  H7    S    
C118  H54   S    
C4    C39   A    
C36   H107  S    
C119  H59   S    
C105  H18   S    
C79   O49   S    
C161  C180  S    
C132  C191  A    
C90   O50   S    
C151  O82   S    
C125  O55   S    
C89   H132  S    
C74   C130  A    
C30   C65   A    
C28   H99   S    
C23   C195  A    
C122  H69   S    
C36   C69   A    
C207  H71   S    
C208  H72   S    
C157  O78   A    
C9    C44   A    
C113  C131  A    
C9    H80   S    
C173  C198  S    
C92   O53   S    
C137  C151  A    
C9    C187  A    
C155  C186  S    
C114  O74   S    
C172  O24   A    
C42   H113  S    
O34   Zn16  S    
C39   C63   A    
C32   H103  S    
O20   Zn6   S    
C40   C64   A    
O45   Zn4   S    
C98   O60   S    
C141  O72   S    
C33   H104  S    
C110  O72   S    
O4    Zn16  S    
C2    C174  S    
C47   C58   A    
C163  O15   A    
C5    C24   A    
C106  O68   S    
C156  O67   A    
O1    Zn4   S    
C130  O61   S    
O16   Zn2   S    
C143  C168  S    
O35   Zn1   S    
C110  H36   S    
C87   H124  S    
C33   C205  A    
C172  O35   A    
C26   H97   S    
C68   C205  A    
C95   H148  S    
C22   C194  A    
C75   C129  A    
C57   C171  S    
C17   H88   S    
