data_mof_unit_61384.cif
_audit_creation_date              2012-12-10T19:14:04-0500
_audit_creation_method            fapswitch 2.2
_symmetry_space_group_name_H-M    P1
_symmetry_Int_Tables_number       1
_space_group_crystal_system       triclinic
_cell_length_a                    38.910506
_cell_length_b                    38.910509
_cell_length_c                    23.534411
_cell_angle_alpha                 89.999984
_cell_angle_beta                  89.999989
_cell_angle_gamma                 90.0
_cell_volume                      35631.7476604

loop_
_atom_site_label
_atom_site_type_symbol
_atom_type_description
_atom_site_fract_x
_atom_site_fract_y
_atom_site_fract_z
_atom_type_partial_charge
C1    C     C_R   0.567208 0.000000 0.500000 0.863467
C2    C     C_R   0.973443 0.732247 0.526996 -0.213202
C3    C     C_R   0.000000 0.500000 0.390626 0.905397
C4    C     C_R   0.000000 0.500000 0.109374 0.905397
C5    C     C_R   0.500000 0.000000 0.109374 0.905396
C6    C     C_R   0.000000 0.500000 0.890626 0.905397
C7    C     C_R   0.500000 0.000000 0.890626 0.905397
C8    C     C_1   0.500000 1.000000 0.669587 -0.175836
C9    C     C_1   1.000000 0.500000 0.669587 -0.175837
C10   C     C_1   0.500000 0.000000 0.330413 -0.175836
C11   C     C_1   0.000000 0.500000 0.330413 -0.175837
C12   C     C_1   0.000000 0.500000 0.169587 -0.175837
C13   C     C_R   0.267753 0.973443 0.526996 -0.213202
C14   C     C_1   0.500000 0.000000 0.169587 -0.175837
C15   C     C_1   0.000000 0.500000 0.830413 -0.175837
C16   C     C_1   0.500000 1.000000 0.830413 -0.175837
C17   C     C_1   0.500000 1.000000 0.720365 0.018506
C18   C     C_1   1.000000 0.500000 0.720365 0.018506
C19   C     C_1   0.500000 0.000000 0.279635 0.018506
C20   C     C_1   1.000000 0.500000 0.279635 0.018506
C21   C     C_1   1.000000 0.500000 0.220365 0.018506
C22   C     C_1   0.500000 0.000000 0.220365 0.018506
C23   C     C_1   0.000000 0.500000 0.779635 0.018506
C24   C     C_R   0.026556 0.267753 0.526998 -0.213201
C25   C     C_1   0.500000 1.000000 0.779635 0.018506
C26   C     C_R   0.876987 0.005298 0.449120 -0.175012
C27   C     C_R   0.994703 0.876987 0.449119 -0.175011
C28   C     C_R   0.123013 0.994703 0.449119 -0.175011
C29   C     C_R   0.005296 0.123013 0.449119 -0.175013
C30   C     C_R   0.123013 0.005296 0.550881 -0.175012
C31   C     C_R   0.005297 0.876987 0.550881 -0.175011
C32   C     C_R   0.876987 0.994703 0.550880 -0.175013
C33   C     C_R   0.994703 0.123013 0.550881 -0.175013
C34   C     C_R   0.376987 0.505296 0.949119 -0.175012
C35   C     C_R   0.267753 0.026557 0.473004 -0.213202
C36   C     C_R   0.494706 0.376987 0.949119 -0.175013
C37   C     C_R   0.623013 0.494698 0.949121 -0.175012
C38   C     C_R   0.505296 0.623013 0.949119 -0.175011
C39   C     C_R   0.623013 0.505302 0.050879 -0.175012
C40   C     C_R   0.505295 0.376987 0.050881 -0.175012
C41   C     C_R   0.376987 0.494704 0.050881 -0.175012
C42   C     C_R   0.494704 0.623013 0.050881 -0.175012
C43   C     C_R   0.841286 0.005430 0.449203 -0.065354
C44   C     C_R   0.994571 0.841286 0.449203 -0.065354
C45   C     C_R   0.158714 0.994571 0.449203 -0.065354
C46   C     C_R   0.026557 0.732247 0.473004 -0.213202
C47   C     C_R   0.005429 0.158714 0.449203 -0.065353
C48   C     C_R   0.158714 0.005429 0.550797 -0.065354
C49   C     C_R   0.005429 0.841286 0.550797 -0.065355
C50   C     C_R   0.841286 0.994570 0.550797 -0.065354
C51   C     C_R   0.994571 0.158714 0.550797 -0.065354
C52   C     C_R   0.341286 0.505428 0.949203 -0.065354
C53   C     C_R   0.494573 0.341286 0.949202 -0.065355
C54   C     C_R   0.658714 0.494566 0.949204 -0.065353
C55   C     C_R   0.505428 0.658714 0.949202 -0.065355
C56   C     C_R   0.658714 0.505434 0.050796 -0.065353
C57   C     C_R   0.732247 0.973444 0.473002 -0.213201
C58   C     C_R   0.505427 0.341286 0.050798 -0.065355
C59   C     C_R   0.341286 0.494572 0.050798 -0.065354
C60   C     C_R   0.494572 0.658714 0.050797 -0.065355
C61   C     C_R   0.823450 0.000000 0.500000 0.195442
C62   C     C_R   0.000000 0.823450 0.500000 0.195443
C63   C     C_R   0.176550 1.000000 0.500000 0.195443
C64   C     C_R   1.000000 0.176550 0.500000 0.195441
C65   C     C_R   0.323450 0.500000 0.000000 0.195445
C66   C     C_R   0.500000 0.323450 0.000000 0.195441
C67   C     C_R   0.676550 0.500000 1.000000 0.195439
C68   C     C_R   0.973444 0.267753 0.473002 -0.213201
C69   C     C_R   0.500000 0.676550 1.000000 0.195445
C70   C     C_R   0.895041 0.000000 0.500000 -0.054004
C71   C     C_R   0.000000 0.895041 0.500000 -0.054005
C72   C     C_R   0.104959 1.000000 0.500000 -0.054005
C73   C     C_R   1.000000 0.104959 0.500000 -0.054005
C74   C     C_R   0.395041 0.500000 0.000000 -0.054005
C75   C     C_R   0.500000 0.395041 0.000000 -0.054006
C76   C     C_R   0.604959 0.500000 1.000000 -0.054004
C77   C     C_R   0.500000 0.604959 1.000000 -0.054004
C78   C     C_R   0.767970 0.026766 0.526978 0.369353
C79   C     C_R   0.232247 0.526558 0.026993 -0.213202
C80   C     C_R   0.973233 0.767970 0.526976 0.369353
C81   C     C_R   0.232030 0.973233 0.526976 0.369353
C82   C     C_R   0.026766 0.232030 0.526978 0.369353
C83   C     C_R   0.232030 0.026767 0.473024 0.369353
C84   C     C_R   0.026767 0.767970 0.473024 0.369353
C85   C     C_R   0.767970 0.973234 0.473022 0.369353
C86   C     C_R   0.973234 0.232030 0.473022 0.369353
C87   C     C_R   0.267970 0.526768 0.026973 0.369354
C88   C     C_R   0.473233 0.267970 0.026975 0.369353
C89   C     C_R   0.732030 0.473237 0.026986 0.369353
C90   C     C_R   0.473443 0.232247 0.026995 -0.213202
C91   C     C_R   0.526768 0.732030 0.026973 0.369354
C92   C     C_R   0.732030 0.526763 0.973014 0.369353
C93   C     C_R   0.526767 0.267970 0.973025 0.369352
C94   C     C_R   0.267970 0.473232 0.973027 0.369354
C95   C     C_R   0.473232 0.732030 0.973026 0.369354
C96   C     C_R   0.767753 0.473447 0.027006 -0.213201
C97   C     C_R   1.000000 0.567208 0.500000 0.863467
C98   C     C_R   0.526558 0.767753 0.026993 -0.213202
C99   C     C_R   0.767753 0.526553 0.972994 -0.213201
C100  C     C_R   0.526557 0.232247 0.973005 -0.213201
C101  C     C_R   0.232247 0.473442 0.973007 -0.213203
C102  C     C_R   0.473442 0.767753 0.973006 -0.213202
C103  C     C_R   0.714228 0.000000 0.500000 -0.038187
C104  C     C_R   0.000000 0.714228 0.500000 -0.038186
C105  C     C_R   0.285772 0.000000 0.500000 -0.038186
C106  C     C_R   1.000000 0.285772 0.500000 -0.038185
C107  C     C_R   0.214228 0.500000 0.000000 -0.038186
C108  C     C_R   0.432792 0.000000 0.500000 0.863468
C109  C     C_R   0.500000 0.214228 0.000000 -0.038185
C110  C     C_R   0.785771 0.500000 1.000000 -0.038187
C111  C     C_R   0.500000 0.785771 1.000000 -0.038185
C112  C     C_R   0.785991 0.000000 0.500000 -0.130084
C113  C     C_R   0.000000 0.785991 0.500000 -0.130085
C114  C     C_R   0.214009 0.000000 0.500000 -0.130085
C115  C     C_R   1.000000 0.214009 0.500000 -0.130083
C116  C     C_R   0.285991 0.500000 0.000000 -0.130086
C117  C     C_R   0.500000 0.285991 0.000000 -0.130084
C118  C     C_R   0.714009 0.500000 1.000000 -0.130082
C119  C     C_R   0.000000 0.432792 0.500000 0.863469
C120  C     C_R   0.500000 0.714009 1.000000 -0.130086
C121  C     C_R   0.658505 0.969419 0.510083 -0.155902
C122  C     C_R   0.030581 0.658505 0.510084 -0.155900
C123  C     C_R   0.341495 0.030581 0.510084 -0.155900
C124  C     C_R   0.969418 0.341495 0.510081 -0.155902
C125  C     C_R   0.341495 0.969419 0.489916 -0.155902
C126  C     C_R   0.969419 0.658505 0.489916 -0.155900
C127  C     C_R   0.658505 0.030581 0.489917 -0.155901
C128  C     C_R   0.030581 0.341495 0.489918 -0.155901
C129  C     C_R   0.158505 0.469419 0.010088 -0.155901
C130  C     C_R   0.067208 0.500000 0.000000 0.863466
C131  C     C_R   0.530581 0.158505 0.010086 -0.155901
C132  C     C_R   0.841495 0.530582 0.010074 -0.155902
C133  C     C_R   0.469419 0.841495 0.010087 -0.155900
C134  C     C_R   0.841495 0.469418 0.989926 -0.155901
C135  C     C_R   0.469419 0.158505 0.989914 -0.155901
C136  C     C_R   0.158505 0.530580 0.989912 -0.155899
C137  C     C_R   0.530581 0.841495 0.989913 -0.155901
C138  C     C_R   0.622806 0.969390 0.509886 -0.182434
C139  C     C_R   0.030610 0.622806 0.509887 -0.182434
C140  C     C_R   0.377194 0.030610 0.509887 -0.182434
C141  C     C_R   0.500000 0.067208 0.000000 0.863467
C142  C     C_R   0.969389 0.377194 0.509884 -0.182433
C143  C     C_R   0.377194 0.969390 0.490113 -0.182434
C144  C     C_R   0.969390 0.622806 0.490113 -0.182434
C145  C     C_R   0.622806 0.030611 0.490114 -0.182434
C146  C     C_R   0.030611 0.377194 0.490116 -0.182435
C147  C     C_R   0.122806 0.469390 0.009891 -0.182434
C148  C     C_R   0.530610 0.122806 0.009888 -0.182435
C149  C     C_R   0.877194 0.530612 0.009877 -0.182435
C150  C     C_R   0.469390 0.877194 0.009889 -0.182434
C151  C     C_R   0.877194 0.469388 0.990123 -0.182434
C152  C     C_R   0.932792 0.500000 0.000000 0.863470
C153  C     C_R   0.469390 0.122806 0.990112 -0.182434
C154  C     C_R   0.122806 0.530610 0.990109 -0.182435
C155  C     C_R   0.530610 0.877194 0.990111 -0.182434
C156  C     C_R   0.604743 0.000000 0.500000 -0.040685
C157  C     C_R   0.000000 0.604743 0.500000 -0.040685
C158  C     C_R   0.395257 1.000000 0.500000 -0.040685
C159  C     C_R   1.000000 0.395257 0.500000 -0.040686
C160  C     C_R   0.104743 0.500000 0.000000 -0.040684
C161  C     C_R   0.500000 0.104743 0.000000 -0.040685
C162  C     C_R   0.895257 0.500000 1.000000 -0.040688
C163  C     C_R   0.500000 0.932792 0.000000 0.863467
C164  C     C_R   0.500000 0.895257 1.000000 -0.040684
C165  C     C_R   0.676568 0.000000 0.500000 0.159496
C166  C     C_R   0.000000 0.676568 0.500000 0.159495
C167  C     C_R   0.323432 0.000000 0.500000 0.159495
C168  C     C_R   1.000000 0.323432 0.500000 0.159496
C169  C     C_R   0.176568 0.500000 0.000000 0.159494
C170  C     C_R   0.500000 0.176568 0.000000 0.159496
C171  C     C_R   0.823432 0.500000 1.000000 0.159495
C172  C     C_R   0.500000 0.823432 1.000000 0.159496
C173  C     C_R   0.000000 0.932550 0.500000 0.891398
C174  C     C_R   0.732247 0.026556 0.526998 -0.213202
C175  C     C_R   0.067450 0.000000 0.500000 0.891397
C176  C     C_R   0.000000 0.067450 0.500000 0.891397
C177  C     C_R   0.932550 0.000000 0.500000 0.891398
C178  C     C_R   0.500000 0.432550 0.000000 0.891398
C179  C     C_R   0.567450 0.500000 0.000000 0.891396
C180  C     C_R   0.500000 0.567450 0.000000 0.891397
C181  C     C_R   0.432550 0.500000 0.000000 0.891399
C182  C     C_R   0.500000 0.000000 0.609374 0.905398
C183  C     C_R   0.000000 0.500000 0.609374 0.905397
C184  C     C_R   0.500000 0.000000 0.390626 0.905398
Cl1   Cl    Cl    0.789301 0.061372 0.560018 -0.581902
Cl2   Cl    Cl    0.438625 0.289301 0.060011 -0.581901
Cl3   Cl    Cl    0.710699 0.438634 0.060036 -0.581904
Cl4   Cl    Cl    0.561376 0.710699 0.060008 -0.581903
Cl5   Cl    Cl    0.710699 0.561365 0.939964 -0.581904
Cl6   Cl    Cl    0.561375 0.289301 0.939989 -0.581904
Cl7   Cl    Cl    0.289301 0.438624 0.939993 -0.581899
Cl8   Cl    Cl    0.438624 0.710699 0.939992 -0.581899
Cl9   Cl    Cl    0.938627 0.789301 0.560014 -0.581902
Cl10  Cl    Cl    0.210699 0.938626 0.560014 -0.581901
Cl11  Cl    Cl    0.061372 0.210699 0.560017 -0.581903
Cl12  Cl    Cl    0.210699 0.061374 0.439986 -0.581902
Cl13  Cl    Cl    0.061373 0.789301 0.439986 -0.581901
Cl14  Cl    Cl    0.789301 0.938628 0.439983 -0.581902
Cl15  Cl    Cl    0.938628 0.210699 0.439982 -0.581903
Cl16  Cl    Cl    0.289301 0.561376 0.060007 -0.581900
H1    H     H_    0.890415 0.009549 0.409427 0.165945
H2    H     H_    0.490456 0.390415 0.909426 0.165945
H3    H     H_    0.609585 0.490443 0.909429 0.165944
H4    H     H_    0.509546 0.609585 0.909426 0.165945
H5    H     H_    0.609585 0.509556 0.090571 0.165944
H6    H     H_    0.509544 0.390415 0.090575 0.165946
H7    H     H_    0.390415 0.490454 0.090574 0.165944
H8    H     H_    0.490454 0.609585 0.090574 0.165944
H9    H     H_    0.827518 0.009750 0.409829 0.156417
H10   H     H_    0.990251 0.827518 0.409828 0.156417
H11   H     H_    0.172482 0.990252 0.409828 0.156417
H12   H     H_    0.990453 0.890415 0.409426 0.165945
H13   H     H_    0.009748 0.172482 0.409828 0.156418
H14   H     H_    0.172482 0.009748 0.590172 0.156417
H15   H     H_    0.009749 0.827518 0.590172 0.156417
H16   H     H_    0.827518 0.990250 0.590171 0.156417
H17   H     H_    0.990251 0.172482 0.590171 0.156419
H18   H     H_    0.327518 0.509747 0.909828 0.156415
H19   H     H_    0.490255 0.327518 0.909828 0.156418
H20   H     H_    0.672481 0.490242 0.909831 0.156420
H21   H     H_    0.509747 0.672482 0.909828 0.156416
H22   H     H_    0.672482 0.509758 0.090169 0.156419
H23   H     H_    0.109585 0.990453 0.409426 0.165945
H24   H     H_    0.509745 0.327518 0.090173 0.156418
H25   H     H_    0.327518 0.490253 0.090172 0.156415
H26   H     H_    0.490253 0.672482 0.090172 0.156415
H27   H     H_    0.718558 0.047025 0.548480 0.182868
H28   H     H_    0.952973 0.718558 0.548477 0.182868
H29   H     H_    0.281442 0.952973 0.548477 0.182868
H30   H     H_    0.047025 0.281442 0.548480 0.182868
H31   H     H_    0.281442 0.047027 0.451523 0.182868
H32   H     H_    0.047026 0.718558 0.451523 0.182868
H33   H     H_    0.718558 0.952975 0.451520 0.182868
H34   H     H_    0.009547 0.109585 0.409426 0.165945
H35   H     H_    0.952975 0.281442 0.451520 0.182868
H36   H     H_    0.218558 0.547029 0.048471 0.182868
H37   H     H_    0.452973 0.218558 0.048475 0.182868
H38   H     H_    0.781442 0.452980 0.048494 0.182868
H39   H     H_    0.547028 0.781442 0.048472 0.182868
H40   H     H_    0.781442 0.547020 0.951506 0.182868
H41   H     H_    0.547027 0.218558 0.951525 0.182868
H42   H     H_    0.218558 0.452971 0.951529 0.182868
H43   H     H_    0.452972 0.781442 0.951528 0.182868
H44   H     H_    0.671991 0.945641 0.518762 0.147579
H45   H     H_    0.109585 0.009547 0.590574 0.165944
H46   H     H_    0.054359 0.671991 0.518764 0.147578
H47   H     H_    0.328008 0.054359 0.518764 0.147578
H48   H     H_    0.945640 0.328009 0.518759 0.147578
H49   H     H_    0.328009 0.945641 0.481236 0.147578
H50   H     H_    0.945641 0.671991 0.481235 0.147578
H51   H     H_    0.671991 0.054359 0.481238 0.147578
H52   H     H_    0.054360 0.328008 0.481241 0.147577
H53   H     H_    0.171991 0.445642 0.018771 0.147578
H54   H     H_    0.554358 0.171991 0.018767 0.147578
H55   H     H_    0.828008 0.554361 0.018746 0.147579
H56   H     H_    0.009547 0.890415 0.590574 0.165944
H57   H     H_    0.445642 0.828009 0.018768 0.147577
H58   H     H_    0.828008 0.445639 0.981254 0.147578
H59   H     H_    0.445641 0.171991 0.981233 0.147578
H60   H     H_    0.171991 0.554358 0.981229 0.147578
H61   H     H_    0.554358 0.828009 0.981231 0.147578
H62   H     H_    0.609390 0.945497 0.517977 0.165880
H63   H     H_    0.054503 0.609390 0.517980 0.165880
H64   H     H_    0.390610 0.054503 0.517979 0.165880
H65   H     H_    0.945497 0.390610 0.517974 0.165881
H66   H     H_    0.390610 0.945497 0.482020 0.165880
H67   H     H_    0.890415 0.990451 0.590573 0.165945
H68   H     H_    0.945497 0.609390 0.482020 0.165880
H69   H     H_    0.609390 0.054503 0.482022 0.165880
H70   H     H_    0.054503 0.390610 0.482026 0.165881
H71   H     H_    0.109390 0.445498 0.017987 0.165879
H72   H     H_    0.554502 0.109390 0.017983 0.165880
H73   H     H_    0.890610 0.554505 0.017961 0.165883
H74   H     H_    0.445498 0.890610 0.017984 0.165880
H75   H     H_    0.890610 0.445495 0.982038 0.165883
H76   H     H_    0.445498 0.109390 0.982017 0.165880
H77   H     H_    0.109390 0.554502 0.982013 0.165879
H78   H     H_    0.990453 0.109585 0.590573 0.165945
H79   H     H_    0.554502 0.890610 0.982016 0.165879
H80   H     H_    0.390415 0.509546 0.909426 0.165944
O1    O     O_R   0.550900 0.028770 0.500040 -0.622011
O2    O     O_R   0.471230 0.050900 0.000040 -0.622010
O3    O     O_R   0.949100 0.471230 0.000040 -0.622011
O4    O     O_R   0.528770 0.949100 0.000040 -0.622010
O5    O     O_R   0.949100 0.528770 0.999960 -0.622012
O6    O     O_R   0.528770 0.050900 0.999960 -0.622010
O7    O     O_R   0.050900 0.471230 0.999960 -0.622009
O8    O     O_R   0.471230 0.949100 0.999960 -0.622009
O9    O     O_R   0.499990 0.028770 0.582790 -0.609927
O10   O     O_R   0.971230 0.499990 0.582790 -0.609925
O11   O     O_R   0.500010 0.971230 0.582790 -0.609926
O12   O     O_R   0.971230 0.550900 0.500040 -0.622010
O13   O     O_R   0.028770 0.500010 0.582790 -0.609927
O14   O     O_R   0.500010 0.028770 0.417210 -0.609927
O15   O     O_R   0.028770 0.499990 0.417210 -0.609926
O16   O     O_R   0.499990 0.971230 0.417210 -0.609926
O17   O     O_R   0.971230 0.500010 0.417210 -0.609926
O18   O     O_R   0.999990 0.528770 0.082790 -0.609926
O19   O     O_R   0.471230 0.999990 0.082790 -0.609926
O20   O     O_R   0.000010 0.471230 0.082790 -0.609927
O21   O     O_R   0.528770 0.000010 0.082790 -0.609927
O22   O     O_R   0.000010 0.528770 0.917210 -0.609927
O23   O     O_R   0.449100 0.971230 0.500040 -0.622010
O24   O     O_R   0.528770 0.999990 0.917210 -0.609927
O25   O     O_R   0.999990 0.471230 0.917210 -0.609924
O26   O     O_R   0.471230 0.000010 0.917210 -0.609926
O27   O     O_R   0.999980 0.949050 0.546640 -0.621163
O28   O     O_R   0.050950 0.999980 0.546640 -0.621163
O29   O     O_R   0.000020 0.050950 0.546640 -0.621163
O30   O     O_R   0.949050 0.000020 0.546640 -0.621162
O31   O     O_R   0.000020 0.949050 0.453360 -0.621162
O32   O     O_R   0.949050 0.999980 0.453360 -0.621162
O33   O     O_R   0.999980 0.050950 0.453360 -0.621163
O34   O     O_R   0.028770 0.449100 0.500040 -0.622011
O35   O     O_R   0.050950 0.000020 0.453360 -0.621162
O36   O     O_R   0.499980 0.449050 0.046640 -0.621162
O37   O     O_R   0.550950 0.499980 0.046640 -0.621162
O38   O     O_R   0.500020 0.550950 0.046640 -0.621164
O39   O     O_R   0.449050 0.500020 0.046640 -0.621163
O40   O     O_R   0.500020 0.449050 0.953360 -0.621164
O41   O     O_R   0.449050 0.499980 0.953360 -0.621162
O42   O     O_R   0.499980 0.550950 0.953360 -0.621162
O43   O     O_R   0.550950 0.500020 0.953360 -0.621161
O44   O     O_R   0.449100 0.028770 0.499960 -0.622011
O45   O     O_R   0.028770 0.550900 0.499960 -0.622011
O46   O     O_R   0.550900 0.971230 0.499960 -0.622010
O47   O     O_R   0.971230 0.449100 0.499960 -0.622010
O48   O     O_R   0.050900 0.528770 0.000040 -0.622010
Zn1   Zn    Zn3+2 0.500000 0.038410 0.500000 0.986919
Zn2   Zn    Zn3+2 0.000000 0.000000 0.437580 0.991794
Zn3   Zn    Zn3+2 0.500000 0.500000 0.062420 0.991794
Zn4   Zn    Zn3+2 0.500000 0.500000 0.937580 0.991794
Zn5   Zn    Zn3+2 0.961590 0.500000 0.500000 0.986921
Zn6   Zn    Zn3+2 0.500000 0.961590 0.500000 0.986919
Zn7   Zn    Zn3+2 0.038410 0.500000 0.500000 0.986919
Zn8   Zn    Zn3+2 0.000000 0.538410 0.000000 0.986919
Zn9   Zn    Zn3+2 0.461590 0.000000 0.000000 0.986920
Zn10  Zn    Zn3+2 0.000000 0.461590 0.000000 0.986920
Zn11  Zn    Zn3+2 0.538410 0.000000 0.000000 0.986920
Zn12  Zn    Zn3+2 0.000000 0.000000 0.562420 0.991794

loop_
_geom_bond_atom_site_label_1
_geom_bond_atom_site_label_2
_ccdc_geom_bond_type
C101  C107  A    
C121  H44   S    
C91   Cl4   S    
C108  O44   A    
C177  O32   A    
C10   C184  S    
C148  H72   S    
C142  H65   S    
C79   C87   A    
C2    H28   S    
C74   C181  S    
C93   Cl6   S    
O13   Zn7   S    
C68   C106  A    
C31   H56   S    
C122  C139  A    
O20   Zn10  S    
O12   Zn5   S    
O10   Zn5   S    
O17   Zn5   S    
C111  C172  S    
C36   C53   A    
C41   C74   A    
C124  C168  A    
C38   C55   A    
C7    O26   A    
C136  H60   S    
C89   C118  A    
C4    C12   S    
C95   C102  A    
C122  H46   S    
C110  C171  S    
C100  C109  A    
C64   C115  S    
C38   H4    S    
C83   C114  A    
C102  C111  A    
C4    O18   A    
C87   Cl16  S    
C11   C20   T    
C77   C180  S    
C40   C58   A    
C146  H70   S    
C47   C64   A    
C48   C63   A    
C98   H39   S    
C99   C110  A    
C177  O30   A    
C153  C161  A    
O33   Zn2   S    
C41   H7    S    
C174  H27   S    
C181  O41   A    
C39   C56   A    
C2    C104  A    
C127  C165  A    
O40   Zn4   S    
O35   Zn2   S    
C82   Cl11  S    
C127  C145  A    
C46   C84   A    
C99   H40   S    
C33   C73   A    
C97   O45   A    
C27   C71   A    
C92   Cl5   S    
C43   C61   A    
C107  C169  S    
C16   C25   T    
C163  O8    A    
C49   C62   A    
O11   Zn6   S    
C34   C52   A    
C51   C64   A    
C150  H74   S    
C79   H36   S    
C40   C75   A    
C54   C67   A    
C84   Cl13  S    
C49   H15   S    
O36   Zn3   S    
C8    C17   T    
C17   C25   S    
C89   C96   A    
C125  H49   S    
C1    O1    A    
C134  C151  A    
C123  C140  A    
C57   C85   A    
C60   H26   S    
C91   C98   A    
C43   H9    S    
C67   C118  S    
C141  O2    A    
C129  C147  A    
C3    C11   S    
C71   C173  S    
C85   Cl14  S    
C20   C21   S    
C139  C157  A    
C119  C159  S    
C149  C162  A    
C4    O20   A    
C5    O21   A    
O27   Zn12  S    
C52   C65   A    
C97   C157  S    
O14   Zn1   S    
C56   H22   S    
O18   Zn8   S    
C175  O28   A    
C139  H63   S    
O46   Zn6   S    
C76   C179  S    
O15   Zn7   S    
C180  O38   A    
O37   Zn3   S    
O8    Zn9   S    
C181  O39   A    
O39   Zn3   S    
C29   C47   A    
C30   C48   A    
C68   H35   S    
C133  C172  A    
C82   C115  A    
C175  O35   A    
C137  C155  A    
C72   C175  S    
C92   C118  A    
C3    O17   A    
C155  H79   S    
C140  C158  A    
O31   Zn2   S    
C27   C44   A    
C81   C114  A    
C182  O11   A    
C35   H31   S    
C31   C71   A    
C176  O33   A    
C93   C117  A    
C147  C160  A    
C33   H78   S    
C37   H3    S    
C26   H1    S    
C32   C70   A    
O44   Zn1   S    
C104  C166  S    
C103  C174  A    
C86   C115  A    
O25   Zn10  S    
C124  H48   S    
C1    C156  S    
C35   C105  A    
C36   C75   A    
O42   Zn4   S    
C119  O34   A    
C101  H42   S    
C55   C69   A    
C95   Cl8   S    
C130  O48   A    
C129  H53   S    
C103  C165  S    
C176  O29   A    
O38   Zn3   S    
C24   C106  A    
C143  C158  A    
C46   H32   S    
C154  H77   S    
C133  C150  A    
C30   C72   A    
C152  O3    A    
C70   C177  S    
C121  C165  A    
C135  H59   S    
C14   C22   T    
C3    O15   A    
C179  O43   A    
C59   C65   A    
C128  C146  A    
O5    Zn8   S    
C60   C69   A    
C125  C143  A    
C126  C144  A    
C27   H12   S    
C182  O9    A    
C9    C18   T    
C180  O42   A    
C163  O4    A    
C42   C77   A    
C140  H64   S    
C50   C61   A    
O43   Zn4   S    
C90   C109  A    
C144  C157  A    
C61   C112  S    
C151  H75   S    
C92   C99   A    
C137  H61   S    
C53   H19   S    
C142  C159  A    
C178  O36   A    
C28   C72   A    
C51   H17   S    
C80   Cl9   S    
C45   H11   S    
C125  C167  A    
C24   H30   S    
C13   C81   A    
C32   H67   S    
C130  C160  S    
O28   Zn12  S    
C94   Cl7   S    
C137  C172  A    
C147  H71   S    
C6    O22   A    
C145  C156  A    
C138  H62   S    
C66   C117  S    
C35   C83   A    
C42   H8    S    
C1    O46   A    
C86   Cl15  S    
C85   C112  A    
C133  H57   S    
O4    Zn11  S    
C132  C149  A    
C89   Cl3   S    
C144  H68   S    
C96   H38   S    
C31   C49   A    
C6    O25   A    
C57   C103  A    
C48   H14   S    
C173  O27   A    
C62   C113  S    
C13   C105  A    
C184  O14   A    
C58   H24   S    
C152  O5    A    
C46   C104  A    
C149  H73   S    
C9    C183  S    
C136  C154  A    
C50   H16   S    
C10   C19   T    
C151  C162  A    
C79   C107  A    
C78   Cl1   S    
O41   Zn4   S    
C5    C14   S    
O34   Zn7   S    
C34   C74   A    
O9    Zn1   S    
C7    C16   S    
C37   C76   A    
C88   C90   A    
O2    Zn9   S    
C26   C70   A    
C183  O13   A    
O47   Zn5   S    
C150  C164  A    
C8    C182  S    
C94   C116  A    
C90   H37   S    
C130  O7    A    
C126  C166  A    
C38   C77   A    
C95   C120  A    
C33   C51   A    
C69   C120  S    
C52   H18   S    
O24   Zn11  S    
C126  H50   S    
C143  H66   S    
C73   C176  S    
C5    O19   A    
O48   Zn8   S    
O22   Zn8   S    
C96   C110  A    
C119  O47   A    
C47   H13   S    
C44   H10   S    
C59   H25   S    
C29   H34   S    
C13   H29   S    
C108  O23   A    
C108  C158  S    
C78   C112  A    
C102  H43   S    
O23   Zn6   S    
C152  C162  S    
C100  H41   S    
O26   Zn9   S    
C131  C170  A    
C141  C161  S    
C84   C113  A    
C122  C166  A    
C30   H45   S    
C68   C86   A    
C163  C164  S    
C184  O16   A    
O30   Zn12  S    
C131  H54   S    
C173  O31   A    
C128  H52   S    
O7    Zn10  S    
O29   Zn12  S    
C148  C161  A    
C129  C169  A    
C135  C170  A    
C29   C73   A    
C83   Cl12  S    
C145  H69   S    
O6    Zn11  S    
C75   C178  S    
C24   C82   A    
C132  H55   S    
C81   Cl10  S    
C63   C114  S    
C58   C66   A    
C94   C101  A    
C132  C171  A    
C178  O40   A    
C127  H51   S    
C179  O37   A    
C134  H58   S    
C55   H21   S    
C123  C167  A    
C7    O24   A    
C15   C23   T    
C6    C15   S    
C124  C142  A    
O21   Zn11  S    
C36   H2    S    
C26   C43   A    
C40   H6    S    
C28   C45   A    
O32   Zn2   S    
C18   C23   S    
C19   C22   S    
C41   C59   A    
C42   C60   A    
C146  C159  A    
C44   C62   A    
C12   C21   T    
C45   C63   A    
C105  C167  S    
C106  C168  S    
C121  C138  A    
C154  C160  A    
C93   C100  A    
C87   C116  A    
C131  C148  A    
C39   C76   A    
C80   C113  A    
C53   C66   A    
C32   C50   A    
C37   C54   A    
C134  C171  A    
O19   Zn9   S    
C65   C116  S    
O16   Zn6   S    
O45   Zn7   S    
C141  O6    A    
C109  C170  S    
C78   C174  A    
C138  C156  A    
C34   H80   S    
C98   C111  A    
O3    Zn10  S    
C183  O10   A    
C57   H33   S    
C54   H20   S    
C155  C164  A    
C56   C67   A    
C135  C153  A    
C97   O12   A    
C123  H47   S    
C28   H23   S    
C39   H5    S    
C88   Cl2   S    
C153  H76   S    
O1    Zn1   S    
C2    C80   A    
C136  C169  A    
C128  C168  A    
C91   C120  A    
C88   C117  A    
