data_mof_unit_42542.cif
_audit_creation_date              2012-12-10T17:15:10-0500
_audit_creation_method            fapswitch 2.2
_symmetry_space_group_name_H-M    P1
_symmetry_Int_Tables_number       1
_space_group_crystal_system       triclinic
_cell_length_a                    10.071729
_cell_length_b                    10.917153
_cell_length_c                    12.96889
_cell_angle_alpha                 91.856055
_cell_angle_beta                  92.701847
_cell_angle_gamma                 95.578095
_cell_volume                      1416.67832596

loop_
_atom_site_label
_atom_site_type_symbol
_atom_type_description
_atom_site_fract_x
_atom_site_fract_y
_atom_site_fract_z
_atom_type_partial_charge
C1    C     C_R   0.444730 0.267887 0.489402 0.948294
C2    C     C_R   0.637908 0.410927 0.047351 -0.243824
C3    C     C_R   0.364019 0.566892 0.848106 -0.237947
C4    C     C_R   0.635976 0.433067 0.151899 -0.237898
C5    C     C_R   0.549534 0.440423 0.873014 -0.085773
C6    C     C_R   0.450480 0.559569 0.126985 -0.085895
C7    C     C_R   0.547145 0.462168 0.979899 0.132540
C8    C     C_R   0.452884 0.537828 0.020102 0.132518
C9    C     C_2   0.411239 0.137311 0.491830 -0.448368
C10   C     C_2   0.588736 0.862702 0.508147 -0.448380
C11   C     C_2   0.505799 0.060705 0.476281 -0.011614
C12   C     C_R   0.555270 0.732117 0.510586 0.948299
C13   C     C_2   0.494134 0.939287 0.523638 -0.011592
C14   C     C_R   0.354428 0.641046 0.170061 0.138242
C15   C     C_R   0.216923 0.602045 0.166113 -0.123259
C16   C     C_R   0.126544 0.679410 0.204326 -0.176139
C17   C     C_R   0.172904 0.794844 0.248779 -0.151012
C18   C     C_R   0.309704 0.832901 0.255288 -0.120695
C19   C     C_R   0.400484 0.756593 0.215897 -0.128625
C20   C     C_R   0.645458 0.358822 0.829925 0.138204
C21   C     C_R   0.599202 0.243433 0.783921 -0.128492
C22   C     C_R   0.689818 0.167029 0.744438 -0.120578
C23   C     C_2   0.071513 0.488575 0.506482 -0.140414
C24   C     C_R   0.826657 0.204818 0.751028 -0.150993
C25   C     C_R   0.873227 0.320092 0.795649 -0.176121
C26   C     C_R   0.783013 0.397572 0.833943 -0.123515
C27   C     C_R   0.378980 0.902348 0.589031 0.189638
C28   C     C_R   0.400843 0.890299 0.695804 -0.170652
C29   C     C_R   0.293684 0.857350 0.757279 -0.158612
C30   C     C_R   0.164557 0.832786 0.712352 -0.117298
C31   C     C_R   0.142162 0.842180 0.605898 -0.151944
C32   C     C_R   0.248712 0.877109 0.544417 -0.123945
C33   C     C_R   0.620887 0.097622 0.410824 0.189622
C34   C     C_2   0.928484 0.511408 0.493503 -0.140434
C35   C     C_R   0.751187 0.122880 0.455365 -0.123942
C36   C     C_R   0.857671 0.157786 0.393817 -0.151862
C37   C     C_R   0.835176 0.167155 0.287372 -0.117431
C38   C     C_R   0.706012 0.142593 0.242517 -0.158677
C39   C     C_R   0.598921 0.109650 0.304056 -0.170622
C40   C     C_R   0.474091 0.498235 0.698091 0.877086
C41   C     C_R   0.525909 0.501764 0.301910 0.877098
C42   C     C_R   0.540240 0.502286 0.192108 -0.093718
C43   C     C_R   0.459765 0.497705 0.807895 -0.093774
C44   C     C_R   0.362091 0.589029 0.952656 -0.243765
H1    H     H_    0.706040 0.390744 0.201897 0.182421
H2    H     H_    0.131977 0.618154 0.411077 0.179022
H3    H     H_    0.180067 0.512413 0.132360 0.123477
H4    H     H_    0.020705 0.649471 0.200292 0.132394
H5    H     H_    0.102913 0.854337 0.279069 0.122340
H6    H     H_    0.345097 0.921498 0.291098 0.124823
H7    H     H_    0.506208 0.787333 0.220965 0.112406
H8    H     H_    0.493443 0.212904 0.778775 0.112293
H9    H     H_    0.654258 0.078576 0.708476 0.124936
H10   H     H_    0.896517 0.145244 0.720663 0.122305
H11   H     H_    0.979099 0.349826 0.799742 0.132397
H12   H     H_    0.293926 0.609169 0.798110 0.182409
H13   H     H_    0.820037 0.487089 0.867810 0.123519
H14   H     H_    0.500500 0.906660 0.731499 0.117975
H15   H     H_    0.310990 0.849573 0.839712 0.135469
H16   H     H_    0.081980 0.806077 0.759988 0.124981
H17   H     H_    0.042240 0.822661 0.571024 0.125938
H18   H     H_    0.230006 0.884751 0.462269 0.120036
H19   H     H_    0.769971 0.115266 0.537507 0.119990
H20   H     H_    0.957622 0.177311 0.428635 0.125956
H21   H     H_    0.917702 0.193861 0.239687 0.124969
H22   H     H_    0.688628 0.150372 0.160096 0.135514
H23   H     H_    0.289898 0.648472 0.979012 0.155133
H24   H     H_    0.499232 0.093286 0.268417 0.117959
H25   H     H_    0.710066 0.351432 0.021007 0.155084
H26   H     H_    0.682293 0.891126 0.474062 0.147729
H27   H     H_    0.317714 0.108912 0.525976 0.147741
H28   H     H_    0.899397 0.581205 0.441567 0.159755
H29   H     H_    0.100597 0.418762 0.558402 0.159758
H30   H     H_    0.868027 0.381879 0.588957 0.179000
N1    N     N_2   0.162330 0.550370 0.457540 -0.187841
N2    N     N_2   0.837670 0.449630 0.542460 -0.187858
O1    O     O_R   0.567930 0.307680 0.508550 -0.586593
O2    O     O_R   0.432070 0.692320 0.491450 -0.586578
O3    O     O_R   0.351090 0.340020 0.481290 -0.625305
O4    O     O_R   0.648910 0.659980 0.518710 -0.625293
O5    O     O_R   0.590490 0.486480 0.665020 -0.601750
O6    O     O_R   0.409510 0.513520 0.334980 -0.601789
O7    O     O_R   0.373660 0.518820 0.637760 -0.621066
O8    O     O_R   0.626340 0.481180 0.362240 -0.621073
Zn1   Zn    Zn3+2 0.644780 0.478400 0.518200 0.956837
Zn2   Zn    Zn3+2 0.355220 0.521600 0.481800 0.956843

loop_
_geom_bond_atom_site_label_1
_geom_bond_atom_site_label_2
_ccdc_geom_bond_type
C1    O1    A    
C39   H24   S    
C31   H17   S    
C35   C36   A    
C15   H3    S    
C16   H4    S    
C7    C8    A    
C5    C20   S    
C3    C43   A    
C29   C30   A    
H30   N2    S    
C36   C37   A    
C37   C38   A    
C30   C31   A    
C24   H10   S    
C15   C16   A    
C12   O2    A    
C18   C19   A    
C41   C42   S    
C2    C7    A    
C40   C43   S    
C38   H22   S    
C16   C17   A    
C37   H21   S    
C2    H25   S    
O2    Zn2   S    
C5    C43   A    
O1    Zn1   S    
C21   C22   A    
C40   O7    A    
C23   H29   S    
C40   O5    A    
H2    N1    S    
C22   H9    S    
C4    H1    S    
C3    C44   A    
C9    H27   S    
C11   C33   S    
C1    C9    S    
O8    Zn1   S    
C17   H5    S    
C5    C7    A    
C6    C8    A    
C25   C26   A    
O6    Zn2   S    
C41   O8    A    
C30   H16   S    
C2    C4    A    
O4    Zn1   S    
C6    C14   S    
C3    H12   S    
N1    Zn2   S    
C31   C32   A    
C23   C34   S    
C17   C18   A    
C33   C39   A    
C24   C25   A    
C9    C11   D    
C8    C44   A    
C10   C12   S    
C10   H26   S    
C1    O3    A    
C22   C24   A    
C34   H28   S    
C18   H6    S    
C28   C29   A    
C27   C32   A    
C14   C19   A    
C25   H11   S    
C23   N1    D    
C20   C26   A    
C10   C13   D    
C28   H14   S    
C32   H18   S    
C11   C13   S    
C38   C39   A    
C4    C42   A    
C41   O6    A    
C12   O4    A    
C33   C35   A    
O3    Zn2   S    
C26   H13   S    
C19   H7    S    
O7    Zn2   S    
C20   C21   A    
C6    C42   A    
C27   C28   A    
C29   H15   S    
C14   C15   A    
C13   C27   S    
C44   H23   S    
C35   H19   S    
C36   H20   S    
N2    Zn1   S    
C21   H8    S    
O5    Zn1   S    
C34   N2    D    
