data_mof_unit_34562.cif
_audit_creation_date              2012-12-10T18:10:18-0500
_audit_creation_method            fapswitch 2.2
_symmetry_space_group_name_H-M    P1
_symmetry_Int_Tables_number       1
_space_group_crystal_system       triclinic
_cell_length_a                    10.845456
_cell_length_b                    9.892808
_cell_length_c                    15.776826
_cell_angle_alpha                 90.714696
_cell_angle_beta                  90.699471
_cell_angle_gamma                 91.338616
_cell_volume                      1692.00154349

loop_
_atom_site_label
_atom_site_type_symbol
_atom_type_description
_atom_site_fract_x
_atom_site_fract_y
_atom_site_fract_z
_atom_type_partial_charge
C1    C     C_R   0.262151 0.498585 0.499398 0.764367
C2    C     C_3   0.637379 0.521595 0.949422 -0.544303
C3    C     C_3   0.644961 0.509338 0.049162 -0.061732
C4    C     C_1   0.501644 0.503113 0.824157 -0.030939
C5    C     C_1   0.504808 0.497800 0.176193 0.003714
C6    C     C_1   0.502371 0.498151 0.251890 -0.059447
C7    C     C_3   0.078563 0.587650 0.570370 -0.406817
C8    C     C_3   0.070449 0.353682 0.506914 -0.387751
C9    C     C_3   0.936686 0.583337 0.572938 -0.403931
C10   C     C_3   0.929470 0.360106 0.505752 -0.372976
C11   C     C_3   0.080310 0.549406 0.410449 -0.408086
C12   C     C_3   0.125532 0.497207 0.497092 0.095815
C13   C     C_3   0.881447 0.505025 0.494804 0.070577
C14   C     C_R   0.500172 0.499392 0.341554 0.831363
C15   C     C_3   0.937292 0.566015 0.409797 0.327009
C16   C     C_3   0.610003 0.084967 0.554117 -0.121257
C17   C     C_3   0.589277 0.920453 0.572025 -0.123561
C18   C     C_3   0.389369 0.080371 0.544516 -0.233796
C19   C     C_3   0.379524 0.917005 0.530170 -0.202045
C20   C     C_3   0.489404 0.084543 0.409713 -0.143963
C21   C     C_3   0.507755 0.916837 0.409430 -0.110054
C22   C     C_R   0.739914 0.501657 0.497866 0.781878
C23   C     C_R   0.499993 0.500731 0.658573 0.817603
C24   C     C_3   0.428224 0.617101 0.052032 -0.365031
C25   C     C_3   0.444199 0.366577 0.048158 -0.408983
C26   C     C_3   0.453828 0.362361 0.949784 -0.000219
C27   C     C_3   0.429315 0.624347 0.953983 0.021599
C28   C     C_1   0.500881 0.502437 0.748368 -0.088116
C29   C     C_3   0.507827 0.498409 0.083626 0.082826
C30   C     C_3   0.502009 0.502322 0.916760 0.216206
Cu1   Cu    Cu3+1 0.499860 0.642410 0.500040 1.001926
Cu2   Cu    Cu3+1 0.499860 0.357590 0.500040 0.976364
H1    H     H_    0.905830 0.686541 0.575789 0.219566
H2    H     H_    0.892078 0.291993 0.455143 0.209937
H3    H     H_    0.128270 0.646539 0.395866 0.206690
H4    H     H_    0.108597 0.478075 0.359462 0.164493
H5    H     H_    0.386705 0.109485 0.611526 0.241052
H6    H     H_    0.338777 0.860127 0.582910 0.183657
H7    H     H_    0.302841 0.129292 0.526149 0.182460
H8    H     H_    0.301061 0.895614 0.487859 0.213754
H9    H     H_    0.331987 0.602751 0.074728 0.181275
H10   H     H_    0.346652 0.361836 0.069125 0.184273
H11   H     H_    0.487785 0.275546 0.074982 0.211423
H12   H     H_    0.460401 0.715237 0.080276 0.218398
H13   H     H_    0.525372 0.287161 0.933708 0.181194
H14   H     H_    0.479964 0.719404 0.937160 0.189675
H15   H     H_    0.673664 0.621797 0.928398 0.208352
H16   H     H_    0.697098 0.449175 0.916009 0.225916
H17   H     H_    0.111542 0.694053 0.562083 0.183154
H18   H     H_    0.100660 0.286161 0.454484 0.201612
H19   H     H_    0.116173 0.552869 0.632135 0.170695
H20   H     H_    0.102774 0.309220 0.567561 0.196699
H21   H     H_    0.905414 0.536281 0.632970 0.186290
H22   H     H_    0.898979 0.327215 0.568919 0.268011
N1    N     N_3   0.500250 0.143650 0.501830 -0.257995
N2    N     N_3   0.500250 0.856350 0.501830 -0.225503
O1    O     O_R   0.317570 0.620260 0.500050 -0.567675
O2    O     O_R   0.317570 0.379740 0.500050 -0.608957
O3    O     O_R   0.499890 0.620310 0.379470 -0.559708
O4    O     O_R   0.499890 0.379690 0.379470 -0.546109
O5    O     O_R   0.682190 0.620260 0.500020 -0.504306
O6    O     O_R   0.682190 0.379740 0.500020 -0.557754
O7    O     O_R   0.499870 0.620210 0.620600 -0.584808
O8    O     O_R   0.499870 0.379790 0.620600 -0.568371
N3    N     N_3   0.303578 0.636634 0.919754 -0.581517
H23   H     H_    0.247627 0.555037 0.937308 0.249319
H24   H     H_    0.304969 0.640854 0.853632 0.230672
N4    N     N_3   0.338395 0.316337 0.907372 -0.580212
H25   H     H_    0.261445 0.336640 0.944065 0.226725
H26   H     H_    0.339516 0.211023 0.900742 0.240591
N5    N     N_3   0.912696 0.710602 0.403042 -0.448959
H27   H     H_    0.934555 0.743017 0.341996 0.237428
H28   H     H_    0.969833 0.767595 0.444490 0.239229
N6    N     N_3   0.884145 0.497656 0.333970 -0.540226
H29   H     H_    0.906280 0.395570 0.332380 0.217439
H30   H     H_    0.788205 0.505432 0.333550 0.243972
C31   C     C_2   0.626209 0.165312 0.641039 0.928112
O9    O     O_2   0.709325 0.250174 0.651432 -0.580335
O10   O     O_R   0.543913 0.151881 0.707904 -0.745992
H31   H     H_    0.567447 0.209445 0.759525 0.338986
C32   C     C_2   0.539326 0.885170 0.665913 0.898437
O11   O     O_2   0.594964 0.808337 0.712460 -0.553737
O12   O     O_R   0.430410 0.935387 0.699920 -0.773605
H32   H     H_    0.412007 0.901472 0.758987 0.343089
C33   C     C_2   0.740568 0.101061 0.511324 0.883983
O13   O     O_2   0.831781 0.113112 0.557461 -0.603032
O14   O     O_R   0.764977 0.053261 0.430222 -0.753607
H33   H     H_    0.855877 0.054827 0.415503 0.347371
C34   C     C_2   0.721139 0.862823 0.578756 0.878387
O15   O     O_2   0.778968 0.838481 0.515876 -0.547399
O16   O     O_R   0.789991 0.882605 0.654417 -0.724617
H34   H     H_    0.882290 0.874118 0.647791 0.335059
C35   C     C_2   0.357369 0.124148 0.371163 0.876403
O17   O     O_2   0.262511 0.063238 0.390319 -0.653920
O18   O     O_R   0.344854 0.224456 0.309749 -0.721137
H35   H     H_    0.256265 0.237821 0.290894 0.323763
C36   C     C_2   0.406366 0.856283 0.347129 0.848160
O19   O     O_2   0.325516 0.777391 0.369654 -0.593363
O20   O     O_R   0.405702 0.894862 0.261833 -0.706484
H36   H     H_    0.336571 0.849514 0.227298 0.332647
C37   C     C_2   0.577544 0.149644 0.342687 1.011960
O21   O     O_2   0.554090 0.132353 0.266998 -0.489772
O22   O     O_R   0.675526 0.238780 0.363088 -0.736365
H37   H     H_    0.721799 0.270115 0.311273 0.339993
C38   C     C_2   0.621587 0.867787 0.359253 0.926079
O23   O     O_2   0.681593 0.775559 0.384274 -0.503206
O24   O     O_R   0.647456 0.910635 0.277003 -0.694388
H38   H     H_    0.721339 0.865409 0.251118 0.341497
C39   C     C_2   0.714686 0.634057 0.086090 0.823408
O25   O     O_2   0.681533 0.747824 0.068611 -0.588861
O26   O     O_R   0.818198 0.619489 0.138880 -0.728344
H39   H     H_    0.855831 0.709406 0.158612 0.332746
C40   C     C_2   0.715680 0.382463 0.074886 0.877823
O27   O     O_2   0.731587 0.357998 0.150027 -0.570564
O28   O     O_R   0.760950 0.292692 0.014131 -0.774541
H40   H     H_    0.804359 0.213412 0.040317 0.355271

loop_
_geom_bond_atom_site_label_1
_geom_bond_atom_site_label_2
_ccdc_geom_bond_type
C19   N2    S    
O14   H33   S    
C35   O17   D    
Cu1   O5    S    
O18   H35   S    
C24   C27   S    
Cu2   O2    S    
C20   C35   S    
C25   H11   S    
C32   O11   D    
C31   O9    D    
C14   O3    A    
C38   O24   S    
C37   O21   D    
N6    H30   S    
C11   H4    S    
C18   H5    S    
C18   C19   S    
C39   O26   S    
C5    C6    T    
C6    C14   S    
O28   H40   S    
C16   C31   S    
Cu1   O3    S    
C3    C29   S    
C9    C13   S    
C24   C29   S    
C26   H13   S    
C32   O12   S    
C11   C15   S    
O20   H36   S    
N4    H25   S    
N3    H24   S    
O24   H38   S    
Cu1   N2    S    
C34   O16   S    
C8    H20   S    
Cu2   N1    S    
C23   O7    A    
C37   O22   S    
C27   C30   S    
C9    H1    S    
C24   H9    S    
C1    C12   S    
C20   N1    S    
C4    C28   T    
C36   O19   D    
C5    C29   S    
C33   O14   S    
C25   C29   S    
C7    C12   S    
N6    H29   S    
Cu1   O7    S    
C17   C34   S    
Cu2   O8    S    
C3    C40   S    
O16   H34   S    
N5    H28   S    
C16   C17   S    
C20   C37   S    
C2    H16   S    
C25   C26   S    
C33   O13   D    
C18   H7    S    
C27   N3    S    
C19   H6    S    
C1    O1    A    
C22   O6    A    
C21   C36   S    
O12   H32   S    
C8    C12   S    
C31   O10   S    
C10   H2    S    
C23   C28   S    
C17   N2    S    
C7    H17   S    
C18   N1    S    
C27   H14   S    
N4    H26   S    
C23   O8    A    
C26   C30   S    
C13   C15   S    
C16   C33   S    
C24   H12   S    
C9    H21   S    
Cu2   O4    S    
C8    H18   S    
C14   O4    A    
C40   O27   D    
C7    C9    S    
C36   O20   S    
O26   H39   S    
Cu1   Cu2   S    
C10   C13   S    
C25   H10   S    
C21   N2    S    
C11   C12   S    
C2    H15   S    
C15   N5    S    
C38   O23   D    
C2    C30   S    
C26   N4    S    
Cu1   O1    S    
C11   H3    S    
C2    C3    S    
C16   N1    S    
Cu2   O6    S    
N5    H27   S    
C39   O25   D    
C22   O5    A    
C35   O18   S    
C3    C39   S    
C13   C22   S    
C17   C32   S    
C10   H22   S    
C21   C38   S    
C19   H8    S    
C7    H19   S    
O10   H31   S    
C15   N6    S    
C20   C21   S    
C8    C10   S    
N3    H23   S    
O22   H37   S    
C34   O15   D    
C1    O2    A    
C4    C30   S    
C40   O28   S    
