data_mof_unit_57054.cif
_audit_creation_date              2012-10-26T19:59:38-0400
_audit_creation_method            fapswitch 2.2
_symmetry_space_group_name_H-M    P1
_symmetry_Int_Tables_number       1
_space_group_crystal_system       triclinic
_cell_length_a                    10.847237
_cell_length_b                    8.842161
_cell_length_c                    7.603246
_cell_angle_alpha                 102.487414
_cell_angle_beta                  95.143741
_cell_angle_gamma                 93.94897
_cell_volume                      706.20492031

loop_
_atom_site_label
_atom_site_type_symbol
_atom_type_description
_atom_site_fract_x
_atom_site_fract_y
_atom_site_fract_z
_atom_type_partial_charge
C1    C     C_R   0.500767 0.202100 0.453917 0.572890
C2    C     C_R   0.506613 0.799629 0.544415 0.517322
C3    C     C_R   0.736427 0.484805 0.498341 0.572669
C4    C     C_R   0.129756 0.700834 0.805244 -0.027613
C5    C     C_R   0.072369 0.725590 0.968186 0.220804
C6    C     C_R   0.976708 0.617395 0.986131 -0.004516
C7    C     C_R   0.919015 0.513544 0.831871 0.278284
C8    C     C_R   0.950271 0.529814 0.662787 -0.010239
C9    C     C_R   0.072266 0.587102 0.653895 -0.029993
C10   C     C_R   0.129366 0.518940 0.499526 -0.016913
C11   C     C_R   0.055436 0.421719 0.350634 -0.072985
C12   C     C_R   0.927555 0.396734 0.352080 0.229895
C13   C     C_R   0.871914 0.467597 0.502847 0.037331
C14   C     C_2   0.519748 0.039991 0.426545 0.219594
C15   C     C_2   0.502589 0.966180 0.562238 -0.088645
C16   C     C_R   0.263985 0.513023 0.502004 0.531342
Cl1   Cl    Cl    0.683521 0.603599 0.057639 -0.340026
Cl2   Cl    Cl    0.835536 0.339554 0.846278 -0.415188
Cl3   Cl    Cl    0.851191 0.233021 0.203766 -0.319911
Cu1   Cu    Cu3+1 0.513920 0.517380 0.684380 1.243276
Cu2   Cu    Cu3+1 0.486080 0.482620 0.315620 1.246018
H1    H     H_    0.097587 0.356028 0.238023 0.246015
H2    H     H_    0.215857 0.767541 0.797458 0.155572
H3    H     H_    0.947083 0.614445 0.117383 0.182062
H4    H     H_    0.475480 0.029712 0.689492 0.110945
H5    H     H_    0.280624 0.804820 0.262694 0.355719
H6    H     H_    0.536239 0.073729 0.002117 0.340455
H7    H     H_    0.321708 0.130766 0.015243 0.360969
N1    N     N_2   0.465100 0.456430 0.038520 0.036723
N2    N     N_2   0.534900 0.543570 0.961480 0.086279
O1    O     O_R   0.509050 0.286130 0.619770 -0.497789
O2    O     O_2   0.048561 0.875702 0.309221 -0.248205
O3    O     O_3   0.270061 0.896566 0.209641 -0.512549
O4    O     O_2   0.704666 0.901836 0.274604 -0.160600
O5    O     O_2   0.494996 0.831201 0.107222 -0.268789
O6    O     O_3   0.609731 0.088607 0.093039 -0.407817
O7    O     O_2   0.224501 0.466142 0.958229 -0.290084
O8    O     O_2   0.317025 0.262752 0.754873 -0.280417
O9    O     O_3   0.286504 0.227852 0.071375 -0.439684
O10   O     O_R   0.485540 0.256780 0.308360 -0.467878
O11   O     O_R   0.331410 0.514680 0.655740 -0.456928
O12   O     O_R   0.307900 0.485330 0.344330 -0.486556
O13   O     O_R   0.514460 0.743220 0.691640 -0.488182
O14   O     O_R   0.490950 0.713870 0.380230 -0.472490
O15   O     O_R   0.692100 0.514670 0.655670 -0.473352
O16   O     O_R   0.668590 0.485320 0.344260 -0.439915
O17   O     O_2   0.086616 0.030661 0.086555 -0.154438
S1    S     S_3+6 0.117330 0.886383 0.148513 0.059620
S2    S     S_3+6 0.583051 0.959981 0.222093 0.117547
S3    S     S_3+6 0.322797 0.355223 0.945489 0.150371

loop_
_geom_bond_atom_site_label_1
_geom_bond_atom_site_label_2
_ccdc_geom_bond_type
C1    O10   A    
O5    S2    D    
C11   C12   A    
C6    C7    A    
C2    C15   S    
H6    O6    S    
Cu2   O14   S    
C9    C10   A    
C3    O16   A    
Cu1   O15   S    
C3    C13   S    
C2    O13   A    
C7    Cl2   S    
C6    H3    S    
Cu1   O13   S    
Cu1   O11   S    
C7    C8    A    
Cu1   N2    S    
C12   C13   A    
Cl1   N2    S    
O2    S1    D    
N1    N2    D    
Cu2   O10   S    
O8    S3    D    
C12   Cl3   S    
O7    S3    D    
N1    S3    S    
C5    C6    A    
C5    S1    S    
C15   H4    S    
C14   S2    S    
C10   C11   A    
Cu2   O12   S    
C8    C13   A    
C16   O12   A    
C1    O1    A    
O9    S3    S    
Cu1   Cu2   S    
Cu2   O16   S    
O3    S1    S    
C4    H2    S    
C14   C15   D    
C8    C9    A    
O4    S2    D    
C10   C16   S    
C1    C14   S    
C11   H1    S    
H7    O9    S    
C4    C9    A    
Cu2   N1    S    
C16   O11   A    
C3    O15   A    
O6    S2    S    
O17   S1    D    
H5    O3    S    
C2    O14   A    
C4    C5    A    
Cu1   O1    S    
