data_mof_unit_67127.cif
_audit_creation_date              2012-12-11T17:44:47-0500
_audit_creation_method            fapswitch 2.2
_symmetry_space_group_name_H-M    P1
_symmetry_Int_Tables_number       1
_space_group_crystal_system       triclinic
_cell_length_a                    8.197425
_cell_length_b                    12.886312
_cell_length_c                    14.878772
_cell_angle_alpha                 97.797203
_cell_angle_beta                  97.025613
_cell_angle_gamma                 99.151641
_cell_volume                      1520.63453321

loop_
_atom_site_label
_atom_site_type_symbol
_atom_type_description
_atom_site_fract_x
_atom_site_fract_y
_atom_site_fract_z
_atom_type_partial_charge
Ba1   Ba    Ba6+2 0.843760 0.550230 0.455610 1.737035
Ba2   Ba    Ba6+2 0.346080 0.449860 0.544400 1.719115
C1    C     C_3   0.458651 0.863494 0.157598 -0.333010
C2    C     C_R   0.105155 0.474015 0.207046 0.105654
C3    C     C_R   0.918458 0.477916 0.766244 -0.291548
C4    C     C_3   0.059186 0.760082 0.203903 0.390951
C5    C     C_R   0.819076 0.439383 0.828185 0.004331
C6    C     C_R   0.883874 0.448476 0.920561 -0.164711
C7    C     C_R   0.051067 0.498182 0.953760 0.009366
C8    C     C_R   0.147828 0.545340 0.890711 -0.019457
C9    C     C_R   0.122803 0.505895 0.048209 -0.001459
C10   C     C_R   0.288832 0.563043 0.078153 -0.057811
C11   C     C_R   0.379835 0.607864 0.014693 -0.097220
C12   C     C_3   0.559467 0.827091 0.235425 0.305984
C13   C     C_R   0.309210 0.602238 0.924138 -0.023254
C14   C     C_R   0.037156 0.456651 0.113706 -0.115956
C15   C     C_R   0.258152 0.541953 0.235644 -0.164608
C16   C     C_3   0.015356 0.780885 0.106175 -0.318780
C17   C     C_R   0.080052 0.534142 0.795811 0.035247
C18   C     C_R   0.769460 0.179863 0.539139 -0.262693
C19   C     C_R   0.420040 0.809104 0.464058 -0.278340
C20   C     C_R   0.386559 0.984961 0.434850 -0.113392
C21   C     C_R   0.322116 0.877514 0.428096 -0.011427
C22   C     C_R   0.579953 0.847940 0.513353 0.056939
C23   C     C_3   0.542907 0.227607 0.249459 0.707250
C24   C     C_R   0.645838 0.959584 0.522972 -0.045771
C25   C     C_R   0.547364 0.028166 0.481860 -0.052355
C26   C     C_R   0.611218 0.138758 0.490035 -0.005668
C27   C     C_R   0.870442 0.113690 0.575174 -0.002011
C28   C     C_3   0.259963 0.778939 0.653429 0.285226
C29   C     C_R   0.807501 0.004968 0.570132 -0.092709
C30   C     C_3   0.263617 0.898034 0.673732 -0.336162
C31   C     C_3   0.954527 0.223953 0.350719 0.261343
C32   C     C_3   0.902694 0.102887 0.332973 -0.238906
C33   C     C_3   0.777593 0.700468 0.730269 0.305780
C34   C     C_3   0.583327 0.146869 0.171237 0.279289
C35   C     C_3   0.818209 0.734746 0.833733 -0.385002
C36   C     C_2   0.965459 0.054038 0.249569 1.007118
C37   C     C_3   0.095271 0.234223 0.794775 0.303725
C38   C     C_3   0.120052 0.212220 0.892606 -0.252574
C39   C     C_3   0.588706 0.173803 0.752555 0.343145
C40   C     C_3   0.646581 0.088457 0.803396 -0.358678
C41   C     C_R   0.358723 0.576320 0.171841 0.025160
H1    H     H_    0.643178 0.897194 0.277876 0.081838
H2    H     H_    0.675335 0.630102 0.715836 0.060779
H3    H     H_    0.385391 0.922536 0.185148 0.102529
H4    H     H_    0.924500 0.802752 0.850326 0.143393
H5    H     H_    0.852521 0.668224 0.867581 0.053855
H6    H     H_    0.707647 0.759204 0.861196 0.131875
H7    H     H_    0.474349 0.793428 0.281047 -0.070047
H8    H     H_    0.371971 0.795477 0.114831 0.081077
H9    H     H_    0.662654 0.268757 0.288152 -0.093299
H10   H     H_    0.711837 0.174233 0.158202 0.028873
H11   H     H_    0.584320 0.070582 0.196314 -0.011708
H12   H     H_    0.361119 0.933675 0.732680 0.125277
H13   H     H_    0.545912 0.897860 0.113944 0.209822
H14   H     H_    0.098413 0.852725 0.093961 0.136149
H15   H     H_    0.172197 0.312847 0.792713 0.084069
H16   H     H_    0.961584 0.237587 0.775515 -0.073028
H17   H     H_    0.255240 0.223451 0.917344 0.226248
H18   H     H_    0.064159 0.268368 0.937650 0.056618
H19   H     H_    0.060812 0.129388 0.895974 0.147723
H20   H     H_    0.690939 0.204825 0.715614 -0.060059
H21   H     H_    0.478145 0.137013 0.700916 0.086325
H22   H     H_    0.759793 0.123474 0.853582 0.109849
H23   H     H_    0.291520 0.935678 0.613442 0.074811
H24   H     H_    0.676181 0.023800 0.754082 0.070548
H25   H     H_    0.971400 0.689096 0.213323 0.087745
H26   H     H_    0.547577 0.054823 0.841232 0.197653
H27   H     H_    0.306844 0.559164 0.308015 0.078835
H28   H     H_    0.505816 0.651626 0.035012 0.086735
H29   H     H_    0.918495 0.403745 0.094418 0.093509
H30   H     H_    0.866076 0.469009 0.694695 0.065818
H31   H     H_    0.799937 0.417331 0.964738 0.106751
H32   H     H_    0.384572 0.643552 0.880977 0.104750
H33   H     H_    0.306557 0.034266 0.405500 0.141083
H34   H     H_    0.140799 0.913679 0.690890 0.133764
H35   H     H_    0.887424 0.957137 0.601728 0.099511
H36   H     H_    0.818370 0.264013 0.545208 0.052144
H37   H     H_    0.187734 0.743348 0.213414 -0.115527
H38   H     H_    0.367717 0.725442 0.457787 0.057901
H39   H     H_    0.030004 0.711837 0.056528 0.052462
H40   H     H_    0.884186 0.793227 0.093733 0.174364
H41   H     H_    0.380673 0.764219 0.633970 -0.005335
H42   H     H_    0.158023 0.745772 0.595701 0.070304
H43   H     H_    0.164360 0.027631 0.189145 0.342829
H44   H     H_    0.413674 0.372160 0.077374 0.358626
H45   H     H_    0.872555 0.259236 0.395330 -0.073385
H46   H     H_    0.652637 0.209037 0.999608 0.329782
H47   H     H_    0.081336 0.244039 0.387321 0.122837
H48   H     H_    0.764976 0.081598 0.325766 -0.040696
H49   H     H_    0.954599 0.069907 0.393105 0.047931
H50   H     H_    0.890174 0.679248 0.703713 0.008933
O1    O     O_2   0.827930 0.435360 0.277760 -0.428677
O2    O     O_2   0.213009 0.120458 0.569292 -0.499144
O3    O     O_3   0.145138 0.153449 0.736549 -0.587102
O4    O     O_3   0.100310 0.439010 0.391180 -0.499468
O5    O     O_3   0.587770 0.631830 0.546230 -0.485781
O6    O     O_2   0.332600 0.233710 0.456170 -0.449937
O7    O     O_3   0.447096 0.175604 0.307458 -0.638547
O8    O     O_2   0.478494 0.444623 0.825053 -0.484074
O9    O     O_3   0.543384 0.251962 0.815720 -0.551976
O10   O     O_3   0.625610 0.634200 0.333270 -0.436792
O11   O     O_2   0.702810 0.560916 0.173080 -0.441343
O12   O     O_3   0.728992 0.785528 0.690924 -0.638354
O13   O     O_3   0.949156 0.264936 0.268036 -0.625110
O14   O     O_3   0.658856 0.757933 0.197938 -0.599707
O15   O     O_2   0.857120 0.766320 0.543890 -0.479051
O16   O     O_3   0.056570 0.691100 0.379020 -0.511112
O17   O     O_2   0.983265 0.878735 0.434613 -0.484866
O18   O     O_2   0.867313 0.003841 0.183830 -0.619001
O19   O     O_R   0.136821 0.066053 0.247734 -0.699924
O20   O     O_2   0.255641 0.285123 0.190036 -0.313500
O21   O     O_2   0.471753 0.415621 0.292589 -0.330539
O22   O     O_3   0.513617 0.371769 0.121952 -0.511915
O23   O     O_3   0.045952 0.849311 0.266253 -0.580981
O24   O     O_2   0.277220 0.123238 0.065741 -0.252826
O25   O     O_2   0.471288 0.014037 0.010265 -0.326464
O26   O     O_3   0.532275 0.212222 0.997124 -0.487790
O27   O     O_2   0.361790 0.564680 0.722290 -0.472562
O28   O     O_3   0.089410 0.561080 0.608830 -0.511401
O29   O     O_3   0.564100 0.365890 0.666740 -0.487628
O30   O     O_3   0.235911 0.735654 0.733085 -0.631033
O31   O     O_3   0.601940 0.368260 0.453780 -0.435112
O32   O     O_3   0.133140 0.308990 0.620990 -0.486962
P1    P     P_3+3 0.998770 0.403620 0.291990 1.081001
P2    P     P_3+3 0.687370 0.751000 0.571300 0.972467
P3    P     P_3+3 0.103243 0.826482 0.378110 0.958108
P4    P     P_3+3 0.190950 0.596470 0.708020 0.964872
P5    P     P_3+3 0.089376 0.172214 0.623424 0.949962
P6    P     P_3+3 0.584063 0.629219 0.215548 1.048521
P7    P     P_3+3 0.508182 0.230340 0.424933 0.999439
P8    P     P_3+3 0.601260 0.377765 0.785548 0.983030
S1    S     S_3+6 0.439701 0.327425 0.212663 -0.044154
S2    S     S_3+6 0.457976 0.121204 0.059651 -0.066560

loop_
_geom_bond_atom_site_label_1
_geom_bond_atom_site_label_2
_ccdc_geom_bond_type
C17   P4    S    
C13   H32   S    
C38   H17   S    
C39   C40   S    
C14   H29   S    
C20   H33   S    
Ba1   O15   S    
C5    C6    A    
C24   C25   A    
O6    P7    D    
O3    P5    S    
C33   C35   S    
C31   H45   S    
C22   C24   A    
C5    P8    S    
C10   C41   A    
C8    C13   A    
C16   H14   S    
O1    P1    D    
Ba2   P4    S    
C38   H19   S    
C39   O9    S    
O31   P7    S    
O9    P8    S    
Ba1   Ba2   S    
C1    H13   S    
C32   H48   S    
C34   H10   S    
O16   P3    S    
Ba1   O16   S    
C30   H34   S    
O32   P5    S    
Ba2   O29   S    
H46   O26   S    
Ba2   O4    S    
Ba1   O1    S    
O11   P6    D    
C40   H22   S    
C35   H4    S    
C7    C8    A    
Ba1   O10   S    
C30   H12   S    
H44   O22   S    
O2    P5    D    
C4    H25   S    
C15   H27   S    
O30   P4    S    
C28   H41   S    
C16   H40   S    
C32   H49   S    
C18   C27   A    
C33   H50   S    
C4    C16   S    
O12   P2    S    
O27   P4    D    
Ba1   P1    S    
O14   P6    S    
Ba1   O4    S    
C37   C38   S    
C3    C5    A    
Ba2   O27   S    
C6    C7    A    
C18   C26   A    
C37   H15   S    
C40   H26   S    
O26   S2    S    
C38   H18   S    
C35   H5    S    
C2    C14   A    
H43   O19   S    
C15   C41   A    
O29   P8    S    
C33   O12   S    
C22   P2    S    
C35   H6    S    
C9    C14   A    
C23   O7    S    
C4    H37   S    
C27   P5    S    
C8    C17   A    
C37   H16   S    
C6    H31   S    
C31   C32   S    
O21   S1    D    
C28   O30   S    
C28   H42   S    
C23   S1    S    
C7    C9    A    
C4    O23   S    
C1    C12   S    
C2    C15   A    
O5    P2    S    
C19   H38   S    
Ba2   O6    S    
Ba2   O31   S    
C20   C25   A    
C19   C21   A    
C40   H24   S    
C39   H20   S    
C36   O19   S    
C33   H2    S    
C34   S2    S    
C29   H35   S    
C12   H1    S    
Ba2   O28   S    
C12   O14   S    
C1    H8    S    
C18   H36   S    
C32   C36   S    
C31   O13   S    
Ba1   P2    S    
O28   P4    S    
O4    P1    S    
Ba1   O5    S    
C9    C10   A    
O7    P7    S    
C3    C17   A    
O22   S1    S    
O8    P8    D    
C11   H28   S    
O13   P1    S    
C1    H3    S    
C2    P1    S    
O20   S1    D    
C11   C13   A    
Ba1   O31   S    
C27   C29   A    
C31   H47   S    
C28   C30   S    
C12   H7    S    
C41   P6    S    
C16   H39   S    
O15   P2    D    
C3    H30   S    
Ba1   O28   S    
C37   O3    S    
C23   H9    S    
C34   H11   S    
C23   C34   S    
Ba2   O32   S    
C24   C29   A    
C10   C11   A    
Ba2   O5    S    
O23   P3    S    
C19   C22   A    
C25   C26   A    
C20   C21   A    
C39   H21   S    
C26   P7    S    
C36   O18   D    
O10   P6    S    
O25   S2    D    
C30   H23   S    
O17   P3    D    
C21   P3    S    
O24   S2    D    
