data_mof_unit_45438.cif
_audit_creation_date              2012-12-10T17:16:36-0500
_audit_creation_method            fapswitch 2.2
_symmetry_space_group_name_H-M    P1
_symmetry_Int_Tables_number       1
_space_group_crystal_system       triclinic
_cell_length_a                    10.1137
_cell_length_b                    10.652242
_cell_length_c                    10.78764
_cell_angle_alpha                 90.697796
_cell_angle_beta                  95.714626
_cell_angle_gamma                 79.37816
_cell_volume                      1136.57754957

loop_
_atom_site_label
_atom_site_type_symbol
_atom_type_description
_atom_site_fract_x
_atom_site_fract_y
_atom_site_fract_z
_atom_type_partial_charge
C1    C     C_R   0.443218 0.512641 0.266910 0.810243
C2    C     C_R   0.556537 0.495994 0.733156 0.801949
C3    C     C_2   0.410100 0.534224 0.134798 0.453767
C4    C     C_2   0.588703 0.507806 0.865613 0.467039
C5    C     C_2   0.509213 0.550969 0.067164 -0.260276
C6    C     C_2   0.487678 0.553941 0.933872 -0.236081
C7    C     C_2   0.073522 0.489630 0.489254 0.504838
C8    C     C_2   0.926457 0.510420 0.510707 0.501990
C9    C     C_R   0.507036 0.258886 0.514855 0.896362
C10   C     C_R   0.492878 0.741029 0.484854 0.870714
C11   C     C_R   0.753256 0.064003 0.465912 -0.116362
C12   C     C_R   0.246184 0.935820 0.532317 -0.119459
C13   C     C_R   0.841862 0.988788 0.391861 -0.162187
C14   C     C_R   0.157366 0.010988 0.606203 -0.166708
C15   C     C_R   0.802954 0.885078 0.328684 -0.111838
C16   C     C_R   0.196163 0.114629 0.669596 -0.111239
C17   C     C_R   0.679761 0.851220 0.347117 -0.092748
C18   C     C_R   0.319468 0.148455 0.651516 -0.091673
C19   C     C_R   0.593129 0.921995 0.428868 0.088661
C20   C     C_R   0.406292 0.077818 0.569814 0.084181
C21   C     C_R   0.622158 0.037594 0.476227 0.096213
C22   C     C_R   0.377308 0.962273 0.522334 0.098193
C23   C     C_R   0.480297 0.878080 0.466784 -0.249086
C24   C     C_R   0.519295 0.121730 0.532130 -0.252729
H1    H     H_    0.129133 0.171046 0.729885 0.159112
H2    H     H_    0.869832 0.828606 0.268324 0.156200
H3    H     H_    0.791228 0.139295 0.518042 0.161217
H4    H     H_    0.208472 0.860417 0.480131 0.160964
H5    H     H_    0.940351 0.011745 0.382706 0.151375
H6    H     H_    0.058846 0.988005 0.615137 0.151362
H7    H     H_    0.652612 0.769236 0.297435 0.132500
H8    H     H_    0.346560 0.230285 0.701484 0.145067
H9    H     H_    0.384639 0.584473 0.891641 0.208313
H10   H     H_    0.611241 0.551599 0.109724 0.205956
H11   H     H_    0.881006 0.383814 0.383896 0.173468
H12   H     H_    0.119014 0.616152 0.616138 0.170230
N1    N     N_2   0.157300 0.551390 0.551120 -0.227197
N2    N     N_2   0.842700 0.448610 0.448880 -0.227082
O1    O     O_R   0.568940 0.489660 0.307530 -0.661411
O2    O     O_R   0.431060 0.510340 0.692470 -0.666209
O3    O     O_R   0.348880 0.522640 0.340350 -0.518473
O4    O     O_R   0.651120 0.477360 0.659650 -0.518709
O5    O     O_R   0.610030 0.300280 0.483580 -0.628925
O6    O     O_R   0.389970 0.699720 0.516420 -0.636783
O7    O     O_R   0.389970 0.333270 0.516400 -0.549222
O8    O     O_R   0.610030 0.666730 0.483600 -0.554430
Zn1   Zn    Zn3+2 0.646940 0.477980 0.478080 1.019763
Zn2   Zn    Zn3+2 0.353060 0.522020 0.521920 1.017048
F1    F     F_    0.717923 0.469498 0.917865 -0.627336
F2    F     F_    0.282134 0.533545 0.082127 -0.625068
F3    F     F_    0.879528 0.596364 0.597467 -0.639400
F4    F     F_    0.120434 0.403726 0.402457 -0.636094

loop_
_geom_bond_atom_site_label_1
_geom_bond_atom_site_label_2
_ccdc_geom_bond_type
C10   O8    A    
C19   C23   A    
C9    C24   S    
C9    O7    A    
C12   C22   A    
C10   C23   S    
C2    C4    S    
C11   C21   A    
C6    H9    S    
C11   H3    S    
C4    F1    S    
C5    H10   S    
C20   C24   A    
C7    N1    D    
C14   H6    S    
C7    C8    S    
C1    C3    S    
N1    Zn2   S    
C11   C13   A    
C8    F3    S    
N2    Zn1   S    
C8    N2    D    
C2    O4    A    
C1    O3    A    
H12   N1    S    
C19   C21   A    
C3    F2    S    
C12   C14   A    
C7    F4    S    
C18   C20   A    
O4    Zn1   S    
C13   C15   A    
C5    C6    S    
C17   H7    S    
C14   C16   A    
C9    O5    A    
C4    C6    D    
C18   H8    S    
C1    O1    A    
C10   O6    A    
C2    O2    A    
H11   N2    S    
C12   H4    S    
C16   C18   A    
C21   C24   A    
C13   H5    S    
C16   H1    S    
C15   C17   A    
O2    Zn2   S    
O8    Zn1   S    
C15   H2    S    
O7    Zn2   S    
C17   C19   A    
C22   C23   A    
O1    Zn1   S    
O5    Zn1   S    
O3    Zn2   S    
O6    Zn2   S    
C20   C22   A    
C3    C5    D    
