data_mof_unit_28999.cif
_audit_creation_date              2012-12-11T15:13:42-0500
_audit_creation_method            fapswitch 2.2
_symmetry_space_group_name_H-M    P1
_symmetry_Int_Tables_number       1
_space_group_crystal_system       triclinic
_cell_length_a                    6.952869
_cell_length_b                    13.483984
_cell_length_c                    20.13266
_cell_angle_alpha                 104.068133
_cell_angle_beta                  89.936566
_cell_angle_gamma                 90.764178
_cell_volume                      1830.70675263

loop_
_atom_site_label
_atom_site_type_symbol
_atom_type_description
_atom_site_fract_x
_atom_site_fract_y
_atom_site_fract_z
_atom_type_partial_charge
O1    O     O_R   0.506780 0.600060 0.449950 -0.518472
O2    O     O_R   0.179840 0.597110 0.589410 -0.531564
O3    O     O_R   0.004570 0.399940 0.550050 -0.544572
C1    C     C_R   0.349342 0.620411 0.616405 0.695629
O4    O     O_R   0.177380 0.612160 0.452890 -0.545720
O5    O     O_R   0.002100 0.415100 0.412560 -0.552297
C2    C     C_R   0.347005 0.639117 0.436461 0.717363
O6    O     O_R   0.509250 0.584900 0.587440 -0.513957
O7    O     O_3   0.337570 0.435330 0.486930 -0.387091
V1    V     V_3+5 0.064650 0.512000 0.502430 1.495916
O8    O     O_R   0.672090 0.402890 0.410590 -0.534182
C3    C     C_R   0.840465 0.381464 0.382995 0.720472
O9    O     O_R   0.674540 0.387840 0.547110 -0.548237
C4    C     C_R   0.842409 0.361010 0.563635 0.682159
V2    V     V_3+5 0.564040 0.488000 0.497570 1.507396
O10   O     O_3   0.840990 0.564670 0.513070 -0.336476
C5    C     C_R   0.826220 0.106578 0.608002 -0.158572
H1    H     H_    0.818620 0.156264 0.514594 0.099232
H2    H     H_    0.820024 0.980701 0.690327 0.125341
H3    H     H_    0.813239 0.026606 0.581342 0.119361
C6    C     C_R   0.847315 0.283345 0.602998 -0.029858
C7    C     C_R   0.879444 0.319285 0.932440 -0.169434
C8    C     C_R   0.882855 0.396117 0.897359 -0.121526
C9    C     C_R   0.873790 0.371899 0.826089 -0.164097
C10   C     C_R   0.860481 0.268865 0.787716 0.078550
C11   C     C_R   0.854741 0.190407 0.824163 0.072450
C12   C     C_R   0.852887 0.241075 0.714550 0.070543
C13   C     C_R   0.837181 0.135965 0.679774 0.146297
C14   C     C_R   0.831595 0.060789 0.716677 -0.219277
C15   C     C_R   0.840679 0.087279 0.787652 -0.207388
C16   C     C_R   0.859510 0.313821 0.674410 -0.218200
C17   C     C_R   0.829871 0.179974 0.569889 -0.181450
C18   C     C_R   0.864959 0.216814 0.896649 -0.075285
H4    H     H_    0.871506 0.394813 0.696760 0.096752
H5    H     H_    0.888739 0.339755 0.987851 0.096736
H6    H     H_    0.877617 0.435832 0.802832 0.103748
H7    H     H_    0.893685 0.475318 0.925634 0.117000
H8    H     H_    0.836049 0.025842 0.813687 0.117646
C19   C     C_3   0.676379 0.224298 0.226783 -0.184762
C20   C     C_3   0.766303 0.202209 0.292209 -0.163770
H9    H     H_    0.692521 0.162910 0.327727 0.100148
H10   H     H_    0.527684 0.203241 0.207977 0.111986
C21   C     C_3   0.849237 0.312124 0.312108 -0.013635
C22   C     C_3   0.761150 0.333796 0.247243 0.056817
C23   C     C_3   0.946958 0.298398 0.206947 -0.200872
C24   C     C_3   0.036190 0.276231 0.272454 -0.135538
C25   C     C_3   0.953216 0.165630 0.251978 -0.122905
C26   C     C_3   0.863679 0.188705 0.187453 -0.012215
H11   H     H_    0.020864 0.338064 0.171613 0.100715
H12   H     H_    0.033193 0.095464 0.253453 0.111461
C27   C     C_3   0.531925 0.753544 0.723411 0.069746
C28   C     C_3   0.404032 0.847712 0.747996 -0.232406
H13   H     H_    0.442424 0.927382 0.746545 0.119850
C29   C     C_3   0.356416 0.811184 0.812868 -0.018077
C30   C     C_3   0.486668 0.717858 0.788972 -0.194352
C31   C     C_3   0.311173 0.655612 0.752201 -0.160823
C32   C     C_3   0.181181 0.749922 0.777134 -0.093341
C33   C     C_3   0.229494 0.785370 0.711110 -0.123484
C34   C     C_3   0.359187 0.691543 0.686752 -0.010704
H14   H     H_    0.593127 0.689938 0.821038 0.105405
H15   H     H_    0.272719 0.576060 0.753838 0.107145
H16   H     H_    0.129592 0.814961 0.677843 0.137707
C35   C     C_R   0.420432 0.891105 0.391460 -0.159175
H17   H     H_    0.421628 0.840934 0.484763 0.109282
H18   H     H_    0.449332 0.016246 0.308697 0.116450
C36   C     C_R   0.359331 0.716750 0.397085 -0.030241
C37   C     C_R   0.318113 0.682124 0.067992 -0.167434
C38   C     C_R   0.298234 0.606048 0.103332 -0.128575
C39   C     C_R   0.311522 0.629923 0.174516 -0.145140
C40   C     C_R   0.345705 0.731817 0.212535 0.083691
C41   C     C_R   0.368222 0.809345 0.175813 0.067793
C42   C     C_R   0.359576 0.759241 0.285582 0.063729
C43   C     C_R   0.399907 0.862719 0.319918 0.140682
C44   C     C_R   0.420382 0.937147 0.282765 -0.209695
C45   C     C_R   0.404172 0.911186 0.211943 -0.201788
C46   C     C_R   0.335865 0.687584 0.325999 -0.149586
C47   C     C_R   0.402346 0.818239 0.429718 -0.178832
C48   C     C_R   0.353414 0.783372 0.103430 -0.075382
H19   H     H_    0.301135 0.608292 0.304053 0.120589
H20   H     H_    0.305491 0.662046 0.012664 0.100149
H21   H     H_    0.295048 0.566593 0.197974 0.110530
H22   H     H_    0.271559 0.527744 0.075329 0.115129
H23   H     H_    0.421407 0.971938 0.185691 0.120698
O11   O     O_R   0.203580 0.914920 0.912610 -0.541460
O12   O     O_R   0.535710 0.887810 0.047120 -0.539939
O13   O     O_R   0.710730 0.084950 0.087430 -0.542213
C49   C     C_R   0.366124 0.861214 0.063894 0.688028
O14   O     O_R   0.533010 0.902850 0.910600 -0.546243
O15   O     O_R   0.708010 0.100090 0.949930 -0.538502
C50   C     C_R   0.364037 0.880731 0.883369 0.690958
O16   O     O_R   0.206300 0.899780 0.050100 -0.538055
O17   O     O_3   0.375170 0.064580 0.013100 -0.370452
V3    V     V_3+5 0.648200 0.988020 0.997570 1.408300
O18   O     O_R   0.038030 0.112330 0.952840 -0.539981
C51   C     C_R   0.870135 0.138692 0.936012 0.687885
O19   O     O_R   0.040730 0.097300 0.089360 -0.543250
C52   C     C_R   0.872423 0.118648 0.116948 0.687361
V4    V     V_3+5 0.148780 0.012220 0.002360 1.412950
O20   O     O_3   0.871930 0.935430 0.986900 -0.370882
C53   C     C_2   0.653934 0.426830 0.241367 0.295081
H24   H     H_    0.590224 0.429741 0.192741 0.041334
O21   O     O_2   0.638680 0.499617 0.290609 -0.537940
H25   H     H_    0.184813 0.297461 0.291248 0.118543
C54   C     C_2   0.730964 0.766820 0.699030 0.300675
H26   H     H_    0.826782 0.820779 0.732157 0.025523
O22   O     O_2   0.784801 0.720500 0.642538 -0.518890
H27   H     H_    0.037357 0.747850 0.800730 0.098057
H28   H     H_    0.452500 0.969720 0.417781 0.111210

loop_
_geom_bond_atom_site_label_1
_geom_bond_atom_site_label_2
_ccdc_geom_bond_type
C48   C49   S    
C33   H16   S    
C20   C25   S    
C30   C31   S    
C49   O16   A    
H17   C47   S    
O12   V3    S    
C46   H19   S    
C42   C46   A    
C54   O22   D    
O17   V4    S    
C23   C24   S    
C28   H13   S    
C7    H5    S    
C6    C16   A    
C9    H6    S    
C4    C6    S    
C13   C14   A    
C29   C50   S    
C3    C21   S    
O5    C3    A    
O18   V4    S    
V2    O10   S    
C5    H3    S    
C31   C32   S    
C15   H8    S    
C43   C44   A    
C36   C47   A    
O13   C52   A    
C53   H24   S    
C24   C25   S    
O8    V2    S    
C20   C21   S    
C38   C39   A    
O19   V4    S    
C8    C9    A    
C40   C41   A    
O1    V2    S    
C25   H12   S    
O7    V1    S    
V3    O20   S    
C1    O6    A    
O9    C4    A    
O15   V3    S    
O18   C51   A    
C37   C48   A    
O11   C50   A    
C18   C51   S    
C54   H26   S    
C28   C29   S    
C19   H10   S    
O12   C49   A    
C6    C17   A    
C44   C45   A    
C12   C16   A    
C37   C38   A    
C9    C10   A    
C19   C20   S    
O4    C2    A    
O14   V3    S    
C35   C43   A    
C33   C34   S    
C8    H7    S    
H18   C44   S    
C27   C28   S    
O15   C51   A    
O2    C1    A    
C21   C22   S    
C14   C15   A    
C26   C52   S    
O13   V3    S    
C11   C18   A    
C25   C26   S    
C23   H11   S    
C36   C46   A    
O19   C52   A    
C53   O21   D    
C16   H4    S    
C31   H15   S    
O3    C4    A    
C28   C33   S    
C20   H9    S    
C32   H27   S    
O14   C50   A    
C11   C15   A    
O6    V2    S    
O9    V2    S    
H1    C17   S    
O2    V1    S    
C22   C23   S    
C35   C47   A    
C23   C26   S    
C7    C18   A    
C29   C30   S    
C27   C54   S    
O1    C2    A    
C5    C13   A    
C37   H20   S    
C42   C43   A    
O5    V1    S    
O8    C3    A    
C19   C22   S    
C10   C12   A    
C24   H25   S    
C31   C34   S    
C38   H22   S    
C10   C11   A    
O11   V4    S    
O4    V1    S    
O3    V1    S    
V1    O10   S    
C2    C36   S    
C41   C45   A    
C22   C53   S    
C45   H23   S    
C32   C33   S    
C1    C34   S    
O17   V3    S    
C27   C30   S    
O16   V4    S    
O7    V2    S    
C39   C40   A    
C21   C24   S    
C39   H21   S    
C27   C34   S    
V4    O20   S    
C12   C13   A    
C5    C17   A    
C7    C8    A    
C40   C42   A    
C35   H28   S    
C30   H14   S    
C41   C48   A    
C19   C26   S    
C29   C32   S    
H2    C14   S    
