data_mof_unit_68411.cif
_audit_creation_date              2012-12-11T14:15:24-0500
_audit_creation_method            fapswitch 2.2
_symmetry_space_group_name_H-M    P1
_symmetry_Int_Tables_number       1
_space_group_crystal_system       triclinic
_cell_length_a                    8.634239
_cell_length_b                    15.735637
_cell_length_c                    16.234333
_cell_angle_alpha                 97.70528
_cell_angle_beta                  93.617474
_cell_angle_gamma                 100.52067
_cell_volume                      2140.32264951

loop_
_atom_site_label
_atom_site_type_symbol
_atom_type_description
_atom_site_fract_x
_atom_site_fract_y
_atom_site_fract_z
_atom_type_partial_charge
Ba1   Ba    Ba6+2 0.854080 0.543710 0.461380 1.799973
Ba2   Ba    Ba6+2 0.335760 0.456360 0.538630 1.776207
C1    C     C_3   0.716108 0.853784 0.233390 0.403218
C2    C     C_3   0.688727 0.766858 0.268052 0.433403
C3    C     C_3   0.612540 0.230253 0.290960 0.123708
C4    C     C_3   0.575596 0.197473 0.197564 0.156827
C5    C     C_3   0.976559 0.261964 0.757261 0.453545
C6    C     C_3   0.930283 0.226239 0.837530 0.773982
C7    C     C_3   0.407919 0.245022 0.784751 0.824154
C8    C     C_3   0.393634 0.180995 0.848599 -0.458846
C9    C     C_R   0.308470 0.494156 0.242994 0.074088
C10   C     C_R   0.146370 0.470901 0.228093 -0.077246
C11   C     C_R   0.074626 0.479033 0.148655 0.220442
C12   C     C_3   0.129688 0.816236 0.249835 0.990367
C13   C     C_R   0.161813 0.529617 0.093584 0.199383
C14   C     C_R   0.325696 0.563476 0.119661 -0.265428
C15   C     C_R   0.396580 0.550068 0.197328 0.009391
C16   C     C_R   0.094288 0.540273 0.852419 0.362650
C17   C     C_R   0.042854 0.518813 0.765363 -0.001691
C18   C     C_R   0.990282 0.514835 0.913631 0.190220
C19   C     C_R   0.896950 0.465473 0.739045 -0.253304
C20   C     C_R   0.789407 0.443899 0.796243 -0.026897
C21   C     C_R   0.837005 0.466533 0.882837 -0.191170
C22   C     C_R   0.747704 0.230348 0.528767 0.053543
C23   C     C_3   0.142912 0.902129 0.211488 0.465093
C24   C     C_R   0.836298 0.175613 0.561145 0.045905
C25   C     C_R   0.768586 0.086902 0.560938 -0.249308
C26   C     C_R   0.629779 0.045588 0.508080 -0.035872
C27   C     C_R   0.557503 0.103297 0.461701 0.342536
C28   C     C_R   0.604119 0.196555 0.482388 0.016242
C29   C     C_R   0.410498 0.909645 0.466041 -0.246139
C30   C     C_R   0.351739 0.819609 0.449780 0.096119
C31   C     C_R   0.591468 0.788370 0.511617 -0.023697
C32   C     C_R   0.661446 0.880230 0.516519 0.290575
C33   C     C_R   0.568212 0.944310 0.497241 -0.029372
C34   C     C_3   0.343547 0.724462 0.710125 0.411169
C35   C     C_R   0.436366 0.760654 0.477802 0.174282
C36   C     C_3   0.357331 0.823787 0.728720 0.725825
C37   C     C_3   0.001836 0.273419 0.359059 2.439112
C38   C     C_3   0.032479 0.184647 0.324100 0.625860
C39   C     C_3   0.819156 0.735444 0.725302 1.028598
C40   C     C_3   0.789325 0.762983 0.819508 0.650762
H1    H     H_    0.787926 0.766431 0.314144 0.000409
H2    H     H_    0.261380 0.835841 0.769155 -0.026860
H3    H     H_    0.580776 0.763346 0.302315 -0.135103
H4    H     H_    0.605963 0.879763 0.235130 -0.084031
H5    H     H_    0.665847 0.182336 0.320869 0.285376
H6    H     H_    0.462790 0.148748 0.188203 0.085057
H7    H     H_    0.055496 0.327025 0.774532 -0.086289
H8    H     H_    0.324449 0.289396 0.800591 0.060228
H9    H     H_    0.496657 0.148136 0.851005 0.145139
H10   H     H_    0.389099 0.216847 0.911901 0.097882
H11   H     H_    0.748276 0.455005 0.926430 0.114859
H12   H     H_    0.860387 0.447900 0.672974 0.044248
H13   H     H_    0.330017 0.952259 0.454382 0.119923
H14   H     H_    0.830920 0.050473 0.598734 0.131230
H15   H     H_    0.041012 0.933057 0.225093 -0.011772
H16   H     H_    0.252260 0.946133 0.241331 -0.129865
H17   H     H_    0.398492 0.707124 0.652054 0.032478
N1    N     N_2   0.078294 0.587612 0.055859 -0.214660
N2    N     N_2   0.995638 0.577451 0.986878 -0.199975
O1    O     O_2   0.870790 0.455700 0.303190 -0.414031
O2    O     O_3   0.691304 0.749720 0.672969 -0.719193
O3    O     O_3   0.073291 0.832588 0.330512 -0.726240
O4    O     O_2   0.318910 0.544330 0.696860 -0.502968
O5    O     O_3   0.069240 0.546190 0.596700 -0.430308
O6    O     O_3   0.526850 0.381230 0.645670 -0.497866
O7    O     O_3   0.183275 0.685840 0.699503 -0.595631
O8    O     O_3   0.607560 0.392310 0.457770 -0.438770
O9    O     O_3   0.103510 0.335820 0.604670 -0.459875
O10   O     O_2   0.162133 0.176000 0.562532 -0.410839
O11   O     O_3   0.058586 0.205972 0.709828 -0.613435
O12   O     O_3   0.120480 0.453880 0.403310 -0.507410
O13   O     O_3   0.582150 0.607760 0.542240 -0.503654
O14   O     O_2   0.333990 0.280210 0.458400 -0.468366
O15   O     O_3   0.472622 0.243703 0.325627 -0.632565
O16   O     O_2   0.462908 0.440200 0.802583 -0.500832
O17   O     O_3   0.564518 0.291134 0.791709 -0.647485
O18   O     O_3   0.662860 0.618850 0.354340 -0.521372
O19   O     O_2   0.708764 0.536244 0.206905 -0.456698
O20   O     O_3   0.972619 0.316161 0.291503 -0.751192
O21   O     O_3   0.675903 0.695564 0.203543 -0.594537
O22   O     O_2   0.855710 0.719820 0.541650 -0.383207
O23   O     O_3   0.086210 0.664250 0.395340 -0.490848
O24   O     O_2   0.066814 0.808346 0.486228 -0.444625
P1    P     P_3+3 0.037890 0.428670 0.315390 1.047698
P2    P     P_3+3 0.680030 0.705880 0.565670 1.062672
P3    P     P_3+3 0.147623 0.778692 0.409207 0.991862
P4    P     P_3+3 0.151830 0.571400 0.684620 1.113557
P5    P     P_3+3 0.040249 0.223371 0.605961 1.106657
P6    P     P_3+3 0.605366 0.599426 0.243619 0.956681
P7    P     P_3+3 0.509249 0.278288 0.432976 1.123988
P8    P     P_3+3 0.581430 0.392449 0.755873 0.885757
O25   O     O_3   0.511270 0.863114 0.766756 -0.660227
C41   C     C_3   0.502691 0.905864 0.848340 -0.009078
H18   H     H_    0.451422 0.858723 0.889081 0.018170
H19   H     H_    0.433352 0.958760 0.847614 0.034610
H20   H     H_    0.623223 0.936925 0.876383 0.141407
O26   O     O_3   0.328499 0.854145 0.652185 -0.650407
C42   C     C_3   0.350665 0.946007 0.663930 0.103289
H21   H     H_    0.478505 0.973692 0.664874 0.089635
H22   H     H_    0.302525 0.973602 0.721301 0.018729
H23   H     H_    0.287129 0.966181 0.610656 0.073963
H24   H     H_    0.898468 0.266522 0.396041 -2.851271
H25   H     H_    0.104952 0.307590 0.401129 0.048187
H26   H     H_    0.917460 0.144437 0.293803 0.000577
O27   O     O_3   0.084148 0.146646 0.391771 -0.623069
C43   C     C_3   0.110510 0.063192 0.362559 0.266473
H27   H     H_    0.195794 0.065166 0.314464 0.117615
H28   H     H_    0.997598 0.019125 0.337916 -0.070038
H29   H     H_    0.164078 0.038019 0.415166 0.076924
O28   O     O_3   0.154029 0.197350 0.269253 -0.757784
C44   C     C_3   0.094455 0.165721 0.185847 -0.053367
H30   H     H_    0.011154 0.205340 0.163666 0.099630
H31   H     H_    0.035836 0.095987 0.178689 0.064476
H32   H     H_    0.194366 0.171106 0.146010 0.077582
O29   O     O_3   0.966196 0.782923 0.706882 -0.628506
C45   C     C_3   0.965085 0.870653 0.695753 0.266213
H33   H     H_    0.042713 0.915658 0.746076 -0.020564
H34   H     H_    0.018990 0.882279 0.637463 0.144888
H35   H     H_    0.847305 0.889680 0.694511 0.082384
O30   O     O_3   0.826779 0.645855 0.712102 -0.690936
C46   C     C_3   0.679151 0.593383 0.720506 0.157854
H36   H     H_    0.662840 0.534687 0.673264 0.096048
H37   H     H_    0.575770 0.622424 0.708506 0.034226
H38   H     H_    0.674745 0.578608 0.784870 0.046059
H39   H     H_    0.806085 0.901720 0.275676 -0.085126
O31   O     O_3   0.841968 0.854139 0.847403 -0.691856
C47   C     C_3   0.989140 0.873896 0.896198 0.151711
H40   H     H_    0.077713 0.839123 0.867560 0.058819
H41   H     H_    0.974253 0.858107 0.960045 0.109187
H42   H     H_    0.036318 0.945066 0.901825 0.014837
O32   O     O_3   0.850660 0.710388 0.873645 -0.702669
C48   C     C_3   0.760488 0.703806 0.943474 0.141035
H43   H     H_    0.666224 0.644228 0.930633 0.060842
H44   H     H_    0.706153 0.761846 0.961627 0.047014
H45   H     H_    0.838847 0.698815 0.998531 0.157754
H46   H     H_    0.658314 0.750746 0.819308 -0.015384
H47   H     H_    0.698938 0.292040 0.299437 0.251929
H48   H     H_    0.560067 0.253512 0.164827 0.007373
O33   O     O_3   0.700218 0.159406 0.166772 -0.675975
C49   C     C_3   0.661773 0.125656 0.081503 0.119336
H49   H     H_    0.649043 0.178520 0.043889 0.042137
H50   H     H_    0.552507 0.074237 0.071795 0.015250
H51   H     H_    0.759348 0.094628 0.058492 0.041865
O34   O     O_3   0.764193 0.843366 0.151554 -0.587415
C50   C     C_3   0.747265 0.917360 0.113997 0.200809
H52   H     H_    0.807640 0.979094 0.153803 0.022879
H53   H     H_    0.620254 0.918856 0.099805 -0.000718
H54   H     H_    0.801848 0.913397 0.054046 0.056906
O35   O     O_3   0.144995 0.885391 0.123633 -0.645120
C51   C     C_3   0.193801 0.963599 0.090788 0.114297
H55   H     H_    0.287839 0.011507 0.131294 0.019030
H56   H     H_    0.090194 0.993550 0.077302 0.021244
H57   H     H_    0.244147 0.947351 0.030804 0.036099
H58   H     H_    0.865883 0.270636 0.722999 -0.190853
O36   O     O_3   0.061424 0.200450 0.877493 -0.684355
C52   C     C_3   0.051924 0.207545 0.964444 0.075381
H59   H     H_    0.100968 0.275677 0.994135 0.025608
H60   H     H_    0.125674 0.164565 0.989714 0.051894
H61   H     H_    0.929380 0.186449 0.981216 0.040820
H62   H     H_    0.894248 0.281629 0.877249 -0.078461
O37   O     O_3   0.795013 0.157646 0.820358 -0.689018
C53   C     C_3   0.833675 0.074341 0.799657 0.150036
H63   H     H_    0.868985 0.049119 0.857229 0.082889
H64   H     H_    0.927696 0.073821 0.756237 0.075542
H65   H     H_    0.726992 0.028796 0.767943 0.071770
O38   O     O_3   0.360934 0.199946 0.703160 -0.619094
C54   C     C_3   0.479919 0.159145 0.669811 0.253407
H66   H     H_    0.527767 0.119334 0.712753 0.023838
H67   H     H_    0.577239 0.208676 0.654183 0.008277
H68   H     H_    0.427886 0.115581 0.611787 0.017478
H69   H     H_    0.285399 0.129681 0.832141 0.155389
O39   O     O_3   0.014547 0.753409 0.197278 -0.648855
C55   C     C_3   0.001311 0.670365 0.221336 0.352434
H70   H     H_    0.932154 0.665822 0.275431 0.086989
H71   H     H_    0.116210 0.650271 0.233273 -0.062150
H72   H     H_    0.932202 0.624190 0.169949 0.147690
O40   O     O_3   0.247580 0.584867 0.877180 -0.637333
C56   C     C_3   0.250472 0.674850 0.901196 0.179128
H73   H     H_    0.224529 0.689448 0.966735 0.083179
H74   H     H_    0.169940 0.701400 0.859643 0.053281
H75   H     H_    0.372837 0.710526 0.899460 0.016443
H76   H     H_    0.393414 0.607022 0.083076 0.113442
O41   O     O_3   0.912851 0.454037 0.132695 -0.592387
C57   C     C_3   0.878853 0.373130 0.080118 0.239972
H77   H     H_    0.921245 0.321635 0.110890 0.008627
H78   H     H_    0.929957 0.377970 0.019432 -0.005909
H79   H     H_    0.748675 0.353253 0.066942 0.054474
O42   O     O_3   0.384512 0.457030 0.300811 -0.699940
C58   C     C_3   0.451223 0.392362 0.256041 0.189232
H80   H     H_    0.490621 0.405057 0.193955 0.002331
H81   H     H_    0.362483 0.330809 0.244170 0.067105
H82   H     H_    0.559485 0.389613 0.293668 0.110720
O43   O     O_3   0.820304 0.905849 0.538632 -0.680269
C59   C     C_3   0.894204 0.931965 0.468871 0.207280
H83   H     H_    0.875018 0.877134 0.417160 0.057656
H84   H     H_    0.021532 0.954393 0.488524 0.080142
H85   H     H_    0.852575 0.986578 0.444395 0.027177
O44   O     O_3   0.280780 0.791365 0.253828 -0.742047
C60   C     C_3   0.332630 0.773541 0.173132 0.077186
H86   H     H_    0.420168 0.731979 0.176111 0.077975
H87   H     H_    0.238445 0.737923 0.124894 0.120971
H88   H     H_    0.390026 0.834371 0.151535 0.082182
O45   O     O_3   0.455415 0.071394 0.390921 -0.673538
C61   C     C_3   0.530596 0.023825 0.330306 0.102188
H89   H     H_    0.485560 0.953209 0.327548 0.074634
H90   H     H_    0.662465 0.037198 0.339752 0.029146
H91   H     H_    0.498154 0.039933 0.268112 0.071322
O46   O     O_3   0.358688 0.676699 0.481337 -0.665926
C62   C     C_3   0.372578 0.624031 0.406164 0.419912
H92   H     H_    0.443857 0.575242 0.416961 0.129938
H93   H     H_    0.402787 0.660182 0.353242 -0.178981
H94   H     H_    0.261493 0.581889 0.384350 0.070014
H95   H     H_    0.794872 0.299889 0.536419 0.155311
H96   H     H_    0.402959 0.702111 0.763056 -0.104675

loop_
_geom_bond_atom_site_label_1
_geom_bond_atom_site_label_2
_ccdc_geom_bond_type
C32   O43   S    
Ba1   P2    S    
O22   P2    D    
O36   C52   S    
C40   H46   S    
C54   H67   S    
C39   C40   S    
C41   H18   S    
C15   P6    S    
C50   H52   S    
Ba2   O4    S    
C8    H10   S    
O31   C47   S    
C48   H45   S    
C41   H20   S    
C46   H36   S    
C55   H71   S    
O45   C61   S    
Ba1   O23   S    
O4    P4    D    
O1    P1    D    
C24   C25   A    
O42   C58   S    
C4    H6    S    
C40   O32   S    
Ba1   O13   S    
C36   O26   S    
C38   H26   S    
C26   C27   A    
C17   C19   A    
C22   C24   A    
C32   C33   A    
C19   H12   S    
C22   H95   S    
C1    H39   S    
C46   H37   S    
C6    O36   S    
O17   P8    S    
C13   C14   A    
C30   P3    S    
C27   O45   S    
C43   H27   S    
C16   C18   A    
C47   H41   S    
Ba1   Ba2   S    
C54   H66   S    
C49   H49   S    
C18   N2    S    
C45   H33   S    
C52   H61   S    
O39   C55   S    
C57   H79   S    
C9    C15   A    
C5    H58   S    
C29   C30   A    
C26   C33   S    
C43   H28   S    
C14   C15   A    
O44   C60   S    
O35   C51   S    
C51   H57   S    
C3    H47   S    
O13   P2    S    
C55   H72   S    
O8    P7    S    
C37   H24   S    
C7    C8    S    
O18   P6    S    
O20   P1    S    
Ba2   O13   S    
C56   H75   S    
C40   O31   S    
C47   H42   S    
O2    P2    S    
C34   H17   S    
C8    H69   S    
C57   H77   S    
C19   C20   A    
Ba1   O1    S    
C52   H60   S    
C60   H87   S    
C49   H51   S    
O9    P5    S    
C23   H15   S    
C59   H85   S    
C8    H9    S    
O28   C44   S    
C56   H74   S    
C21   H11   S    
O5    P4    S    
C45   H34   S    
C2    H3    S    
C53   H65   S    
O12   P1    S    
C11   O41   S    
O34   C50   S    
C58   H80   S    
C3    H5    S    
C5    C6    S    
C50   H54   S    
C5    H7    S    
C59   H84   S    
Ba2   O6    S    
C5    O11   S    
C25   H14   S    
C16   C17   A    
C46   H38   S    
C48   H44   S    
C12   O44   S    
C42   H23   S    
Ba1   O8    S    
O21   P6    S    
O43   C59   S    
N1    N2    D    
C45   H35   S    
C39   O30   S    
Ba2   P4    S    
C58   H81   S    
C62   H92   S    
C36   H2    S    
C27   C28   A    
C17   P4    S    
O11   P5    S    
O26   C42   S    
C18   C21   A    
O27   C43   S    
C12   O3    S    
C36   O25   S    
C42   H22   S    
Ba1   O5    S    
C30   C35   A    
C51   H55   S    
C4    O33   S    
C37   O20   S    
C44   H30   S    
Ba2   O12   S    
O14   P7    D    
O15   P7    S    
C38   O27   S    
C28   P7    S    
O38   C54   S    
C62   H93   S    
C51   H56   S    
C16   O40   S    
C11   C13   A    
C52   H59   S    
O32   C48   S    
Ba1   O18   S    
C60   H88   S    
C29   C33   A    
C24   P5    S    
C23   H16   S    
C39   O2    S    
C57   H78   S    
C1    C2    S    
Ba2   O8    S    
C37   C38   S    
C56   H73   S    
O7    P4    S    
C31   C35   A    
C47   H40   S    
O24   P3    D    
Ba1   P1    S    
C37   H25   S    
C53   H63   S    
C50   H53   S    
C61   H89   S    
C7    O38   S    
C7    H8    S    
O23   P3    S    
C59   H83   S    
Ba2   O5    S    
C6    O37   S    
C9    C10   A    
C41   H19   S    
C48   H43   S    
C2    H1    S    
Ba1   O22   S    
C1    H4    S    
C43   H29   S    
C10   P1    S    
C60   H86   S    
C23   O35   S    
C9    O42   S    
Ba1   O12   S    
C44   H32   S    
C3    O15   S    
C53   H64   S    
C31   P2    S    
C58   H82   S    
C12   O39   S    
C55   H70   S    
C6    H62   S    
O33   C49   S    
C34   H96   S    
C34   C36   S    
C38   O28   S    
C61   H91   S    
O41   C57   S    
C3    C4    S    
O10   P5    D    
Ba2   O9    S    
O19   P6    D    
O16   P8    D    
C42   H21   S    
C20   P8    S    
C31   C32   A    
C49   H50   S    
C7    O17   S    
C12   C23   S    
C4    H48   S    
O25   C41   S    
C22   C28   A    
C35   O46   S    
O37   C53   S    
C14   H76   S    
O40   C56   S    
C62   H94   S    
C2    O21   S    
C10   C11   A    
C1    O34   S    
O46   C62   S    
C25   C26   A    
O6    P8    S    
C39   O29   S    
C20   C21   A    
C54   H68   S    
C29   H13   S    
O30   C46   S    
O29   C45   S    
C61   H90   S    
C34   O7    S    
O3    P3    S    
C13   N1    S    
Ba2   O14   S    
C44   H31   S    
