data_mof_unit_23949.cif
_audit_creation_date              2013-03-05T15:54:05-0500
_audit_creation_method            fapswitch 2.2
_symmetry_space_group_name_H-M    P1
_symmetry_Int_Tables_number       1
_space_group_crystal_system       triclinic
_cell_length_a                    23.468931
_cell_length_b                    13.599114
_cell_length_c                    28.454977
_cell_angle_alpha                 90.001218
_cell_angle_beta                  90.457573
_cell_angle_gamma                 90.000836
_cell_volume                      9081.30604337

loop_
_atom_site_label
_atom_site_type_symbol
_atom_site_description
_atom_site_fract_x
_atom_site_fract_y
_atom_site_fract_z
_atom_type_partial_charge
O1    O     O_R   0.237900 0.735050 0.799950 -0.502935
O2    O     O_R   0.762100 0.735050 0.200050 -0.502890
O3    O     O_R   0.737900 0.235050 0.799950 -0.502935
O4    O     O_R   0.262100 0.235050 0.200050 -0.502868
O5    O     O_R   0.256160 0.936210 0.796950 -0.494375
O6    O     O_R   0.743840 0.936210 0.203050 -0.494562
O7    O     O_R   0.756160 0.436210 0.796950 -0.494541
O8    O     O_R   0.243840 0.436210 0.203050 -0.494407
C1    C     C_R   0.284795 0.005156 0.816169 0.546876
C2    C     C_R   0.715206 0.005159 0.183832 0.546723
C3    C     C_R   0.784796 0.505155 0.816170 0.546762
C4    C     C_R   0.215207 0.505160 0.183833 0.546824
O9    O     O_R   0.333710 0.029860 0.801630 -0.505617
O10   O     O_R   0.666290 0.029860 0.198370 -0.505808
O11   O     O_R   0.833710 0.529860 0.801630 -0.505858
O12   O     O_R   0.166290 0.529860 0.198370 -0.505583
O13   O     O_R   0.425340 0.901920 0.798280 -0.495311
O14   O     O_R   0.574660 0.901920 0.201720 -0.495367
O15   O     O_R   0.925340 0.401920 0.798280 -0.495458
O16   O     O_R   0.074660 0.401920 0.201720 -0.495234
C5    C     C_R   0.445990 0.824151 0.816609 0.547900
C6    C     C_R   0.554002 0.824149 0.183396 0.547969
C7    C     C_R   0.945991 0.324151 0.816609 0.547976
C8    C     C_R   0.054003 0.324149 0.183395 0.547906
O17   O     O_R   0.433530 0.738890 0.801610 -0.506547
O18   O     O_R   0.566470 0.738890 0.198390 -0.506568
O19   O     O_R   0.933530 0.238890 0.801610 -0.506515
O20   O     O_R   0.066470 0.238890 0.198390 -0.506587
O21   O     O_R   0.323650 0.665810 0.796720 -0.496817
O22   O     O_R   0.676350 0.665810 0.203280 -0.496777
O23   O     O_R   0.823650 0.165810 0.796720 -0.496765
O24   O     O_R   0.176350 0.165810 0.203280 -0.496833
C9    C     C_R   0.274540 0.673935 0.815061 0.547631
C10   C     C_R   0.725461 0.673931 0.184940 0.547625
C11   C     C_R   0.774541 0.173937 0.815062 0.547612
C12   C     C_R   0.225461 0.173930 0.184940 0.547636
O25   O     O_R   0.237790 0.735800 0.697250 -0.508693
O26   O     O_R   0.762210 0.735800 0.302750 -0.505721
O27   O     O_R   0.737790 0.235800 0.697250 -0.505809
O28   O     O_R   0.262210 0.235800 0.302750 -0.508298
O29   O     O_R   0.256050 0.936910 0.701750 -0.493122
O30   O     O_R   0.743950 0.936910 0.298250 -0.493548
O31   O     O_R   0.756050 0.436910 0.701750 -0.493625
O32   O     O_R   0.243950 0.436910 0.298250 -0.492949
C13   C     C_R   0.284515 0.006967 0.683932 0.546408
C14   C     C_R   0.715483 0.007066 0.316057 0.547294
C15   C     C_R   0.784513 0.507069 0.683944 0.547362
C16   C     C_R   0.215497 0.506969 0.316057 0.546362
O33   O     O_R   0.333600 0.030610 0.698930 -0.512293
O34   O     O_R   0.666400 0.030610 0.301070 -0.510615
O35   O     O_R   0.833600 0.530610 0.698930 -0.510505
O36   O     O_R   0.166400 0.530610 0.301070 -0.512300
O37   O     O_R   0.425240 0.902610 0.703070 -0.491542
O38   O     O_R   0.574760 0.902610 0.296930 -0.492734
O39   O     O_R   0.925240 0.402610 0.703070 -0.493037
O40   O     O_R   0.074760 0.402610 0.296930 -0.491530
C17   C     C_R   0.445765 0.825271 0.684431 0.547768
C18   C     C_R   0.554129 0.825242 0.315500 0.548289
C19   C     C_R   0.945897 0.325240 0.684513 0.548327
C20   C     C_R   0.054248 0.325288 0.315585 0.547680
O41   O     O_R   0.433420 0.739640 0.698910 -0.506525
O42   O     O_R   0.566580 0.739640 0.301090 -0.506784
O43   O     O_R   0.933420 0.239640 0.698910 -0.506630
O44   O     O_R   0.066580 0.239640 0.301090 -0.506503
O45   O     O_R   0.323550 0.666510 0.701520 -0.494477
O46   O     O_R   0.676450 0.666510 0.298480 -0.495673
O47   O     O_R   0.823550 0.166510 0.701520 -0.495588
O48   O     O_R   0.176450 0.166510 0.298480 -0.494689
C21   C     C_R   0.274131 0.673971 0.683065 0.548066
C22   C     C_R   0.725785 0.674103 0.317000 0.548859
C23   C     C_R   0.774209 0.174101 0.683001 0.548874
C24   C     C_R   0.225861 0.173983 0.316943 0.548015
Cr1   Cr    Cr6+3 0.250680 0.837130 0.748990 1.037266
Cr2   Cr    Cr6+3 0.749320 0.837130 0.251010 1.039677
Cr3   Cr    Cr6+3 0.750680 0.337130 0.748990 1.039597
Cr4   Cr    Cr6+3 0.249320 0.337130 0.251010 1.037651
Cr5   Cr    Cr6+3 0.378160 0.960100 0.750430 1.038318
Cr6   Cr    Cr6+3 0.621840 0.960100 0.249570 1.037314
Cr7   Cr    Cr6+3 0.878160 0.460100 0.750430 1.036952
Cr8   Cr    Cr6+3 0.121840 0.460100 0.249570 1.038431
Cr9   Cr    Cr6+3 0.376090 0.707720 0.749670 1.035920
Cr10  Cr    Cr6+3 0.623910 0.707720 0.250330 1.035886
Cr11  Cr    Cr6+3 0.876090 0.207720 0.749670 1.035988
Cr12  Cr    Cr6+3 0.123910 0.207720 0.250330 1.035814
O49   O     O_3   0.334980 0.834990 0.749700 -0.256530
O50   O     O_3   0.665020 0.834990 0.250300 -0.256652
O51   O     O_3   0.834980 0.334990 0.749700 -0.256583
O52   O     O_3   0.165020 0.334990 0.250300 -0.256595
C25   C     C_3   0.442526 0.891685 0.977987 -0.239522
C26   C     C_3   0.557575 0.891101 0.022021 -0.239474
C27   C     C_3   0.942537 0.391710 0.977985 -0.239528
C28   C     C_3   0.057586 0.391081 0.022019 -0.239463
C29   C     C_3   0.549006 0.892938 0.967663 0.118588
C30   C     C_3   0.451105 0.893515 0.032346 0.118601
C31   C     C_3   0.049016 0.392924 0.967661 0.118603
C32   C     C_3   0.951116 0.393539 0.032345 0.118592
H1    H     H_    0.456616 0.971796 0.043138 0.104520
H2    H     H_    0.543780 0.971261 0.956846 0.104432
H3    H     H_    0.956638 0.471818 0.043135 0.104545
H4    H     H_    0.043798 0.471249 0.956846 0.104402
H5    H     H_    0.439687 0.968521 0.964671 0.072875
H6    H     H_    0.560683 0.967925 0.035312 0.072733
H7    H     H_    0.939707 0.468545 0.964669 0.072860
H8    H     H_    0.060706 0.467904 0.035311 0.072750
H9    H     H_    0.598436 0.854568 0.031786 0.170494
H10   H     H_    0.401537 0.855568 0.968234 0.170506
H11   H     H_    0.098442 0.354529 0.031783 0.170498
H12   H     H_    0.901543 0.355607 0.968232 0.170505
C33   C     C_1   0.529819 0.831594 0.137549 0.013503
C34   C     C_1   0.470135 0.831600 0.862469 0.013567
C35   C     C_1   0.029822 0.331594 0.137548 0.013524
C36   C     C_1   0.970138 0.331602 0.862468 0.013531
C37   C     C_3   0.493003 0.837544 0.954066 0.020579
C38   C     C_3   0.506907 0.837539 0.045960 0.020593
C39   C     C_3   0.993007 0.337549 0.954065 0.020586
C40   C     C_3   0.006911 0.337541 0.045959 0.020581
C41   C     C_3   0.505706 0.730752 0.026763 -0.205291
C42   C     C_3   0.493814 0.730775 0.973298 -0.205253
C43   C     C_3   0.005696 0.230754 0.026763 -0.205293
C44   C     C_3   0.993804 0.230781 0.973298 -0.205256
C45   C     C_1   0.516456 0.835803 0.096845 -0.024315
C46   C     C_1   0.483469 0.835812 0.903179 -0.024313
C47   C     C_1   0.016459 0.335804 0.096844 -0.024284
C48   C     C_1   0.983472 0.335816 0.903178 -0.024346
H13   H     H_    0.451858 0.695123 0.966387 0.124263
H14   H     H_    0.547531 0.694655 0.033687 0.124448
H15   H     H_    0.951844 0.195143 0.966386 0.124248
H16   H     H_    0.047515 0.194640 0.033687 0.124446
H17   H     H_    0.526058 0.685269 0.954980 0.170215
H18   H     H_    0.473294 0.685630 0.045096 0.170072
H19   H     H_    0.026043 0.185262 0.954980 0.170204
H20   H     H_    0.973276 0.185647 0.045096 0.170081
C49   C     C_1   0.265868 0.632024 0.860475 0.003764
C50   C     C_1   0.734143 0.631998 0.139531 0.003948
C51   C     C_1   0.765870 0.132028 0.860477 0.003875
C52   C     C_1   0.234144 0.131995 0.139532 0.003844
C53   C     C_R   0.304679 0.580816 0.978210 -0.088195
C54   C     C_R   0.695375 0.580027 0.021848 -0.088135
C55   C     C_R   0.804683 0.080862 0.978214 -0.088203
C56   C     C_R   0.195376 0.080029 0.021849 -0.088133
C57   C     C_R   0.299820 0.570929 0.026918 -0.061366
C58   C     C_R   0.700221 0.570155 0.973138 -0.061072
C59   C     C_R   0.799823 0.070973 0.026922 -0.061364
C60   C     C_R   0.200222 0.070157 0.973138 -0.061080
C61   C     C_R   0.196800 0.572544 0.019096 -0.099920
C62   C     C_R   0.803240 0.573251 0.980869 -0.099906
C63   C     C_R   0.696803 0.072512 0.019095 -0.099921
C64   C     C_R   0.303242 0.073240 0.980870 -0.099906
C65   C     C_R   0.201638 0.582258 0.970471 -0.068244
C66   C     C_R   0.798415 0.582960 0.029495 -0.067874
C67   C     C_R   0.701642 0.082229 0.970470 -0.068230
C68   C     C_R   0.298416 0.082947 0.029496 -0.067892
C69   C     C_R   0.255564 0.586416 0.949951 0.044457
C70   C     C_R   0.744497 0.586366 0.050062 0.044704
C71   C     C_R   0.755568 0.086424 0.949953 0.044433
C72   C     C_R   0.244498 0.086361 0.050063 0.044706
C73   C     C_R   0.245834 0.567729 0.047414 0.042557
C74   C     C_R   0.754195 0.567709 0.952594 0.042726
C75   C     C_R   0.745836 0.067733 0.047415 0.042537
C76   C     C_R   0.254196 0.067705 0.952595 0.042729
C77   C     C_1   0.239856 0.553789 0.097093 -0.039246
C78   C     C_1   0.760166 0.553763 0.902917 -0.039090
C79   C     C_1   0.739858 0.053791 0.097094 -0.039233
C80   C     C_1   0.260167 0.053761 0.902917 -0.039110
C81   C     C_1   0.260568 0.606871 0.900712 -0.033799
C82   C     C_1   0.739464 0.606830 0.099297 -0.033532
C83   C     C_1   0.760571 0.106878 0.900714 -0.033764
C84   C     C_1   0.239465 0.106826 0.099298 -0.033571
C85   C     C_1   0.231070 0.536227 0.137808 0.001018
C86   C     C_1   0.768942 0.536209 0.862199 0.001203
C87   C     C_1   0.731071 0.036228 0.137809 0.001137
C88   C     C_1   0.268943 0.036208 0.862199 0.001073
H21   H     H_    0.346600 0.585595 0.962682 0.110956
H22   H     H_    0.653452 0.584225 0.037410 0.111033
H23   H     H_    0.846604 0.085672 0.962688 0.110951
H24   H     H_    0.153453 0.084232 0.037411 0.111045
H25   H     H_    0.337952 0.566128 0.048507 0.140548
H26   H     H_    0.662085 0.564779 0.951584 0.140500
H27   H     H_    0.837955 0.066202 0.048513 0.140582
H28   H     H_    0.162086 0.064786 0.951584 0.140499
H29   H     H_    0.154856 0.569100 0.034645 0.105007
H30   H     H_    0.845181 0.570368 0.965286 0.105034
H31   H     H_    0.654859 0.069037 0.034641 0.105005
H32   H     H_    0.345182 0.070352 0.965288 0.105041
H33   H     H_    0.163441 0.588194 0.949024 0.143660
H34   H     H_    0.836609 0.589472 0.050908 0.143679
H35   H     H_    0.663446 0.088138 0.949021 0.143741
H36   H     H_    0.336611 0.089453 0.050909 0.143638
C89   C     C_1   0.469820 0.833905 0.638809 -0.005394
C90   C     C_1   0.529297 0.833669 0.360847 -0.005431
C91   C     C_1   0.970894 0.333651 0.639220 -0.005677
C92   C     C_1   0.030227 0.334033 0.361229 -0.005644
C93   C     C_R   0.503485 0.756472 0.524894 -0.123422
C94   C     C_R   0.509322 0.755858 0.476373 -0.123745
C95   C     C_R   0.989769 0.256253 0.523546 -0.123538
C96   C     C_R   0.995558 0.257029 0.475018 -0.123279
C97   C     C_R   0.493662 0.933028 0.473910 -0.002554
C98   C     C_R   0.487705 0.933681 0.523443 -0.003042
C99   C     C_R   0.013680 0.433539 0.476810 -0.003373
C100  C     C_R   0.008107 0.432610 0.526378 -0.002876
C101  C     C_R   0.492969 0.844441 0.548584 0.019078
C102  C     C_R   0.504343 0.843090 0.450758 0.019424
C103  C     C_R   0.996100 0.342994 0.549350 0.019373
C104  C     C_R   0.007188 0.344752 0.451483 0.019041
C105  C     C_1   0.515060 0.838943 0.401188 -0.049134
C106  C     C_1   0.483203 0.839739 0.598281 -0.049965
C107  C     C_1   0.016886 0.340032 0.401768 -0.050087
C108  C     C_1   0.985283 0.338882 0.598911 -0.049212
H37   H     H_    0.506892 0.687786 0.544043 0.117300
H38   H     H_    0.518194 0.686946 0.458732 0.116826
H39   H     H_    0.979915 0.187595 0.541050 0.117049
H40   H     H_    0.991178 0.188664 0.455736 0.117323
C109  C     C_1   0.264823 0.631997 0.637977 -0.011236
C110  C     C_1   0.734928 0.631424 0.361973 -0.008154
C111  C     C_1   0.765036 0.131475 0.638017 -0.008126
C112  C     C_1   0.235175 0.131897 0.362010 -0.011166
C113  C     C_R   0.227767 0.667318 0.520893 -0.112065
C114  C     C_R   0.797169 0.613357 0.474304 -0.104647
C115  C     C_R   0.703618 0.118198 0.525348 -0.104809
C116  C     C_R   0.275883 0.163642 0.478636 -0.112547
C117  C     C_R   0.225573 0.657568 0.472218 -0.108930
C118  C     C_R   0.800733 0.606788 0.523077 -0.107987
C119  C     C_R   0.700223 0.111583 0.476569 -0.108868
C120  C     C_R   0.278066 0.154389 0.527333 -0.110539
C121  C     C_R   0.273007 0.499270 0.478553 -0.106295
C122  C     C_R   0.702807 0.549346 0.525653 -0.104245
C123  C     C_R   0.796279 0.045255 0.474613 -0.104012
C124  C     C_R   0.223561 0.002860 0.521857 -0.105890
C125  C     C_R   0.275224 0.509050 0.527324 -0.107779
C126  C     C_R   0.699199 0.556136 0.476802 -0.105671
C127  C     C_R   0.799726 0.052092 0.523469 -0.105647
C128  C     C_R   0.221319 0.012186 0.473062 -0.107517
C129  C     C_R   0.252439 0.593025 0.548397 0.033615
C130  C     C_R   0.746463 0.587861 0.451198 0.040417
C131  C     C_R   0.753301 0.088272 0.548768 0.040502
C132  C     C_R   0.247665 0.092483 0.451543 0.035139
C133  C     C_R   0.248497 0.573848 0.451083 0.035614
C134  C     C_R   0.753464 0.575390 0.548731 0.040262
C135  C     C_R   0.746658 0.075695 0.451221 0.040083
C136  C     C_R   0.251640 0.074320 0.548916 0.036203
C137  C     C_1   0.241499 0.559290 0.401786 -0.072950
C138  C     C_1   0.759420 0.560418 0.598128 -0.060286
C139  C     C_1   0.740624 0.060580 0.401842 -0.060812
C140  C     C_1   0.258601 0.059586 0.598211 -0.072364
C141  C     C_1   0.258456 0.608636 0.597718 -0.062907
C142  C     C_1   0.740837 0.606429 0.402062 -0.056761
C143  C     C_1   0.759041 0.106613 0.597916 -0.056716
C144  C     C_1   0.241560 0.108355 0.402245 -0.062109
C145  C     C_1   0.231902 0.540412 0.361415 -0.022735
C146  C     C_1   0.768362 0.540906 0.638550 -0.011991
C147  C     C_1   0.731649 0.040971 0.361436 -0.012398
C148  C     C_1   0.268144 0.040527 0.638576 -0.022399
H41   H     H_    0.210710 0.733084 0.537065 0.100157
H42   H     H_    0.833512 0.639722 0.454707 0.105071
H43   H     H_    0.667972 0.147977 0.544710 0.104921
H44   H     H_    0.295656 0.226712 0.462139 0.099200
H45   H     H_    0.205664 0.714641 0.451183 0.104267
H46   H     H_    0.840321 0.625678 0.540744 0.101017
H47   H     H_    0.661393 0.133882 0.458665 0.101704
H48   H     H_    0.300655 0.208996 0.548036 0.103802
H49   H     H_    0.289858 0.433422 0.462311 0.105516
H50   H     H_    0.666413 0.523503 0.545328 0.108264
H51   H     H_    0.831972 0.015914 0.455176 0.108327
H52   H     H_    0.203926 0.939746 0.538431 0.104649
H53   H     H_    0.294904 0.451883 0.548439 0.106571
H54   H     H_    0.659509 0.538071 0.459097 0.107965
H55   H     H_    0.838668 0.030537 0.541411 0.107932
H56   H     H_    0.198832 0.957595 0.452275 0.105645
C149  C     C_R   0.488175 0.025458 0.446510 0.032193
C150  C     C_R   0.535713 0.065209 0.423618 -0.095914
C151  C     C_R   0.530652 0.152950 0.398337 -0.108659
C152  C     C_R   0.478192 0.201459 0.395761 -0.099210
C153  C     C_R   0.430699 0.162287 0.418459 -0.103756
C154  C     C_R   0.435583 0.074575 0.443806 -0.081335
H57   H     H_    0.576618 0.028470 0.425578 0.110422
H58   H     H_    0.567420 0.183380 0.380802 0.117336
H59   H     H_    0.474341 0.269399 0.376179 0.113824
H60   H     H_    0.390113 0.199881 0.416382 0.109849
H61   H     H_    0.398507 0.044913 0.461276 0.117817
C155  C     C_R   0.477667 0.027374 0.548826 0.032269
C156  C     C_R   0.425563 0.044603 0.571357 -0.087623
C157  C     C_R   0.416254 0.133469 0.594792 -0.101989
C158  C     C_R   0.458637 0.205657 0.595675 -0.103201
C159  C     C_R   0.510521 0.189033 0.573244 -0.107758
C160  C     C_R   0.520110 0.100174 0.549923 -0.082055
H62   H     H_    0.392213 0.989541 0.570562 0.116023
H63   H     H_    0.376174 0.146574 0.612212 0.124240
H64   H     H_    0.451273 0.274469 0.613745 0.111456
H65   H     H_    0.543326 0.244970 0.573943 0.106425
H66   H     H_    0.560486 0.088024 0.532683 0.102779
C161  C     C_R   0.024244 0.527273 0.451622 0.032421
C162  C     C_R   0.076315 0.543781 0.428926 -0.086817
C163  C     C_R   0.086132 0.632943 0.405882 -0.100562
C164  C     C_R   0.044284 0.706056 0.405511 -0.103432
C165  C     C_R   0.992429 0.690112 0.428083 -0.107810
C166  C     C_R   0.982347 0.601027 0.451051 -0.082010
H67   H     H_    0.109262 0.487996 0.429341 0.115616
H68   H     H_    0.126186 0.645620 0.388376 0.124802
H69   H     H_    0.052051 0.775071 0.387737 0.111030
H70   H     H_    0.960043 0.746777 0.427795 0.106364
H71   H     H_    0.942021 0.589463 0.468461 0.101499
C167  C     C_R   0.015649 0.524341 0.553999 0.032219
C168  C     C_R   0.969219 0.566418 0.577475 -0.095404
C169  C     C_R   0.976308 0.653445 0.603004 -0.108364
C170  C     C_R   0.029693 0.698916 0.605246 -0.099469
C171  C     C_R   0.076087 0.657428 0.581959 -0.103539
C172  C     C_R   0.069176 0.570436 0.556359 -0.080888
H72   H     H_    0.927623 0.532030 0.575795 0.109312
H73   H     H_    0.940398 0.685675 0.621003 0.116974
H74   H     H_    0.035113 0.766292 0.625028 0.114064
H75   H     H_    0.117393 0.692656 0.583782 0.111701
H76   H     H_    0.105424 0.538956 0.538441 0.118254
N1    N     N_R   0.598969 0.853322 0.943332 0.082748
O53   O     O_R   0.620117 0.767892 0.954422 -0.375127
O54   O     O_R   0.624248 0.906026 0.911545 -0.347998
N2    N     N_R   0.401002 0.854476 0.056692 0.082729
O55   O     O_R   0.379528 0.769277 0.045617 -0.375096
O56   O     O_R   0.375940 0.907475 0.088487 -0.348109
N3    N     N_R   0.098975 0.353294 0.943330 0.082756
O57   O     O_R   0.120109 0.267852 0.954415 -0.375154
O58   O     O_R   0.124265 0.405999 0.911549 -0.348057
N4    N     N_R   0.901008 0.354521 0.056691 0.082726
O59   O     O_R   0.879520 0.269334 0.045614 -0.375092
O60   O     O_R   0.875960 0.407525 0.088491 -0.348047

loop_
_geom_bond_atom_site_label_1
_geom_bond_atom_site_label_2
_geom_bond_distance
_ccdc_geom_bond_type
N4    O60   1.300917 A    
O4    C12   1.268522 A    
C111  C143  1.197318 T    
O25   C21   1.266034 A    
C121  C133  1.401190 A    
C19   C91   1.424916 S    
C161  C162  1.404797 A    
C31   N3    1.468833 S    
Cr7   O51   1.980332 S    
C5    C34   1.422117 S    
C7    C36   1.422118 S    
C157  C158  1.397615 A    
C99   C161  1.484216 S    
C159  C160  1.397719 A    
C36   C48   1.198884 T    
O39   C19   1.274749 A    
C13   C148  1.419050 S    
C95   C103  1.396748 A    
C170  H74   1.082305 S    
C32   H3    1.115187 S    
O21   C9    1.273808 A    
C136  C140  1.425050 S    
C93   C101  1.396096 A    
C64   C76   1.401109 A    
C25   C30   1.558458 S    
C1    O9    1.268636 A    
C155  C160  1.404550 A    
O44   Cr12  2.028789 S    
C15   C146  1.419876 S    
C27   C32   1.558463 S    
C62   C66   1.395443 A    
C3    O11   1.268639 A    
C37   C46   1.463589 S    
C68   C72   1.399181 A    
C71   C83   1.434171 S    
C152  C153  1.398135 A    
C25   H10   1.113269 S    
C54   H22   1.083665 S    
C101  C106  1.435809 S    
C67   C71   1.399140 A    
C96   C104  1.396084 A    
C41   H14   1.113650 S    
C43   H16   1.113651 S    
O2    C10   1.268523 A    
C99   C100  1.417585 A    
O17   Cr9   2.037008 S    
C162  H67   1.083249 S    
C58   C74   1.399716 A    
O31   Cr3   1.914886 S    
C25   C37   1.556162 S    
O16   Cr8   1.918788 S    
C22   C110  1.419946 S    
C137  C145  1.196736 T    
C113  C129  1.400464 A    
C30   H1    1.115187 S    
C2    C87   1.428290 S    
O13   C5    1.273335 A    
C128  H56   1.083748 S    
C117  C133  1.397327 A    
N2    O55   1.301214 A    
O12   Cr8   2.033488 S    
O22   Cr10  1.912637 S    
O15   C7    1.273333 A    
C53   H21   1.083657 S    
C115  C131  1.398884 A    
O46   Cr10  1.919573 S    
C61   C73   1.401101 A    
C168  C169  1.397875 A    
C89   C106  1.200271 T    
O48   C24   1.273300 A    
C6    C33   1.422127 S    
C171  C172  1.398043 A    
C53   C69   1.402232 A    
C28   C40   1.556131 S    
C56   C72   1.402218 A    
C122  H50   1.083568 S    
C57   C73   1.399692 A    
C134  C138  1.426016 S    
C99   C104  1.413738 A    
C97   C149  1.484209 S    
C26   C29   1.558390 S    
C156  H62   1.083280 S    
C25   H5    1.113289 S    
C158  H64   1.082295 S    
Cr12  O52   1.981501 S    
C26   H9    1.113271 S    
C27   H7    1.113287 S    
C17   O41   1.269516 A    
C112  C144  1.197070 T    
C19   O43   1.269084 A    
C153  H60   1.082236 S    
C20   O44   1.269801 A    
Cr8   O52   1.980356 S    
C42   H17   1.110696 S    
C119  C135  1.399499 A    
C119  H47   1.083771 S    
C33   C45   1.198886 T    
O46   C22   1.272490 A    
C126  C130  1.400092 A    
C26   C38   1.556134 S    
C28   H8    1.113269 S    
C95   C96   1.388656 A    
C96   H40   1.083990 S    
C16   O36   1.266915 A    
C93   C94   1.388564 A    
O27   C23   1.266685 A    
C32   C40   1.560941 S    
C135  C139  1.425952 S    
O31   C15   1.272261 A    
C130  C142  1.425868 S    
C151  C152  1.398205 A    
C123  C127  1.395006 A    
N3    O58   1.300918 A    
O47   Cr11  1.919544 S    
C40   C47   1.463592 S    
C132  C144  1.425382 S    
C121  H49   1.083865 S    
C129  C141  1.425289 S    
C44   H15   1.113642 S    
O5    C1    1.274332 A    
C115  H43   1.083868 S    
C149  C154  1.404991 A    
O24   C12   1.273812 A    
C124  C136  1.401188 A    
O33   Cr5   2.033761 S    
N1    O54   1.300918 A    
C72   C84   1.434168 S    
C61   H29   1.083458 S    
C128  C132  1.398468 A    
C172  H76   1.083455 S    
C163  H68   1.081216 S    
O32   Cr4   1.914852 S    
C26   H6    1.113269 S    
C65   C69   1.399144 A    
C55   C59   1.398075 A    
O11   Cr7   2.033475 S    
C60   H28   1.083401 S    
C29   N1    1.468841 S    
C18   C90   1.424704 S    
C55   C71   1.402232 A    
O3    Cr3   2.031447 S    
C20   C92   1.424960 S    
C77   C85   1.202352 T    
Cr5   O49   1.980332 S    
C157  H63   1.081510 S    
C43   H20   1.110699 S    
C151  H58   1.082450 S    
C139  C147  1.197317 T    
O22   C10   1.273811 A    
C154  H61   1.083450 S    
C4    O12   1.268656 A    
C155  C156  1.404920 A    
C2    O10   1.268658 A    
C11   C51   1.428435 S    
C125  H53   1.083656 S    
C122  C126  1.395031 A    
C63   C67   1.395441 A    
C17   C89   1.424598 S    
C163  C164  1.397528 A    
C94   H38   1.084086 S    
O3    C11   1.268544 A    
O8    C4    1.274345 A    
C32   N4    1.468828 S    
C114  H42   1.083786 S    
C97   C102  1.412569 A    
C109  C141  1.197001 T    
C120  C136  1.397692 A    
Cr1   O49   1.978585 S    
Cr3   O51   1.978585 S    
C92   C107  1.200475 T    
C80   C88   1.202343 T    
C60   C76   1.399716 A    
C126  H54   1.083651 S    
C5    O17   1.268873 A    
C169  C170  1.398172 A    
O29   C13   1.271385 A    
O28   C24   1.266111 A    
C69   C81   1.434176 S    
O14   C6    1.273339 A    
C150  H57   1.083266 S    
C64   C68   1.395447 A    
C66   H34   1.083442 S    
C4    C85   1.428297 S    
C62   C74   1.401106 A    
C103  C108  1.435996 S    
C171  H75   1.082187 S    
O40   Cr8   1.916242 S    
C133  C137  1.424835 S    
C164  H69   1.082293 S    
O41   Cr9   2.028788 S    
C41   C42   1.544548 S    
C54   C70   1.402218 A    
C58   H26   1.083400 S    
C23   C111  1.419991 S    
C116  H44   1.083892 S    
C30   N2    1.468828 S    
O5    Cr1   1.921342 S    
C97   C98   1.417530 A    
O35   Cr7   2.033761 S    
C14   C147  1.419852 S    
C38   C41   1.551708 S    
O29   Cr1   1.914886 S    
O32   C16   1.271129 A    
C98   C155  1.484345 S    
C158  C159  1.397712 A    
C51   C83   1.202354 T    
C127  C131  1.399999 A    
Cr9   O49   1.981528 S    
C18   O42   1.269078 A    
Cr11  O51   1.981528 S    
O26   C22   1.266747 A    
C65   H33   1.083433 S    
C127  H55   1.083688 S    
O20   Cr12  2.037030 S    
C44   H19   1.110692 S    
C68   H36   1.083442 S    
C123  H51   1.083631 S    
C67   H35   1.083432 S    
C57   H25   1.083392 S    
C76   C80   1.434225 S    
O26   Cr2   2.037385 S    
C164  C165  1.397540 A    
C94   C102  1.396724 A    
C12   C52   1.428441 S    
N2    O56   1.300919 A    
O30   C14   1.272294 A    
C16   C145  1.418759 S    
C38   C45   1.463593 S    
C102  C105  1.435843 S    
C50   C82   1.202354 T    
C42   H13   1.113643 S    
C100  C167  1.484239 S    
C79   C87   1.202347 T    
N4    O59   1.301212 A    
O42   Cr10  2.028789 S    
O18   Cr10  2.037030 S    
C149  C150  1.404598 A    
C113  C117  1.391913 A    
O34   Cr6   2.033717 S    
O6    Cr2   1.921383 S    
C169  H73   1.082395 S    
O24   Cr12  1.912637 S    
O30   Cr2   1.914852 S    
C62   H30   1.083498 S    
C35   C47   1.198886 T    
O48   Cr12  1.919573 S    
C8    O20   1.268866 A    
C21   C109  1.419531 S    
C54   C58   1.398069 A    
C165  C166  1.397609 A    
O37   C17   1.274193 A    
C31   H4    1.115188 S    
C15   O35   1.266337 A    
Cr10  O50   1.981501 S    
C167  C172  1.405052 A    
C121  C125  1.394690 A    
O40   C20   1.274077 A    
O43   Cr11  2.028788 S    
C138  C146  1.197340 T    
O37   Cr5   1.916229 S    
O21   Cr9   1.912646 S    
C49   C81   1.202358 T    
O39   Cr7   1.916229 S    
C90   C105  1.200260 T    
O45   Cr9   1.919544 S    
C78   C86   1.202342 T    
C104  C107  1.436054 S    
C13   O33   1.266749 A    
C123  C135  1.399364 A    
O13   Cr5   1.918825 S    
C113  H41   1.083888 S    
O15   Cr7   1.918825 S    
C168  H72   1.083155 S    
C24   C112  1.419666 S    
C159  H65   1.082374 S    
O23   C11   1.273803 A    
C73   C77   1.434240 S    
C124  C128  1.394801 A    
C53   C57   1.398079 A    
C39   C48   1.463590 S    
C27   H12   1.113266 S    
C56   C60   1.398072 A    
O6    C2    1.274345 A    
C43   C44   1.544543 S    
C59   C75   1.399689 A    
C165  H70   1.082355 S    
O1    Cr1   2.031447 S    
O19   Cr11  2.037008 S    
C161  C166  1.404595 A    
C34   C46   1.198885 T    
N1    O53   1.301215 A    
O45   C21   1.273383 A    
C27   C39   1.556161 S    
C29   C37   1.560915 S    
O47   C23   1.272610 A    
C115  C119  1.392580 A    
N3    O57   1.301213 A    
O28   Cr4   2.037385 S    
C3    C86   1.428280 S    
C170  C171  1.398018 A    
C6    O18   1.268869 A    
C10   C50   1.428438 S    
C150  C151  1.397853 A    
C70   C82   1.434166 S    
C1    C88   1.428284 S    
O36   Cr8   2.033717 S    
C61   C65   1.395443 A    
C124  H52   1.083937 S    
O38   Cr6   1.916242 S    
C152  H59   1.082354 S    
C122  C134  1.399148 A    
C55   H23   1.083656 S    
O8    Cr4   1.921383 S    
C63   C75   1.401100 A    
C30   C38   1.560940 S    
O1    C9    1.268540 A    
O7    C3    1.274333 A    
C162  C163  1.398461 A    
O23   Cr11  1.912646 S    
O16   C8    1.273337 A    
C31   C39   1.560914 S    
C7    O19   1.268876 A    
Cr4   O52   1.978589 S    
O2    Cr2   2.031408 S    
C56   H24   1.083665 S    
C120  H48   1.083764 S    
Cr6   O50   1.980356 S    
C125  C129  1.398115 A    
C8    C35   1.422131 S    
C117  H45   1.083775 S    
C131  C143  1.425872 S    
C114  C118  1.392559 A    
C166  H71   1.083191 S    
O9    Cr5   2.033475 S    
C114  C130  1.398618 A    
O7    Cr3   1.921342 S    
C52   C84   1.202358 T    
C156  C157  1.398273 A    
C160  H66   1.083181 S    
C118  C134  1.399563 A    
C28   C31   1.558391 S    
C95   H39   1.084058 S    
C28   H11   1.113273 S    
C93   H37   1.084021 S    
C64   H32   1.083495 S    
C98   C101  1.413657 A    
C153  C154  1.398156 A    
C110  C142  1.197301 T    
Cr2   O50   1.978589 S    
C41   H18   1.110697 S    
C118  H46   1.083704 S    
O14   Cr6   1.918788 S    
O27   Cr3   2.037333 S    
C75   C79   1.434236 S    
C116  C120  1.391913 A    
O38   C18   1.274645 A    
C63   H31   1.083456 S    
O25   Cr1   2.037333 S    
C167  C168  1.404493 A    
C140  C148  1.196862 T    
C116  C132  1.400397 A    
C14   O34   1.266288 A    
C40   C43   1.551703 S    
C100  C103  1.412405 A    
C91   C108  1.200374 T    
O10   Cr6   2.033488 S    
O4    Cr4   2.031408 S    
C74   C78   1.434218 S    
C37   C42   1.551743 S    
C9    C49   1.428436 S    
C39   C44   1.551745 S    
C66   C70   1.399177 A    
C59   H27   1.083393 S    
C29   H2    1.115190 S    
