data_mof_unit_39210.cif
_audit_creation_date              2012-12-10T17:03:42-0500
_audit_creation_method            fapswitch 2.2
_symmetry_space_group_name_H-M    P1
_symmetry_Int_Tables_number       1
_space_group_crystal_system       triclinic
_cell_length_a                    10.034415
_cell_length_b                    10.694439
_cell_length_c                    13.14391
_cell_angle_alpha                 89.343286
_cell_angle_beta                  69.756006
_cell_angle_gamma                 90.21123
_cell_volume                      1323.24382652

loop_
_atom_site_label
_atom_site_type_symbol
_atom_type_description
_atom_site_fract_x
_atom_site_fract_y
_atom_site_fract_z
_atom_type_partial_charge
C1    C     C_R   0.499570 0.737322 0.502042 0.887980
C2    C     C_R   0.437174 0.503510 0.982148 0.064283
C3    C     C_R   0.452238 0.450317 0.880871 0.018088
C4    C     C_R   0.543358 0.479226 0.028206 0.082212
C5    C     C_R   0.656408 0.396484 0.976405 0.117803
C6    C     C_R   0.657580 0.332752 0.884588 -0.258010
C7    C     C_R   0.552118 0.353700 0.840704 0.147543
C8    C     C_R   0.537843 0.530838 0.126546 -0.232040
C9    C     C_R   0.744425 0.413929 0.125341 -0.193138
C10   C     C_R   0.367240 0.496087 0.822944 -0.106194
C11   C     C_2   0.629671 0.064440 0.448582 0.472782
C12   C     C_R   0.420535 0.495675 0.704454 0.909372
C13   C     C_2   0.514867 0.134254 0.461118 -0.364348
C14   C     C_2   0.614389 0.930841 0.444213 -0.310697
C15   C     C_2   0.499571 0.869199 0.509910 0.199597
C16   C     C_2   0.106455 0.439993 0.429652 -0.097734
C17   C     C_2   0.958496 0.447035 0.425477 -0.069186
C18   C     C_R   0.505230 0.263780 0.488161 0.988080
C19   C     C_R   0.579225 0.501498 0.295822 0.837489
C20   C     C_R   0.759782 0.369318 0.022928 -0.167186
C21   C     C_R   0.628493 0.489268 0.179006 -0.053144
C22   C     C_R   0.246560 0.567102 0.875799 -0.156748
C23   C     C_R   0.218123 0.603065 0.982210 -0.124230
C24   C     C_R   0.314526 0.575920 0.033990 -0.165826
H1    H     H_    0.815852 0.381735 0.165665 0.163202
H2    H     H_    0.419839 0.092283 0.453638 0.175528
H3    H     H_    0.702213 0.880575 0.387052 0.164023
H4    H     H_    0.183016 0.383804 0.369056 0.171243
H5    H     H_    0.078616 0.557633 0.552260 0.171197
H6    H     H_    0.939732 0.403760 0.357359 0.174389
H7    H     H_    0.867772 0.533068 0.566594 0.175172
H8    H     H_    0.734643 0.259782 0.851547 0.182396
H9    H     H_    0.846108 0.306141 0.983890 0.154890
H10   H     H_    0.456921 0.596204 0.169133 0.144449
H11   H     H_    0.178647 0.600821 0.832978 0.170347
H12   H     H_    0.288163 0.611206 0.114906 0.133004
H13   H     H_    0.125123 0.658435 0.022709 0.153897
N1    N     N_2   0.148270 0.498670 0.498870 -0.188598
N2    N     N_2   0.852610 0.498640 0.498840 -0.180999
O1    O     O_R   0.386950 0.680940 0.500020 -0.587908
O2    O     O_R   0.613110 0.680900 0.499980 -0.617032
O3    O     O_R   0.330780 0.500000 0.653640 -0.604171
O4    O     O_R   0.556930 0.499960 0.653610 -0.595109
O5    O     O_R   0.386890 0.319100 0.500020 -0.603595
O6    O     O_R   0.613050 0.319060 0.499980 -0.540145
O7    O     O_R   0.443070 0.500040 0.346390 -0.620228
O8    O     O_R   0.669220 0.500000 0.346360 -0.624281
Zn1   Zn    Zn3+2 0.349000 0.500030 0.500020 0.981789
Zn2   Zn    Zn3+2 0.651000 0.499970 0.499980 0.999609
Cl1   Cl    Cl    0.361276 0.933775 0.620222 -0.579171
I1    I     I_    0.521470 0.206716 0.744269 -0.218356
Cl2   Cl    Cl    0.800452 0.122352 0.434606 -0.582290

loop_
_geom_bond_atom_site_label_1
_geom_bond_atom_site_label_2
_ccdc_geom_bond_type
H5    N1    S    
C16   H4    S    
O3    Zn1   S    
C2    C4    A    
C23   C24   A    
C18   O6    A    
C6    C7    A    
C1    C15   S    
C18   O5    A    
C14   H3    S    
C9    C20   A    
N1    Zn1   S    
O6    Zn2   S    
C4    C8    A    
C2    C3    A    
C19   O7    A    
C7    I1    S    
O8    Zn2   S    
C3    C10   A    
C8    H10   S    
C10   C22   A    
C22   H11   S    
C11   C13   D    
C9    C21   A    
C24   H12   S    
C17   H6    S    
C13   C18   S    
C20   H9    S    
C10   C12   S    
O2    Zn2   S    
C19   C21   S    
C23   H13   S    
H7    N2    S    
C8    C21   A    
C12   O4    A    
C3    C7    A    
C2    C24   A    
C5    C6    A    
C11   C14   S    
C19   O8    A    
C13   H2    S    
C16   C17   S    
C9    H1    S    
O7    Zn1   S    
O1    Zn1   S    
C6    H8    S    
C17   N2    D    
C15   Cl1   S    
C1    O2    A    
C5    C20   A    
C22   C23   A    
O4    Zn2   S    
C12   O3    A    
C11   Cl2   S    
C1    O1    A    
N2    Zn2   S    
C14   C15   D    
O5    Zn1   S    
C16   N1    D    
C4    C5    A    
