data_mof_unit_18451.cif
_audit_creation_date              2013-03-05T16:45:23-0500
_audit_creation_method            fapswitch 2.2
_symmetry_space_group_name_H-M    P1
_symmetry_Int_Tables_number       1
_space_group_crystal_system       triclinic
_cell_length_a                    8.890983
_cell_length_b                    10.653683
_cell_length_c                    9.988345
_cell_angle_alpha                 91.881135
_cell_angle_beta                  90.194264
_cell_angle_gamma                 91.282855
_cell_volume                      945.358212193

loop_
_atom_site_label
_atom_site_type_symbol
_atom_site_description
_atom_site_fract_x
_atom_site_fract_y
_atom_site_fract_z
_atom_type_partial_charge
O1    O     O_R   0.500020 0.316790 0.614690 -0.580126
O2    O     O_R   0.500000 0.316760 0.385350 -0.625501
C1    C     C_R   0.496663 0.261026 0.497636 0.863467
O3    O     O_R   0.285350 0.500020 0.614650 -0.555026
O4    O     O_R   0.285340 0.499980 0.385310 -0.610131
C2    C     C_R   0.219140 0.499721 0.499827 0.877384
Zn1   Zn    Zn3+2 0.500010 0.500020 0.653130 1.031489
Zn2   Zn    Zn3+2 0.499990 0.499980 0.346870 1.013781
O5    O     O_R   0.500000 0.683240 0.614650 -0.662508
O6    O     O_R   0.499980 0.683210 0.385310 -0.605202
O7    O     O_R   0.714660 0.500020 0.614690 -0.610478
O8    O     O_R   0.714650 0.499980 0.385350 -0.646780
C3    C     C_R   0.496379 0.739299 0.502000 0.860186
C4    C     C_R   0.780861 0.500174 0.500140 0.952631
C5    C     C_1   0.065547 0.500035 0.499700 -0.048068
C6    C     C_1   0.934498 0.500209 0.500084 -0.006567
C7    C     C_R   0.616784 0.067929 0.532497 -0.018768
C8    C     C_R   0.490947 0.128954 0.490135 -0.132511
C9    C     C_R   0.366383 0.061769 0.433259 -0.022932
C10   C     C_R   0.361232 0.929508 0.443591 -0.068421
C11   C     C_R   0.485043 0.871563 0.504619 -0.198414
C12   C     C_R   0.612475 0.941116 0.543804 0.126777
C13   C     C_3   0.703598 0.949874 0.672259 -0.202398
C14   C     C_3   0.714290 0.092376 0.652596 -0.274357
H1    H     H_    0.658249 0.150225 0.732009 0.233510
C15   C     C_R   0.410951 0.417694 0.067487 0.031336
N1    N     N_R   0.499010 0.499140 0.142800 -0.118877
C16   C     C_R   0.596711 0.575847 0.075689 0.015507
C17   C     C_R   0.601466 0.572277 0.931467 -0.012733
N2    N     N_R   0.499010 0.499180 0.857150 -0.135432
C18   C     C_R   0.411308 0.416655 0.926669 0.050376
C19   C     C_3   0.243370 0.392511 0.920630 0.377358
C20   C     C_3   0.244032 0.396111 0.074919 -0.028452
H2    H     H_    0.215853 0.306106 0.122944 0.172663
C21   C     C_2   0.244678 0.131072 0.367067 0.515189
H3    H     H_    0.210650 0.221733 0.407700 0.030008
O9    O     O_2   0.186793 0.090487 0.262930 -0.480136
N3    N     N_R   0.204233 0.268249 0.861061 0.211550
O10   O     O_R   0.112470 0.192346 0.922003 -0.303868
O11   O     O_R   0.240917 0.241340 0.737730 -0.384081
N4    N     N_R   0.160521 0.501808 0.133088 0.260539
O12   O     O_R   0.020348 0.483977 0.165578 -0.376000
O13   O     O_R   0.218144 0.615316 0.140139 -0.318074
C22   C     C_2   0.224287 0.852531 0.405280 0.554322
H4    H     H_    0.232499 0.753486 0.379840 0.097496
O14   O     O_2   0.099149 0.897201 0.407749 -0.507663
C23   C     C_2   0.614190 0.920465 0.796057 0.391146
H5    H     H_    0.504229 0.874557 0.788257 0.116068
O15   O     O_2   0.664696 0.949321 0.906936 -0.459608
C24   C     C_2   0.850299 0.881051 0.664851 0.468490
H6    H     H_    0.938295 0.903740 0.737861 0.155951
O16   O     O_2   0.870732 0.798884 0.579127 -0.572207
C25   C     C_2   0.865208 0.145717 0.612576 0.471698
H7    H     H_    0.929685 0.100956 0.532925 0.113086
O17   O     O_2   0.915148 0.241226 0.668551 -0.487319
C26   C     C_2   0.686984 0.670640 0.153254 0.636840
H8    H     H_    0.779509 0.643146 0.215413 0.120787
O18   O     O_2   0.660152 0.781987 0.145021 -0.488624
C27   C     C_2   0.718803 0.645966 0.862058 0.528863
H9    H     H_    0.701006 0.675472 0.762233 0.104485
O19   O     O_2   0.839305 0.673720 0.915388 -0.486717
N5    N     N_R   0.156047 0.492522 0.861761 0.254514
O20   O     O_R   0.017564 0.469065 0.824894 -0.284397
O21   O     O_R   0.207747 0.607863 0.861073 -0.325122

loop_
_geom_bond_atom_site_label_1
_geom_bond_atom_site_label_2
_geom_bond_distance
_ccdc_geom_bond_type
O4    Zn2   1.947964 S    
C24   O16   1.221236 D    
C13   C14   1.538074 S    
C17   N2    1.383097 A    
C7    C12   1.359125 A    
C19   N3    1.467638 S    
C26   O18   1.220586 D    
C14   C25   1.505859 S    
N4    O12   1.300307 A    
C15   C20   1.499149 S    
Zn1   O7    1.947965 S    
C18   C19   1.510100 S    
Zn2   O8    1.945577 S    
C20   N4    1.467754 S    
C19   C20   1.540290 S    
C10   C11   1.419511 A    
C7    C8    1.378723 A    
C16   C26   1.473917 S    
C19   N5    1.469311 S    
C15   C18   1.406234 A    
C23   O15   1.220987 D    
Zn1   N2    2.038184 S    
C9    C21   1.488652 S    
C25   H7    1.086001 S    
C26   H8    1.080403 S    
N3    O11   1.299919 A    
N4    O13   1.302393 A    
C15   N1    1.361800 A    
N5    O20   1.300429 A    
O3    Zn1   1.945577 S    
O1    Zn1   1.977072 S    
O4    C2    1.288216 A    
Zn2   O6    1.977072 S    
C16   C17   1.440588 A    
C10   C22   1.494322 S    
O8    C4    1.286998 A    
C20   H2    1.110224 S    
O2    C1    1.286271 A    
C25   O17   1.218942 D    
N2    C18   1.369755 A    
O7    C4    1.288488 A    
C4    C6    1.365976 S    
C27   O19   1.220912 D    
C7    C14   1.490216 S    
C13   C23   1.509980 S    
C3    C11   1.414343 S    
C5    C6    1.165222 T    
C23   H5    1.084744 S    
C17   C27   1.479622 S    
C27   H9    1.067602 S    
N3    O10   1.302378 A    
C14   H1    1.114272 S    
C21   O9    1.220912 D    
C1    C8    1.406360 S    
O3    C2    1.287245 A    
C8    C9    1.412496 A    
N1    C16   1.371079 A    
Zn1   O5    2.001790 S    
Zn2   N1    2.038036 S    
O5    C3    1.291706 A    
C12   C13   1.514271 S    
C13   C24   1.511376 S    
N5    O21   1.302534 A    
C24   H6    1.085545 S    
C2    C5    1.365667 S    
C11   C12   1.387914 A    
O6    C3    1.293044 A    
O2    Zn2   2.001792 S    
C22   H4    1.081340 S    
C9    C10   1.415948 A    
C22   O14   1.219869 D    
O1    C1    1.293894 A    
C21   H3    1.085055 S    
