data_mof_unit_43435.cif
_audit_creation_date              2012-10-26T20:16:40-0400
_audit_creation_method            fapswitch 2.2
_symmetry_space_group_name_H-M    P1
_symmetry_Int_Tables_number       1
_space_group_crystal_system       triclinic
_cell_length_a                    10.910959
_cell_length_b                    10.905698
_cell_length_c                    9.811457
_cell_angle_alpha                 98.840791
_cell_angle_beta                  98.661428
_cell_angle_gamma                 92.925298
_cell_volume                      1137.16134249

loop_
_atom_site_label
_atom_site_type_symbol
_atom_type_description
_atom_site_fract_x
_atom_site_fract_y
_atom_site_fract_z
_atom_type_partial_charge
C1    C     C_R   0.500576 0.261964 0.499201 0.541063
C2    C     C_R   0.676389 0.951332 0.847589 -0.089156
C3    C     C_R   0.444046 0.075728 0.228836 0.052006
C4    C     C_R   0.555955 0.924271 0.771162 0.052007
C5    C     C_R   0.536950 0.131059 0.167985 -0.026701
C6    C     C_R   0.463048 0.868944 0.832010 -0.026704
C7    C     C_R   0.508038 0.163644 0.035115 -0.095857
C8    C     C_R   0.491956 0.836358 0.964879 -0.095852
C9    C     C_R   0.387400 0.138158 0.960642 -0.139538
C10   C     C_R   0.612594 0.861838 0.039352 -0.139538
C11   C     C_R   0.471197 0.914669 0.376248 -0.162310
C12   C     C_R   0.499424 0.738036 0.500798 0.541063
C13   C     C_R   0.528804 0.085331 0.623752 -0.162309
C14   C     C_R   0.498366 0.872277 0.503918 -0.008349
C15   C     C_R   0.501637 0.127723 0.496082 -0.008348
C16   C     C_R   0.262018 0.501294 0.499356 0.539953
C17   C     C_R   0.737982 0.498705 0.500644 0.539953
C18   C     C_R   0.526572 0.959109 0.630190 -0.035369
C19   C     C_R   0.473431 0.040891 0.369810 -0.035368
C20   C     C_2   0.510433 0.510562 0.078981 0.050761
C21   C     C_2   0.489567 0.489438 0.921019 0.050761
C22   C     C_R   0.168617 0.522844 0.041561 0.376034
C23   C     C_R   0.872219 0.497241 0.503674 -0.014608
C24   C     C_R   0.831381 0.477150 0.958438 0.376035
C25   C     C_R   0.132428 0.547283 0.173201 -0.010967
C26   C     C_R   0.867571 0.452713 0.826797 -0.010968
C27   C     C_R   0.077326 0.450938 0.229034 0.009781
C28   C     C_R   0.922673 0.549057 0.770966 0.009782
C29   C     C_R   0.054096 0.331460 0.149007 -0.068801
C30   C     C_R   0.945903 0.668536 0.850993 -0.068800
C31   C     C_R   0.087754 0.308204 0.016070 -0.160260
C32   C     C_R   0.912244 0.691791 0.983930 -0.160263
C33   C     C_R   0.146473 0.403197 0.963126 -0.111826
C34   C     C_R   0.127780 0.502757 0.496326 -0.014608
C35   C     C_R   0.853524 0.596797 0.036873 -0.111826
C36   C     C_R   0.915182 0.471540 0.376094 -0.162443
C37   C     C_R   0.084817 0.528456 0.623906 -0.162443
C38   C     C_R   0.958560 0.524487 0.630088 -0.034120
C39   C     C_R   0.041440 0.475509 0.369912 -0.034120
C40   C     C_R   0.295880 0.079030 0.018460 -0.116474
C41   C     C_R   0.704117 0.920962 0.981537 -0.116476
C42   C     C_R   0.323611 0.048662 0.152409 -0.089159
Cu1   Cu    Cu3+1 0.521120 0.521140 0.639640 0.961840
Cu2   Cu    Cu3+1 0.478880 0.478860 0.360360 0.961839
F1    F     F_    0.225090 0.615304 0.990187 -0.691175
F2    F     F_    0.774908 0.384690 0.009810 -0.691175
H1    H     H_    0.173955 0.383956 0.861019 0.107629
H2    H     H_    0.580978 0.581682 0.134995 0.134725
H3    H     H_    0.619196 0.619693 0.904912 0.215444
H4    H     H_    0.380805 0.380306 0.095088 0.215444
H5    H     H_    0.149221 0.640388 0.232904 0.118338
H6    H     H_    0.850778 0.359608 0.767094 0.118337
H7    H     H_    0.009671 0.256732 0.189410 0.123446
H8    H     H_    0.990328 0.743263 0.810591 0.123446
H9    H     H_    0.067478 0.216754 0.953607 0.107843
H10   H     H_    0.932519 0.783241 0.046394 0.107841
H11   H     H_    0.849901 0.449239 0.279542 0.191570
H12   H     H_    0.826042 0.616038 0.138979 0.107629
H13   H     H_    0.150098 0.550757 0.720458 0.191572
H14   H     H_    0.365260 0.162581 0.857413 0.101099
H15   H     H_    0.634732 0.837413 0.142580 0.101100
H16   H     H_    0.203642 0.055749 0.959060 0.099825
H17   H     H_    0.796354 0.944237 0.040936 0.099825
H18   H     H_    0.251591 0.003536 0.196338 0.106035
H19   H     H_    0.748411 0.996455 0.803662 0.106036
H20   H     H_    0.631018 0.150104 0.224206 0.118315
H21   H     H_    0.368981 0.849903 0.775789 0.118311
H22   H     H_    0.579297 0.207874 0.989520 0.168825
H23   H     H_    0.420696 0.792130 0.010472 0.168824
H24   H     H_    0.448733 0.848987 0.279611 0.140044
H25   H     H_    0.551266 0.151013 0.720389 0.140044
H26   H     H_    0.419022 0.418318 0.865005 0.134726
N1    N     N_2   0.447120 0.447110 0.150550 -0.339152
N2    N     N_2   0.552880 0.552890 0.849450 -0.339152
O1    O     O_R   0.517830 0.337490 0.617920 -0.510429
O2    O     O_R   0.482170 0.662510 0.382080 -0.510428
O3    O     O_R   0.482150 0.301790 0.382070 -0.489297
O4    O     O_R   0.517850 0.698210 0.617930 -0.489296
O5    O     O_R   0.337480 0.517860 0.617920 -0.503885
O6    O     O_R   0.662520 0.482140 0.382080 -0.503886
O7    O     O_R   0.301810 0.482160 0.382070 -0.493858
O8    O     O_R   0.698190 0.517840 0.617930 -0.493858

loop_
_geom_bond_atom_site_label_1
_geom_bond_atom_site_label_2
_ccdc_geom_bond_type
C3    C42   A    
C27   C29   A    
C34   C37   A    
C1    O3    A    
C14   C18   A    
C2    H19   S    
C11   H24   S    
Cu1   O4    S    
C15   C19   A    
C30   H8    S    
C11   C19   A    
C8    H23   S    
C17   C23   S    
C13   C18   A    
C35   H12   S    
Cu2   O3    S    
C24   C26   A    
C11   C14   A    
C2    C41   A    
Cu1   O5    S    
C40   H16   S    
C17   O8    A    
Cu2   O2    S    
C16   C34   S    
C7    H22   S    
C27   C39   S    
C22   C25   A    
C12   O4    A    
C31   C33   A    
C3    C19   S    
C1    C15   S    
C4    C18   S    
Cu1   N2    S    
C40   C42   A    
C10   C41   A    
Cu1   O1    S    
C24   C35   A    
C21   H26   S    
C34   C39   A    
C1    O1    A    
C32   C35   A    
Cu2   O6    S    
C4    C6    A    
Cu2   O7    S    
H4    N1    S    
C5    C7    A    
C6    C8    A    
C13   H25   S    
C21   N2    D    
C9    C40   A    
C2    C4    A    
Cu1   Cu2   S    
C25   H5    S    
C37   C38   A    
C26   H6    S    
C28   C38   S    
C20   H2    S    
C37   H13   S    
C6    H21   S    
C12   C14   S    
C36   H11   S    
C13   C15   A    
C12   O2    A    
C33   H1    S    
C10   H15   S    
C41   H17   S    
C42   H18   S    
C7    C9    A    
C22   C33   A    
C36   C39   A    
C5    H20   S    
C3    C5    A    
C25   C27   A    
C23   C38   A    
C26   C28   A    
C9    H14   S    
C24   F2    S    
C16   O5    A    
C28   C30   A    
C29   C31   A    
C30   C32   A    
C29   H7    S    
C16   O7    A    
C20   N1    D    
C17   O6    A    
Cu2   N1    S    
C22   F1    S    
C20   C21   S    
C8    C10   A    
C23   C36   A    
Cu1   O8    S    
H3    N2    S    
C31   H9    S    
C32   H10   S    
