data_mof_unit_42291.cif
_audit_creation_date              2012-12-11T17:02:13-0500
_audit_creation_method            fapswitch 2.2
_symmetry_space_group_name_H-M    P1
_symmetry_Int_Tables_number       1
_space_group_crystal_system       triclinic
_cell_length_a                    21.671224
_cell_length_b                    7.0672
_cell_length_c                    14.91498
_cell_angle_alpha                 90.060446
_cell_angle_beta                  107.06548
_cell_angle_gamma                 89.961148
_cell_volume                      2183.72268997

loop_
_atom_site_label
_atom_site_type_symbol
_atom_type_description
_atom_site_fract_x
_atom_site_fract_y
_atom_site_fract_z
_atom_type_partial_charge
O1    O     O_R   0.585850 0.505770 0.002130 -0.561505
O2    O     O_R   0.414150 0.005770 0.997870 -0.563172
O3    O     O_R   0.467530 0.173560 0.861970 -0.550651
O4    O     O_R   0.532470 0.673560 0.138030 -0.547970
C1    C     C_R   0.455804 0.344683 0.825173 0.762410
C2    C     C_R   0.545028 0.844542 0.175046 0.751885
O5    O     O_R   0.588690 0.175900 0.993250 -0.533581
O6    O     O_R   0.411310 0.675900 0.006750 -0.530086
O7    O     O_R   0.536170 0.007950 0.130090 -0.520098
O8    O     O_R   0.463830 0.507950 0.869910 -0.520695
C3    C     C_R   0.614900 0.345290 0.996970 0.727999
C4    C     C_R   0.385157 0.845392 0.003139 0.728078
O9    O     O_3   0.482630 0.339970 0.044740 -0.387802
O10   O     O_3   0.517370 0.839970 0.955260 -0.389715
V1    V     V_3+5 0.503220 0.064200 0.991700 1.462309
V2    V     V_3+5 0.496780 0.564200 0.008300 1.469149
C5    C     C_R   0.277087 0.009428 0.962862 0.021358
C6    C     C_R   0.723215 0.508394 0.038263 0.008402
C7    C     C_R   0.316737 0.856282 0.003102 -0.190811
C8    C     C_R   0.683358 0.356154 0.996927 -0.169758
C9    C     C_R   0.289266 0.711713 0.043225 -0.052981
C10   C     C_R   0.710377 0.214016 0.954333 -0.062854
H1    H     H_    0.319384 0.596721 0.078736 0.184096
H2    H     H_    0.680014 0.100532 0.917574 0.175691
C11   C     C_R   0.225239 0.722623 0.047228 0.428322
C12   C     C_R   0.774164 0.226388 0.949247 0.415846
C13   C     C_R   0.184719 0.876211 0.003530 -0.221728
C14   C     C_R   0.814970 0.377985 0.994696 -0.200030
C15   C     C_R   0.212000 0.016300 0.960662 0.020499
C16   C     C_R   0.787984 0.516816 0.038892 0.020943
C17   C     C_3   0.214249 0.222504 0.981782 0.292103
C18   C     C_3   0.784814 0.723667 0.018368 0.281452
C19   C     C_3   0.285579 0.215197 0.989022 0.523328
C20   C     C_3   0.714115 0.715248 0.014852 0.536639
H3    H     H_    0.203900 0.252094 0.049085 0.108674
H4    H     H_    0.793173 0.755119 0.949883 0.140064
C21   C     C_R   0.928436 0.879096 0.722508 -0.211587
C22   C     C_R   0.070421 0.383398 0.277259 -0.209996
C23   C     C_R   0.571394 0.850535 0.278106 -0.208908
C24   C     C_R   0.426894 0.354339 0.723178 -0.213361
C25   C     C_R   0.943647 0.829473 0.569365 0.479189
C26   C     C_R   0.054806 0.349704 0.431071 0.481639
C27   C     C_R   0.969294 0.844840 0.667378 0.359684
C28   C     C_R   0.029280 0.359266 0.332900 0.362406
C29   C     C_R   0.862032 0.885365 0.681226 -0.167982
C30   C     C_R   0.136480 0.401593 0.318435 -0.169180
C31   C     C_R   0.833985 0.833668 0.586701 0.008461
C32   C     C_R   0.163936 0.399135 0.416458 0.016967
C33   C     C_R   0.874973 0.816686 0.527369 -0.217897
C34   C     C_R   0.123369 0.353612 0.473618 -0.211449
C35   C     C_R   0.765702 0.808348 0.549538 -0.008224
C36   C     C_R   0.231832 0.423789 0.457537 0.006243
C37   C     C_R   0.737318 0.810241 0.450711 -0.152426
C38   C     C_R   0.260733 0.365059 0.551590 -0.145073
C39   C     C_R   0.777927 0.769108 0.393769 0.327345
C40   C     C_R   0.220972 0.281678 0.601343 0.328043
C41   C     C_R   0.845301 0.779785 0.430371 0.475791
C42   C     C_R   0.153668 0.296969 0.567751 0.475396
C43   C     C_R   0.724753 0.766572 0.606279 0.379586
C44   C     C_R   0.272801 0.501845 0.407988 0.379807
C45   C     C_R   0.658014 0.763052 0.567045 -0.095526
C46   C     C_R   0.339143 0.470734 0.439853 -0.097720
C47   C     C_R   0.629136 0.797906 0.471560 -0.073967
C48   C     C_R   0.367924 0.404373 0.530766 -0.067149
C49   C     C_R   0.668641 0.832174 0.412691 -0.079588
C50   C     C_R   0.329137 0.383230 0.591327 -0.081924
C51   C     C_R   0.561241 0.790482 0.434256 0.391576
C52   C     C_R   0.435172 0.374280 0.563822 0.398077
C53   C     C_R   0.532395 0.805501 0.336394 0.219868
C54   C     C_R   0.464672 0.338836 0.660342 0.210802
C55   C     C_R   0.637631 0.885578 0.317849 0.276976
C56   C     C_R   0.360391 0.389895 0.689130 0.282639
H5    H     H_    0.628631 0.726426 0.612057 0.215676
H6    H     H_    0.368778 0.516836 0.396751 0.211115
H7    H     H_    0.832650 0.930741 0.724487 0.188919
H8    H     H_    0.166368 0.404946 0.271919 0.181596
O11   O     O_R   0.036080 0.231270 0.130120 -0.539517
O12   O     O_R   0.963920 0.731270 0.869880 -0.531528
O13   O     O_R   0.911300 0.558970 0.006750 -0.534903
O14   O     O_R   0.088700 0.058970 0.993250 -0.538965
C57   C     C_R   0.884193 0.390158 0.998171 0.747016
C58   C     C_R   0.115691 0.889779 0.001107 0.740027
O15   O     O_R   0.032450 0.561140 0.138040 -0.532224
O16   O     O_R   0.967550 0.061140 0.861960 -0.538529
O17   O     O_R   0.085870 0.728910 0.002130 -0.531201
O18   O     O_R   0.914130 0.228910 0.997870 -0.530534
C59   C     C_R   0.045079 0.392430 0.175042 0.780770
C60   C     C_R   0.954099 0.892246 0.824904 0.791472
O19   O     O_3   0.017320 0.394650 0.955270 -0.364641
O20   O     O_3   0.982680 0.894650 0.044730 -0.362530
V3    V     V_3+5 0.996780 0.670490 0.008300 1.640223
V4    V     V_3+5 0.003220 0.170490 0.991700 1.621527
Cl1   Cl    Cl    0.001030 0.836537 0.505873 -0.404766
Cl2   Cl    Cl    0.997672 0.344388 0.495024 -0.414035
Cl3   Cl    Cl    0.053292 0.820524 0.722447 -0.428920
Cl4   Cl    Cl    0.945518 0.329208 0.277973 -0.430868
O21   O     O_3   0.753669 0.697294 0.304024 -0.556622
H9    H     H_    0.715183 0.619469 0.301624 0.310164
O22   O     O_3   0.246051 0.171804 0.680287 -0.561356
H10   H     H_    0.284469 0.104331 0.673234 0.310897
Cl5   Cl    Cl    0.752341 0.668951 0.720434 -0.664869
Cl6   Cl    Cl    0.247141 0.674497 0.319475 -0.663520
O23   O     O_3   0.524565 0.762482 0.495113 -0.627459
H11   H     H_    0.478056 0.773631 0.461094 0.355719
O24   O     O_3   0.470225 0.376975 0.499728 -0.622957
H12   H     H_    0.516588 0.356249 0.532036 0.357837
O25   O     O_3   0.206226 0.587252 0.100022 -0.625586
H13   H     H_    0.174433 0.643830 0.127979 0.310595
O26   O     O_3   0.792578 0.095594 0.893380 -0.627957
H14   H     H_    0.823961 0.155704 0.865688 0.284873
Cl7   Cl    Cl    0.164963 0.353543 0.884317 -0.419630
Cl8   Cl    Cl    0.835657 0.855691 0.114051 -0.414038
O27   O     O_3   0.324279 0.245669 0.081716 -0.659311
H15   H     H_    0.369520 0.258006 0.080561 0.303299
O28   O     O_3   0.673446 0.749091 0.923702 -0.646581
H16   H     H_    0.629769 0.776887 0.928520 0.307956
O29   O     O_3   0.302300 0.329157 0.922579 -0.575058
H17   H     H_    0.345188 0.285720 0.919849 0.317621
O30   O     O_3   0.699302 0.825439 0.084450 -0.573335
H18   H     H_    0.658409 0.775424 0.092079 0.308171
Cl9   Cl    Cl    0.888136 0.730576 0.348921 -0.332469
Cl10  Cl    Cl    0.111788 0.210114 0.644398 -0.333583
O31   O     O_3   0.669901 0.975586 0.262748 -0.597072
H19   H     H_    0.706778 0.046035 0.304487 0.334863
O32   O     O_3   0.328493 0.444327 0.752729 -0.597249
H20   H     H_    0.291265 0.524879 0.719966 0.343006
O33   O     O_3   0.466446 0.776987 0.301016 -0.628619
H21   H     H_    0.451020 0.814434 0.234266 0.285279
O34   O     O_3   0.530304 0.301718 0.690544 -0.630042
H22   H     H_    0.544488 0.274051 0.758507 0.287503

loop_
_geom_bond_atom_site_label_1
_geom_bond_atom_site_label_2
_ccdc_geom_bond_type
O15   C59   A    
C47   C49   A    
O11   V4    S    
C19   O29   S    
C13   C15   A    
C5    C15   A    
C21   C60   S    
O1    C3    A    
O2    C4    A    
C2    O7    A    
C30   H8    S    
O21   H9    S    
O17   V3    S    
C51   O23   S    
O31   H19   S    
C31   C33   A    
C32   C34   A    
O5    C3    A    
C24   C54   A    
C18   H4    S    
C55   O31   S    
C7    C9    A    
O34   H22   S    
O28   H16   S    
C33   C41   A    
C6    C8    A    
C44   C46   A    
C45   C47   A    
C46   C48   A    
C36   C44   A    
C50   C56   A    
O14   V4    S    
C27   Cl3   S    
O25   H13   S    
C17   C19   S    
C6    C16   A    
O19   V3    S    
C37   C49   A    
O13   V3    S    
C57   O18   A    
C29   C31   A    
O6    V2    S    
C25   C27   A    
C5    C19   S    
C44   Cl6   S    
C25   C33   A    
C36   C38   A    
C38   C40   A    
C37   C39   A    
C47   C51   A    
C3    C8    S    
C42   Cl10  S    
C43   C45   A    
C43   Cl5   S    
O14   C58   A    
O13   C57   A    
C31   C35   A    
C45   H5    S    
C20   O28   S    
C49   C55   A    
C54   O34   S    
C18   Cl8   S    
C51   C53   A    
C48   C50   A    
O4    V2    S    
C22   C28   A    
C28   Cl4   S    
O20   V4    S    
O22   H10   S    
O10   V1    S    
C32   C36   A    
O6    C4    A    
C39   O21   S    
C23   C53   A    
C34   C42   A    
O1    V2    S    
O19   V4    S    
O2    V1    S    
C6    C20   S    
C12   O26   S    
O11   C59   A    
C26   C34   A    
O4    C2    A    
C8    C10   A    
C39   C41   A    
O32   H20   S    
C17   H3    S    
C21   C27   A    
C1    C24   S    
C35   C43   A    
C52   O24   S    
C21   C29   A    
O33   H21   S    
C48   C52   A    
O3    V1    S    
C11   O25   S    
O27   H15   S    
O12   C60   A    
C20   O30   S    
C9    C11   A    
C23   C55   A    
C24   C56   A    
C14   C57   S    
C26   Cl2   S    
C19   O27   S    
C13   C58   S    
O16   C60   A    
O3    C1    A    
O30   H18   S    
C38   C50   A    
O12   V3    S    
C11   C13   A    
C58   O17   A    
O15   V3    S    
O24   H12   S    
C56   O32   S    
C12   C14   A    
C22   C59   S    
C29   H7    S    
C25   Cl1   S    
C9    H1    S    
O7    V1    S    
C26   C28   A    
C14   C16   A    
C15   C17   S    
O8    V2    S    
O29   H17   S    
C16   C18   S    
O20   V3    S    
C4    C7    S    
O5    V1    S    
C5    C7    A    
C40   C42   A    
C10   H2    S    
C22   C30   A    
C41   Cl9   S    
C30   C32   A    
C1    O8    A    
C53   O33   S    
C52   C54   A    
C10   C12   A    
O9    V2    S    
O23   H11   S    
C17   Cl7   S    
C2    C23   S    
C46   H6    S    
O18   V4    S    
O16   V4    S    
C40   O22   S    
C35   C37   A    
O26   H14   S    
C18   C20   S    
