data_mof_unit_12113.cif
_audit_creation_date              2012-12-10T20:28:46-0500
_audit_creation_method            fapswitch 2.2
_symmetry_space_group_name_H-M    P1
_symmetry_Int_Tables_number       1
_space_group_crystal_system       triclinic
_cell_length_a                    10.632408
_cell_length_b                    10.679856
_cell_length_c                    9.868065
_cell_angle_alpha                 89.724558
_cell_angle_beta                  90.18993
_cell_angle_gamma                 89.825075
_cell_volume                      1120.51992142

loop_
_atom_site_label
_atom_site_type_symbol
_atom_type_description
_atom_site_fract_x
_atom_site_fract_y
_atom_site_fract_z
_atom_type_partial_charge
C1    C     C_R   0.504784 0.259910 0.500419 0.852031
C2    C     C_R   0.544032 0.935849 0.377689 -0.230628
C3    C     C_R   0.522842 0.871322 0.499484 -0.102720
C4    C     C_R   0.260500 0.498067 0.499749 0.872429
C5    C     C_R   0.527829 0.934946 0.621873 0.088568
C6    C     C_3   0.444706 0.927429 0.743468 -0.472203
C7    C     C_3   0.452795 0.069698 0.748469 -0.019353
C8    C     C_R   0.429964 0.414697 0.071435 0.215487
C9    C     C_R   0.577633 0.576602 0.071842 -0.126861
C10   C     C_R   0.577703 0.576546 0.927840 -0.129141
C11   C     C_R   0.429587 0.415154 0.929120 0.202271
C12   C     C_R   0.067218 0.385907 0.557879 0.104995
C13   C     C_3   0.290489 0.399647 0.922894 -0.493896
C14   C     C_3   0.290698 0.399509 0.076825 -0.499884
C15   C     C_R   0.503170 0.740043 0.499659 0.882027
C16   C     C_R   0.739550 0.496210 0.500216 0.862226
C17   C     C_R   0.133881 0.282147 0.611382 -0.260530
C18   C     C_R   0.070153 0.180806 0.667477 -0.164304
C19   C     C_R   0.938953 0.179817 0.670242 0.282894
C20   C     C_R   0.871662 0.281627 0.615897 -0.187192
C21   C     C_R   0.935471 0.385560 0.559434 0.043595
C22   C     C_3   0.526082 0.117946 0.871506 -0.874322
C23   C     C_R   0.128405 0.489408 0.498860 -0.085302
C24   C     C_3   0.872329 0.069046 0.729775 -0.951473
C25   C     C_R   0.063445 0.587289 0.436882 -0.225526
C26   C     C_R   0.934898 0.586797 0.437508 -0.206621
C27   C     C_R   0.871921 0.488558 0.500354 -0.078280
C28   C     C_R   0.532345 0.062558 0.623463 0.112269
C29   C     C_R   0.526622 0.128548 0.501225 -0.133076
C30   C     C_R   0.545544 0.065309 0.378487 -0.206638
H1    H     H_    0.112601 0.665231 0.390431 0.147503
H2    H     H_    0.235365 0.277481 0.608651 0.150384
H3    H     H_    0.123235 0.102266 0.707895 0.135649
H4    H     H_    0.770030 0.277938 0.616432 0.146780
H5    H     H_    0.884151 0.664332 0.391263 0.145318
H6    H     H_    0.552077 0.114760 0.282652 0.173184
H7    H     H_    0.550333 0.887666 0.281572 0.167917
H8    H     H_    0.348823 0.893152 0.718140 0.176294
H9    H     H_    0.607207 0.056260 0.896953 0.241169
H10   H     H_    0.563119 0.212854 0.850236 0.258837
H11   H     H_    0.462723 0.122263 0.960571 0.235202
H12   H     H_    0.490951 0.877404 0.829379 0.210289
H13   H     H_    0.900585 0.056706 0.837442 0.242395
H14   H     H_    0.769091 0.081442 0.725476 0.251055
H15   H     H_    0.897349 0.983312 0.672504 0.244984
H16   H     H_    0.361430 0.118005 0.731177 0.154321
H17   H     H_    0.638344 0.640351 0.126059 0.143169
H18   H     H_    0.638465 0.640242 0.873391 0.148759
H19   H     H_    0.241675 0.482233 0.877937 0.226377
H20   H     H_    0.263370 0.307876 0.879207 0.203750
H21   H     H_    0.242226 0.482245 0.120729 0.224590
H22   H     H_    0.263248 0.307884 0.121517 0.202010
N1    N     N_R   0.499160 0.499140 0.142800 -0.106627
N2    N     N_R   0.499160 0.499180 0.857150 -0.107592
O1    O     O_R   0.500020 0.316790 0.614690 -0.629799
O2    O     O_R   0.500000 0.316760 0.385350 -0.616642
O3    O     O_R   0.316770 0.500020 0.614690 -0.621026
O4    O     O_R   0.316760 0.499980 0.385350 -0.616198
O5    O     O_R   0.500000 0.683240 0.614650 -0.614921
O6    O     O_R   0.499980 0.683210 0.385310 -0.627364
O7    O     O_R   0.683240 0.500020 0.614650 -0.622149
O8    O     O_R   0.683230 0.499980 0.385310 -0.615231
Zn1   Zn    Zn3+2 0.500010 0.500020 0.653130 0.934762
Zn2   Zn    Zn3+2 0.499990 0.499980 0.346870 0.942010

loop_
_geom_bond_atom_site_label_1
_geom_bond_atom_site_label_2
_ccdc_geom_bond_type
C8    N1    A    
C4    O3    A    
O8    Zn2   S    
C6    H8    S    
O3    Zn1   S    
C6    C7    S    
C7    C22   S    
C15   O6    A    
O5    Zn1   S    
C14   H21   S    
C2    H7    S    
C30   H6    S    
C2    C30   A    
C20   H4    S    
C16   C27   S    
C1    C29   S    
C2    C3    A    
C21   C27   A    
C22   H10   S    
C13   C14   S    
C12   C17   A    
C10   H18   S    
C11   C13   S    
C12   C23   A    
C26   C27   A    
C29   C30   A    
C11   N2    A    
C16   O8    A    
C24   H13   S    
C19   C24   S    
C8    C11   A    
C10   N2    A    
C24   H15   S    
C12   C21   A    
C9    C10   A    
C28   C29   A    
N1    Zn2   S    
C1    O2    A    
O6    Zn2   S    
C9    H17   S    
C23   C25   A    
C1    O1    A    
C5    C6    S    
C24   H14   S    
C18   H3    S    
C13   H19   S    
C22   H11   S    
C9    N1    A    
C16   O7    A    
C22   H9    S    
C13   H20   S    
C5    C28   A    
C7    H16   S    
C26   H5    S    
O2    Zn2   S    
C3    C15   S    
C20   C21   A    
C17   C18   A    
C18   C19   A    
C6    H12   S    
C4    O4    A    
O7    Zn1   S    
C17   H2    S    
N2    Zn1   S    
C8    C14   S    
O4    Zn2   S    
C25   C26   A    
C15   O5    A    
C25   H1    S    
C4    C23   S    
C14   H22   S    
C7    C28   S    
C19   C20   A    
C3    C5    A    
O1    Zn1   S    
