data_mof_unit_15999.cif
_audit_creation_date              2012-12-11T14:52:46-0500
_audit_creation_method            fapswitch 2.2
_symmetry_space_group_name_H-M    P1
_symmetry_Int_Tables_number       1
_space_group_crystal_system       triclinic
_cell_length_a                    18.846653
_cell_length_b                    10.918048
_cell_length_c                    18.791607
_cell_angle_alpha                 89.712023
_cell_angle_beta                  91.005635
_cell_angle_gamma                 89.924134
_cell_volume                      3866.07556424

loop_
_atom_site_label
_atom_site_type_symbol
_atom_type_description
_atom_site_fract_x
_atom_site_fract_y
_atom_site_fract_z
_atom_type_partial_charge
C1    C     C_R   0.271819 0.043116 0.853331 0.534150
C2    C     C_R   0.696065 0.534763 0.036100 -0.156772
C3    C     C_3   0.997157 0.330125 0.073009 0.048322
C4    C     C_3   0.495369 0.075995 0.046931 -0.387891
C5    C     C_3   0.586311 0.934813 0.922278 -0.376260
C6    C     C_3   0.995306 0.576027 0.046949 -0.387929
C7    C     C_3   0.086278 0.434929 0.922304 -0.376472
C8    C     C_R   0.803065 0.032650 0.964067 -0.149598
C9    C     C_R   0.196005 0.034905 0.036073 -0.156919
C10   C     C_R   0.298942 0.517488 0.037518 -0.144788
C11   C     C_R   0.699634 0.521678 0.962422 -0.146250
C12   C     C_R   0.798987 0.017586 0.037536 -0.144753
C13   C     C_R   0.199577 0.021845 0.962394 -0.146007
C14   C     C_R   0.247962 0.582916 0.075851 0.022351
C15   C     C_R   0.752834 0.582505 0.924497 0.022763
C16   C     C_R   0.747964 0.082937 0.075854 0.022367
C17   C     C_R   0.728217 0.043255 0.146718 0.543614
C18   C     C_R   0.252845 0.082534 0.924495 0.023382
C19   C     C_R   0.204748 0.668991 0.041092 -0.149242
C20   C     C_R   0.799232 0.662049 0.960134 -0.147912
C21   C     C_R   0.704703 0.168920 0.041076 -0.149305
C22   C     C_R   0.299311 0.161926 0.960162 -0.147797
C23   C     C_R   0.207345 0.681243 0.968384 -0.143248
C24   C     C_R   0.797263 0.671697 0.032966 -0.139720
C25   C     C_R   0.707281 0.181115 0.968365 -0.143370
C26   C     C_R   0.297345 0.171523 0.032995 -0.140025
C27   C     C_R   0.255600 0.612036 0.928926 0.025021
C28   C     C_R   0.771820 0.543105 0.853333 0.536873
C29   C     C_R   0.745942 0.608238 0.071919 0.027804
C30   C     C_R   0.755589 0.111995 0.928921 0.024987
C31   C     C_R   0.245948 0.108209 0.071922 0.027011
C32   C     C_R   0.520207 0.726018 0.543240 -0.134051
C33   C     C_R   0.525563 0.722291 0.470557 -0.125233
C34   C     C_R   0.021165 0.225075 0.543793 -0.130226
C35   C     C_R   0.026929 0.221795 0.471079 -0.123361
C36   C     C_R   0.514075 0.828276 0.429286 0.035990
C37   C     C_R   0.498983 0.834000 0.576237 0.029736
C38   C     C_R   0.016137 0.328324 0.430083 0.035981
C39   C     C_R   0.228214 0.543245 0.146715 0.544038
C40   C     C_R   0.001004 0.333537 0.577069 0.030439
C41   C     C_R   0.497828 0.939232 0.462399 -0.133512
C42   C     C_R   0.489466 0.941866 0.535883 -0.129559
C43   C     C_R   0.001971 0.439786 0.463672 -0.135135
C44   C     C_R   0.994127 0.442294 0.537218 -0.132104
C45   C     C_R   0.438098 0.816690 0.862105 0.563118
C46   C     C_R   0.528132 0.822094 0.145160 0.546832
C47   C     C_R   0.938096 0.316692 0.862106 0.562981
C48   C     C_R   0.028123 0.322097 0.145165 0.546825
C49   C     C_R   0.207479 0.685706 0.525933 -0.124635
C50   C     C_3   0.468565 0.709383 0.985712 -0.123787
C51   C     C_R   0.816635 0.606566 0.458427 -0.136000
C52   C     C_R   0.712879 0.194422 0.524739 -0.121955
C53   C     C_R   0.292486 0.185603 0.473750 -0.127040
C54   C     C_R   0.207564 0.678573 0.453382 -0.134376
C55   C     C_R   0.819727 0.606873 0.530968 -0.128595
C56   C     C_R   0.712422 0.183738 0.452226 -0.134171
C57   C     C_R   0.292136 0.179294 0.546311 -0.137365
C58   C     C_R   0.251939 0.594112 0.421002 0.034178
C59   C     C_R   0.760917 0.568916 0.570142 0.040967
C60   C     C_R   0.752295 0.091318 0.421423 0.031974
C61   C     C_3   0.427236 0.773995 0.045383 -0.146146
C62   C     C_R   0.247669 0.095356 0.579197 0.034879
C63   C     C_R   0.303961 0.530523 0.460841 -0.131897
C64   C     C_R   0.698684 0.530277 0.535512 -0.146140
C65   C     C_R   0.800022 0.020269 0.462612 -0.129057
C66   C     C_R   0.195556 0.032027 0.539796 -0.137969
C67   C     C_R   0.305532 0.540815 0.534179 -0.136683
C68   C     C_R   0.694549 0.535188 0.462028 -0.141297
C69   C     C_R   0.801700 0.033030 0.535694 -0.136808
C70   C     C_R   0.194293 0.041439 0.466409 -0.144892
C71   C     C_R   0.255355 0.615056 0.566971 0.039995
C72   C     C_3   0.968577 0.209396 0.985715 -0.123754
C73   C     C_R   0.752542 0.579662 0.423904 0.035063
C74   C     C_R   0.755882 0.116717 0.566940 0.039117
C75   C     C_R   0.244600 0.115015 0.433178 0.041525
C76   C     C_R   0.262039 0.641280 0.853730 0.540266
C77   C     C_R   0.738362 0.640313 0.146656 0.545037
C78   C     C_R   0.762036 0.141266 0.853727 0.540535
C79   C     C_R   0.238363 0.140307 0.146658 0.547769
C80   C     C_R   0.269951 0.048948 0.647551 0.550957
C81   C     C_R   0.729850 0.047730 0.352830 0.550064
C82   C     C_R   0.772722 0.543112 0.644332 0.549981
C83   C     C_3   0.927233 0.273973 0.045388 -0.146251
C84   C     C_R   0.229938 0.548457 0.352597 0.549488
C85   C     C_R   0.470569 0.824189 0.647302 0.556841
C86   C     C_R   0.532446 0.822940 0.354621 0.549256
C87   C     C_R   0.971076 0.324122 0.647597 0.555278
C88   C     C_R   0.033246 0.322870 0.355061 0.548335
C89   C     C_R   0.261088 0.641570 0.641634 0.554244
C90   C     C_R   0.740931 0.632916 0.354797 0.550160
C91   C     C_R   0.761200 0.142093 0.641579 0.554312
C92   C     C_R   0.238940 0.141318 0.358390 0.550233
C93   C     C_3   0.486651 0.942880 0.025116 0.022246
C94   C     C_R   0.303026 0.532583 0.964053 -0.149713
C95   C     C_3   0.527649 0.878456 0.966211 0.020651
C96   C     C_3   0.986610 0.442901 0.025132 0.022311
C97   C     C_3   0.027622 0.378514 0.966224 0.020809
C98   C     C_3   0.416101 0.887995 0.996399 -0.132110
C99   C     C_3   0.538759 0.765243 0.013955 -0.106626
C100  C     C_3   0.916073 0.387973 0.996409 -0.132213
C101  C     C_3   0.038755 0.265302 0.013962 -0.106649
C102  C     C_3   0.458258 0.823228 0.937926 0.051562
C103  C     C_3   0.497175 0.830107 0.073001 0.048470
C104  C     C_3   0.958246 0.323241 0.937931 0.051572
Cr1   Cr    Cr6+3 0.229630 0.835900 0.747350 1.003982
Cr2   Cr    Cr6+3 0.614200 0.677120 0.250660 1.010559
Cr3   Cr    Cr6+3 0.885800 0.177120 0.749340 1.010217
Cr4   Cr    Cr6+3 0.114200 0.177120 0.250660 1.012143
Cr5   Cr    Cr6+3 0.770370 0.835900 0.252650 1.008400
Cr6   Cr    Cr6+3 0.729630 0.335900 0.747350 1.005685
Cr7   Cr    Cr6+3 0.270370 0.335900 0.252650 1.007621
Cr8   Cr    Cr6+3 0.387410 0.989850 0.750850 1.010176
Cr9   Cr    Cr6+3 0.612590 0.989850 0.249150 1.012567
Cr10  Cr    Cr6+3 0.887410 0.489850 0.750850 1.008640
Cr11  Cr    Cr6+3 0.112590 0.489850 0.249150 1.009875
Cr12  Cr    Cr6+3 0.385800 0.677120 0.749340 1.009257
H1    H     H_    0.365056 0.936642 0.988120 0.129614
H2    H     H_    0.869299 0.634377 0.556013 0.128296
H3    H     H_    0.676516 0.240935 0.420909 0.126624
H4    H     H_    0.331412 0.231510 0.576069 0.124186
H5    H     H_    0.339949 0.467023 0.436003 0.121495
H6    H     H_    0.653812 0.496562 0.565034 0.112239
H7    H     H_    0.831893 0.948802 0.439245 0.136211
H8    H     H_    0.159414 0.968992 0.565041 0.118688
H9    H     H_    0.344954 0.490235 0.565039 0.118443
H10   H     H_    0.644995 0.511539 0.435578 0.117334
H11   H     H_    0.837325 0.976441 0.567651 0.122937
H12   H     H_    0.589707 0.715531 0.021521 0.129905
H13   H     H_    0.154974 0.990782 0.435870 0.111588
H14   H     H_    0.461373 0.612846 0.968831 0.122849
H15   H     H_    0.386150 0.732056 0.079293 0.126437
H16   H     H_    0.961413 0.112847 0.968843 0.122779
H17   H     H_    0.886157 0.232003 0.079298 0.126265
H18   H     H_    0.342261 0.481672 0.934857 0.115854
H19   H     H_    0.654559 0.488303 0.064791 0.120616
H20   H     H_    0.842340 0.981809 0.934884 0.116013
H21   H     H_    0.154435 0.988578 0.064741 0.120630
H22   H     H_    0.333464 0.451425 0.063739 0.123944
H23   H     H_    0.865024 0.436616 0.988142 0.129379
H24   H     H_    0.662622 0.461108 0.935612 0.123434
H25   H     H_    0.833558 0.951620 0.063776 0.123863
H26   H     H_    0.162508 0.961408 0.935561 0.123436
H27   H     H_    0.165662 0.721797 0.069424 0.124172
H28   H     H_    0.840526 0.711004 0.932461 0.131671
H29   H     H_    0.665590 0.221688 0.069395 0.124050
H30   H     H_    0.340663 0.210775 0.932514 0.131576
H31   H     H_    0.171132 0.745791 0.943260 0.132508
H32   H     H_    0.835805 0.731229 0.058419 0.129139
H33   H     H_    0.671017 0.245561 0.943227 0.132400
H34   H     H_    0.089716 0.215634 0.021523 0.129710
H35   H     H_    0.335948 0.230909 0.058470 0.129033
H36   H     H_    0.528388 0.641792 0.573060 0.126319
H37   H     H_    0.540112 0.635760 0.447046 0.129866
H38   H     H_    0.028116 0.140286 0.573359 0.129285
H39   H     H_    0.041007 0.135117 0.447321 0.134597
H40   H     H_    0.490877 0.022652 0.431604 0.123961
H41   H     H_    0.472416 0.026236 0.560432 0.133563
H42   H     H_    0.996358 0.523851 0.433229 0.117614
H43   H     H_    0.979589 0.527459 0.562302 0.120203
H44   H     H_    0.481687 0.136601 0.001113 0.116746
H45   H     H_    0.170016 0.748090 0.549522 0.130542
H46   H     H_    0.459587 0.096547 0.091612 0.135946
H47   H     H_    0.551121 0.092885 0.063896 0.158041
H48   H     H_    0.632486 0.954934 0.957617 0.140921
H49   H     H_    0.602847 0.869412 0.880684 0.147831
H50   H     H_    0.567215 0.020886 0.896756 0.150475
H51   H     H_    0.981615 0.636640 0.001135 0.116823
H52   H     H_    0.959524 0.596578 0.091632 0.135575
H53   H     H_    0.051055 0.592957 0.063912 0.158043
H54   H     H_    0.132404 0.455237 0.957668 0.140907
H55   H     H_    0.102904 0.369486 0.880772 0.147315
H56   H     H_    0.862565 0.638548 0.429816 0.124036
H57   H     H_    0.067138 0.520910 0.896709 0.150492
H58   H     H_    0.679504 0.264306 0.547503 0.137904
H59   H     H_    0.330226 0.247261 0.449785 0.129799
H60   H     H_    0.168341 0.731029 0.423279 0.125379
O1    O     O_R   0.214270 0.709000 0.827470 -0.527642
O2    O     O_R   0.543270 0.717630 0.330160 -0.529958
O3    O     O_R   0.956730 0.217630 0.669840 -0.520458
O4    O     O_R   0.043270 0.217630 0.330160 -0.529597
O5    O     O_R   0.320620 0.625640 0.672920 -0.502993
O6    O     O_R   0.679380 0.625640 0.327080 -0.509517
O7    O     O_R   0.820620 0.125640 0.672920 -0.501803
O8    O     O_R   0.179380 0.125640 0.327080 -0.507921
O9    O     O_3   0.334280 0.834290 0.749180 -0.264825
O10   O     O_3   0.665720 0.834290 0.250820 -0.242761
O11   O     O_3   0.834280 0.334290 0.749180 -0.266624
O12   O     O_R   0.785730 0.709000 0.172530 -0.531476
O13   O     O_3   0.165720 0.334290 0.250820 -0.244550
O14   O     O_R   0.236160 0.958490 0.823130 -0.510354
O15   O     O_R   0.763840 0.958490 0.176870 -0.508862
O16   O     O_R   0.736160 0.458490 0.823130 -0.508885
O17   O     O_R   0.263840 0.458490 0.176870 -0.508771
O18   O     O_R   0.332080 0.075470 0.831280 -0.533173
O19   O     O_R   0.667920 0.075470 0.168720 -0.530364
O20   O     O_R   0.832080 0.575470 0.831280 -0.531110
O21   O     O_R   0.167920 0.575470 0.168720 -0.529994
O22   O     O_R   0.446300 0.918110 0.826620 -0.502263
O23   O     O_R   0.714270 0.209000 0.827470 -0.527600
O24   O     O_R   0.553700 0.918110 0.173380 -0.503078
O25   O     O_R   0.946300 0.418110 0.826620 -0.502310
O26   O     O_R   0.053700 0.418110 0.173380 -0.502937
O27   O     O_R   0.457110 0.716200 0.831760 -0.522202
O28   O     O_R   0.542890 0.716200 0.168240 -0.521282
O29   O     O_R   0.957110 0.216200 0.831760 -0.522348
O30   O     O_R   0.042890 0.216200 0.168240 -0.521159
O31   O     O_R   0.320980 0.624310 0.823030 -0.519474
O32   O     O_R   0.679020 0.624310 0.176970 -0.506431
O33   O     O_R   0.820980 0.124310 0.823030 -0.519073
O34   O     O_R   0.285730 0.209000 0.172530 -0.529157
O35   O     O_R   0.179020 0.124310 0.176970 -0.504717
O36   O     O_R   0.213890 0.710430 0.665540 -0.527283
O37   O     O_R   0.786110 0.710430 0.334460 -0.526406
O38   O     O_R   0.713890 0.210430 0.665540 -0.526853
O39   O     O_R   0.286110 0.210430 0.334460 -0.529777
O40   O     O_R   0.235810 0.959820 0.673020 -0.507556
O41   O     O_R   0.764190 0.959820 0.326980 -0.507409
O42   O     O_R   0.735810 0.459820 0.673020 -0.506056
O43   O     O_R   0.264190 0.459820 0.326980 -0.509981
O44   O     O_R   0.331700 0.076900 0.669350 -0.525383
O45   O     O_R   0.445950 0.919440 0.676520 -0.499900
O46   O     O_R   0.668300 0.076900 0.330650 -0.523071
O47   O     O_R   0.831700 0.576900 0.669350 -0.529258
O48   O     O_R   0.168300 0.576900 0.330650 -0.524755
O49   O     O_R   0.554050 0.919440 0.323480 -0.501355
O50   O     O_R   0.945950 0.419440 0.676520 -0.503011
O51   O     O_R   0.054050 0.419440 0.323480 -0.502987
O52   O     O_R   0.456730 0.717630 0.669840 -0.520992

loop_
_geom_bond_atom_site_label_1
_geom_bond_atom_site_label_2
_ccdc_geom_bond_type
C79   O34   A    
C99   C103  S    
C22   H30   S    
C16   C21   A    
C55   C59   A    
C8    H20   S    
Cr8   O45   S    
C20   H28   S    
C61   C98   S    
C59   C82   S    
C100  C104  S    
C11   H24   S    
C43   H42   S    
C93   C103  S    
C57   C62   A    
C80   O40   A    
C66   C70   A    
C17   O15   A    
C79   O35   A    
C81   O46   A    
Cr11  O21   S    
C47   O25   A    
C50   C99   S    
Cr1   O36   S    
Cr10  O20   S    
C13   C18   A    
Cr12  O52   S    
C2    C29   A    
C34   C40   A    
C64   C68   A    
C40   C87   S    
C37   C85   S    
C51   H56   S    
Cr6   O38   S    
Cr7   O39   S    
C73   C90   S    
C91   O38   A    
C91   O7    A    
C67   H9    S    
C53   H59   S    
Cr2   O32   S    
Cr1   O14   S    
C95   C99   S    
C88   O51   A    
C72   C101  S    
C10   C94   A    
Cr1   O9    S    
C49   C54   A    
Cr11  O26   S    
C48   O26   A    
C3    C48   S    
C86   O2    A    
C33   C36   A    
C12   H25   S    
Cr4   O4    S    
C92   O39   A    
C25   H33   S    
C34   C35   A    
C41   C42   A    
C54   H60   S    
C37   C42   A    
C9    C13   A    
C24   C29   A    
Cr2   O6    S    
Cr12  O27   S    
C22   C26   A    
C50   H14   S    
C63   H5    S    
C14   C39   S    
C9    H21   S    
C90   O6    A    
C16   C17   S    
C32   H36   S    
Cr7   O34   S    
C88   O4    A    
C3    C96   S    
C23   C27   A    
Cr10  O47   S    
C9    C31   A    
C49   H45   S    
C76   O31   A    
C8    C12   A    
C41   H40   S    
Cr3   O3    S    
C1    O14   A    
C3    C101  S    
C46   O28   A    
C39   O21   A    
C26   C31   A    
C93   C95   S    
Cr1   O40   S    
C96   C97   S    
Cr9   O19   S    
C46   O24   A    
C36   C41   A    
C53   C75   A    
Cr7   O43   S    
C2    C11   A    
C28   O16   A    
Cr8   O22   S    
C5    C95   S    
C72   H16   S    
C89   O36   A    
C63   C67   A    
C34   H38   S    
Cr5   O12   S    
Cr8   O44   S    
C15   C20   A    
C6    H52   S    
Cr6   O11   S    
C4    H47   S    
C83   H17   S    
C62   C66   A    
C72   C83   S    
C5    H48   S    
C12   C16   A    
Cr11  O48   S    
C6    H53   S    
C35   C38   A    
Cr2   O10   S    
Cr4   O30   S    
C76   O1    A    
C24   H32   S    
C77   O32   A    
Cr1   O1    S    
Cr8   O9    S    
C47   O29   A    
C68   H10   S    
C82   O47   A    
C72   C104  S    
C51   C55   A    
C36   C86   S    
C68   C73   A    
C5    H50   S    
C23   H31   S    
C70   H13   S    
C101  H34   S    
C56   C60   A    
Cr3   O7    S    
C89   O5    A    
C74   C91   S    
C19   C23   A    
C43   C44   A    
Cr11  O51   S    
C100  H23   S    
C58   C84   S    
Cr10  O50   S    
C39   O17   A    
C60   C81   S    
Cr9   O49   S    
C71   C89   S    
C40   C44   A    
C45   O27   A    
C87   O50   A    
C81   O41   A    
Cr12  O5    S    
C1    C18   S    
Cr10  O25   S    
C69   C74   A    
C85   O52   A    
C32   C37   A    
C94   H18   S    
C84   O43   A    
C78   O33   A    
Cr8   O18   S    
C75   C92   S    
Cr7   O17   S    
C57   H4    S    
C4    H46   S    
C87   O3    A    
C60   C65   A    
C50   C102  S    
C11   C15   A    
C83   C100  S    
C92   O8    A    
C56   H3    S    
C66   H8    S    
Cr4   O13   S    
C17   O19   A    
C42   H41   S    
C21   H29   S    
C78   O23   A    
C48   O30   A    
C27   C76   S    
C52   H58   S    
Cr4   O35   S    
Cr10  O11   S    
C98   H1    S    
C54   C58   A    
C62   C80   S    
C25   C30   A    
C44   H43   S    
C21   C25   A    
C6    H51   S    
C26   H35   S    
C19   H27   S    
C47   C104  S    
C7    C97   S    
C61   C103  S    
Cr6   O23   S    
C18   C22   A    
C46   C103  S    
C14   C19   A    
C58   C63   A    
C35   H39   S    
C27   C94   A    
C53   C57   A    
C80   O44   A    
C95   C102  S    
C31   C79   S    
C99   H12   S    
Cr3   O33   S    
Cr4   O8    S    
Cr5   O10   S    
Cr12  O9    S    
C96   C100  S    
C52   C74   A    
C2    H19   S    
C51   C73   A    
C97   C104  S    
C8    C30   A    
C32   C33   A    
C1    O18   A    
C45   O22   A    
C33   H37   S    
C38   C43   A    
C98   C102  S    
C84   O48   A    
C3    C83   S    
C15   C28   S    
C4    H44   S    
C82   O42   A    
Cr5   O15   S    
C50   C61   S    
C65   C69   A    
Cr9   O10   S    
C7    H57   S    
Cr6   O16   S    
C28   O20   A    
Cr9   O24   S    
Cr2   O2    S    
C67   C71   A    
C5    H49   S    
C65   H7    S    
Cr6   O42   S    
Cr11  O13   S    
Cr9   O46   S    
Cr3   O29   S    
Cr12  O31   S    
Cr5   O41   S    
C45   C102  S    
C61   H15   S    
Cr5   O37   S    
Cr2   O28   S    
C4    C93   S    
C30   C78   S    
C59   C64   A    
C86   O49   A    
C29   C77   S    
C69   H11   S    
C64   H6    S    
C49   C71   A    
C7    H54   S    
C38   C88   S    
C70   C75   A    
C77   O12   A    
C6    C96   S    
Cr3   O11   S    
C10   H22   S    
Cr7   O13   S    
C7    H55   S    
C85   O45   A    
C93   C98   S    
C20   C24   A    
C90   O37   A    
C97   C101  S    
C52   C56   A    
C10   C14   A    
C55   H2    S    
C13   H26   S    
