data_mof_unit_55583.cif
_audit_creation_date              2012-12-10T16:50:10-0500
_audit_creation_method            fapswitch 2.2
_symmetry_space_group_name_H-M    P1
_symmetry_Int_Tables_number       1
_space_group_crystal_system       triclinic
_cell_length_a                    7.769192
_cell_length_b                    8.559734
_cell_length_c                    10.653194
_cell_angle_alpha                 90.574954
_cell_angle_beta                  85.866588
_cell_angle_gamma                 93.55255
_cell_volume                      705.2493737

loop_
_atom_site_label
_atom_site_type_symbol
_atom_type_description
_atom_site_fract_x
_atom_site_fract_y
_atom_site_fract_z
_atom_type_partial_charge
C1    C     C_R   0.545718 0.794707 0.496323 0.911678
C2    C     C_R   0.454207 0.205286 0.502409 1.074914
C3    C     C_R   0.499069 0.506645 0.260859 0.933950
C4    C     C_R   0.382047 0.770273 0.874266 -0.184397
C5    C     C_R   0.310479 0.893699 0.941569 -0.120139
C6    C     C_R   0.300419 0.893683 0.072587 0.527866
C7    C     C_R   0.363175 0.769248 0.136020 -0.245960
C8    C     C_R   0.431567 0.640675 0.068793 0.019205
C9    C     C_R   0.439931 0.640139 0.937055 0.046207
C10   C     C_R   0.509221 0.510333 0.871798 -0.223504
C11   C     C_R   0.578999 0.387343 0.934411 0.441852
C12   C     C_R   0.573825 0.392472 0.062998 -0.196029
C13   C     C_R   0.497560 0.513933 0.128845 -0.143432
C14   C     C_2   0.569803 0.958133 0.493723 -0.305935
C15   C     C_2   0.430006 0.041724 0.503723 -0.263523
C16   C     C_R   0.502511 0.500673 0.739512 0.947365
H1    H     H_    0.986151 0.617232 0.594342 0.205609
H2    H     H_    0.109523 0.271085 0.114616 0.384281
H3    H     H_    0.393190 0.779771 0.772933 0.170668
H4    H     H_    0.265028 0.990209 0.890913 0.215572
H5    H     H_    0.359224 0.775577 0.237548 0.179903
H6    H     H_    0.626661 0.299212 0.113474 0.220256
H7    H     H_    0.701835 0.009147 0.484167 0.193377
H8    H     H_    0.297954 0.990755 0.513198 0.180478
H9    H     H_    0.013837 0.382645 0.405740 0.213183
H10   H     H_    0.880376 0.187500 0.720057 0.376502
N1    N     N_2   0.950330 0.457950 0.466250 -0.159125
N2    N     N_2   0.049670 0.542050 0.533750 -0.155377
O1    O     O_R   0.389250 0.738570 0.508280 -0.637967
O2    O     O_2   0.540101 0.152487 0.768811 -0.381169
O3    O     O_3   0.853007 0.277938 0.775083 -0.517531
O4    O     O_2   0.069057 0.989800 0.248936 -0.307775
O5    O     O_2   0.353428 0.130799 0.230226 -0.371685
O6    O     O_3   0.138975 0.180410 0.060482 -0.525738
O7    O     O_R   0.678390 0.711630 0.486650 -0.621648
O8    O     O_R   0.355400 0.513470 0.694050 -0.617091
O9    O     O_R   0.644540 0.486530 0.672420 -0.575589
O10   O     O_R   0.321610 0.288370 0.513350 -0.614980
O11   O     O_R   0.610750 0.261430 0.491720 -0.608058
O12   O     O_R   0.355460 0.513470 0.327580 -0.624038
O13   O     O_R   0.644600 0.486530 0.305950 -0.616661
O14   O     O_2   0.701992 0.099608 0.950599 -0.271792
S1    S     S_3+6 0.666605 0.221900 0.857017 0.028978
S2    S     S_3+6 0.213784 0.051155 0.157993 0.006201
Zn1   Zn    Zn3+2 0.306930 0.517990 0.514440 0.994656
Zn2   Zn    Zn3+2 0.693070 0.482010 0.485560 1.016442

loop_
_geom_bond_atom_site_label_1
_geom_bond_atom_site_label_2
_ccdc_geom_bond_type
C14   H7    S    
C8    C9    A    
O13   Zn2   S    
C11   S1    S    
C6    C7    A    
H9    N1    S    
C9    C10   A    
C2    O10   A    
C3    C13   S    
C16   O9    A    
C11   C12   A    
H1    N2    S    
C1    O1    A    
O4    S2    D    
C7    C8    A    
C5    H4    S    
C6    S2    S    
C16   O8    A    
C2    C15   S    
H2    O6    S    
O12   Zn1   S    
O3    S1    S    
O11   Zn2   S    
N1    Zn2   S    
C15   H8    S    
O9    Zn2   S    
C3    O12   A    
C5    C6    A    
N2    Zn1   S    
O2    S1    D    
C10   C11   A    
C8    C13   A    
C12   H6    S    
O8    Zn1   S    
O6    S2    S    
C12   C13   A    
C1    O7    A    
O14   S1    D    
N1    N2    D    
C14   C15   D    
C3    O13   A    
O10   Zn1   S    
C10   C16   S    
C1    C14   S    
C4    C9    A    
C7    H5    S    
C4    H3    S    
H10   O3    S    
C2    O11   A    
O1    Zn1   S    
C4    C5    A    
O5    S2    D    
O7    Zn2   S    
