data_mof_unit_45994.cif
_audit_creation_date              2012-12-10T21:07:03-0500
_audit_creation_method            fapswitch 2.2
_symmetry_space_group_name_H-M    P1
_symmetry_Int_Tables_number       1
_space_group_crystal_system       triclinic
_cell_length_a                    10.707345
_cell_length_b                    15.84728
_cell_length_c                    15.070561
_cell_angle_alpha                 90.513327
_cell_angle_beta                  89.92174
_cell_angle_gamma                 90.257396
_cell_volume                      2557.07668564

loop_
_atom_site_label
_atom_site_type_symbol
_atom_type_description
_atom_site_fract_x
_atom_site_fract_y
_atom_site_fract_z
_atom_type_partial_charge
C1    C     C_R   0.500203 0.338911 0.499559 0.904093
C2    C     C_R   0.499756 0.086813 0.499963 0.101322
C3    C     C_R   0.509210 0.955753 0.417223 0.010682
C4    C     C_R   0.499910 0.043769 0.581276 0.011657
C5    C     C_1   0.505309 0.823946 0.500562 -0.068911
C6    C     C_1   0.500396 0.175814 0.498265 -0.072475
C7    C     C_1   0.500517 0.250615 0.498452 -0.199006
C8    C     C_1   0.502369 0.749228 0.501062 -0.194532
C9    C     C_R   0.413630 0.447344 0.953663 0.249663
C10   C     C_R   0.585446 0.552485 0.046212 0.234082
C11   C     C_R   0.498473 0.498494 0.905156 -0.068449
C12   C     C_R   0.499916 0.661038 0.500375 0.903592
C13   C     C_R   0.500860 0.501995 0.095043 -0.044211
C14   C     C_R   0.582783 0.550323 0.952322 -0.218416
C15   C     C_R   0.416270 0.450401 0.048163 -0.189036
C16   C     C_R   0.259590 0.502545 0.499948 0.873246
C17   C     C_R   0.740352 0.497515 0.500000 0.874940
C18   C     C_1   0.499581 0.499514 0.807132 0.057650
C19   C     C_1   0.500355 0.500923 0.192932 0.059060
C20   C     C_R   0.260096 0.697966 0.302341 -0.166033
C21   C     C_R   0.738507 0.294930 0.687300 -0.131388
C22   C     C_R   0.195597 0.659540 0.371783 -0.129615
C23   C     C_R   0.872564 0.495374 0.499868 -0.078485
C24   C     C_R   0.803736 0.336891 0.620472 -0.134305
C25   C     C_R   0.122656 0.587327 0.355539 0.112709
C26   C     C_R   0.876628 0.408294 0.641027 0.081617
C27   C     C_R   0.112338 0.555473 0.268603 -0.232514
C28   C     C_R   0.886162 0.435706 0.729653 -0.155993
C29   C     C_R   0.176204 0.593981 0.198012 0.272302
C30   C     C_R   0.821325 0.393309 0.797171 0.272891
C31   C     C_R   0.251678 0.665193 0.216116 -0.128120
C32   C     C_R   0.746241 0.323372 0.775130 -0.194120
C33   C     C_R   0.933332 0.536682 0.430621 -0.256437
C34   C     C_R   0.127279 0.504492 0.499875 -0.080525
C35   C     C_R   0.066404 0.463087 0.569118 -0.254068
C36   C     C_3   0.257313 0.330219 0.953786 -0.854163
C37   C     C_3   0.800996 0.584969 0.082064 -0.807755
C38   C     C_3   0.167597 0.613120 0.035893 -0.793522
C39   C     C_3   0.949886 0.415224 0.926985 -0.827125
C40   C     C_R   0.494424 0.088450 0.668212 0.113755
C41   C     C_R   0.398098 0.145992 0.686761 -0.136423
C42   C     C_R   0.393882 0.188283 0.768427 -0.129044
C43   C     C_R   0.484808 0.172943 0.832611 -0.125552
C44   C     C_R   0.580011 0.115058 0.815253 -0.151427
C45   C     C_R   0.938364 0.456828 0.569334 0.013679
C46   C     C_R   0.584840 0.072768 0.733495 -0.174234
C47   C     C_R   0.514926 0.910529 0.330570 0.117370
C48   C     C_R   0.612364 0.853760 0.312208 -0.135058
C49   C     C_R   0.616401 0.810277 0.231164 -0.130906
C50   C     C_R   0.523648 0.823229 0.167676 -0.125854
C51   C     C_R   0.427209 0.880252 0.184905 -0.155135
C52   C     C_R   0.422935 0.924043 0.265865 -0.174614
C53   C     C_R   0.061364 0.542204 0.429837 0.014056
C54   C     C_R   0.504966 0.956102 0.579477 -0.246996
C55   C     C_R   0.503943 0.043487 0.418942 -0.247570
C56   C     C_R   0.508724 0.912832 0.498555 0.100161
H1    H     H_    0.305508 0.695103 0.164398 0.136855
H2    H     H_    0.118897 0.432645 0.621338 0.161938
H3    H     H_    0.503384 0.921340 0.641193 0.153548
H4    H     H_    0.505079 0.078178 0.357189 0.152711
H5    H     H_    0.352287 0.412560 0.086735 0.159489
H6    H     H_    0.646634 0.590271 0.915689 0.167436
H7    H     H_    0.347173 0.379686 0.842447 0.223630
H8    H     H_    0.197627 0.294216 0.906501 0.238434
H9    H     H_    0.194843 0.358598 0.004627 0.253958
H10   H     H_    0.323697 0.285886 0.985124 0.239378
H11   H     H_    0.646617 0.624871 0.154069 0.222884
H12   H     H_    0.694599 0.290658 0.826202 0.132450
H13   H     H_    0.859880 0.632845 0.116598 0.239467
H14   H     H_    0.829771 0.582729 0.011278 0.264051
H15   H     H_    0.817196 0.522574 0.113005 0.237980
H16   H     H_    0.108560 0.506591 0.105056 0.213944
H17   H     H_    0.150371 0.575918 0.974260 0.248279
H18   H     H_    0.259364 0.644990 0.028154 0.243106
H19   H     H_    0.092081 0.660489 0.043623 0.237236
H20   H     H_    0.757601 0.400551 0.926988 0.229646
H21   H     H_    0.946913 0.440832 0.995701 0.238346
H22   H     H_    0.021040 0.451434 0.889301 0.260401
H23   H     H_    0.318379 0.752554 0.315710 0.166064
H24   H     H_    0.977218 0.347761 0.929690 0.244931
H25   H     H_    0.326001 0.157869 0.638173 0.129406
H26   H     H_    0.319768 0.232708 0.781830 0.132547
H27   H     H_    0.481759 0.205945 0.895715 0.129843
H28   H     H_    0.650486 0.103298 0.864989 0.133164
H29   H     H_    0.659782 0.028613 0.720684 0.132451
H30   H     H_    0.685337 0.843357 0.360536 0.128330
H31   H     H_    0.691725 0.766729 0.217590 0.132091
H32   H     H_    0.526607 0.789192 0.105117 0.135273
H33   H     H_    0.355410 0.890234 0.135671 0.133770
H34   H     H_    0.680930 0.240780 0.670787 0.164604
H35   H     H_    0.347065 0.967481 0.278624 0.131837
H36   H     H_    0.204616 0.684839 0.438486 0.113046
H37   H     H_    0.795548 0.314858 0.552474 0.112962
H38   H     H_    0.056713 0.499291 0.256277 0.124707
H39   H     H_    0.940900 0.491436 0.745668 0.137279
H40   H     H_    0.880809 0.566857 0.378232 0.163161
N1    N     N_1   0.499960 0.500020 0.270550 -0.087801
N2    N     N_1   0.500040 0.499980 0.729450 -0.087348
N3    N     N_2   0.324625 0.395625 0.906923 -0.303843
N4    N     N_2   0.670879 0.608005 0.090163 -0.316820
N5    N     N_2   0.169148 0.557102 0.111232 -0.312048
N6    N     N_2   0.828100 0.422724 0.886549 -0.315999
O1    O     O_R   0.500000 0.378020 0.573650 -0.607932
O2    O     O_R   0.500000 0.621980 0.426350 -0.608200
O3    O     O_R   0.500060 0.378020 0.426320 -0.610341
O4    O     O_R   0.499940 0.621980 0.573680 -0.609288
O5    O     O_R   0.316730 0.500010 0.573660 -0.625349
O6    O     O_R   0.683270 0.499990 0.426340 -0.626068
O7    O     O_R   0.316790 0.500010 0.426330 -0.603076
O8    O     O_R   0.683210 0.499990 0.573670 -0.603270
Zn1   Zn    Zn3+2 0.499960 0.500000 0.598370 0.975787
Zn2   Zn    Zn3+2 0.500040 0.500000 0.401630 0.974453

loop_
_geom_bond_atom_site_label_1
_geom_bond_atom_site_label_2
_ccdc_geom_bond_type
C12   O4    A    
C21   H34   S    
C11   C18   S    
C23   C45   A    
C37   H13   S    
C27   C29   A    
C43   H27   S    
C41   C42   A    
C49   H31   S    
C5    C56   S    
C42   H26   S    
C17   O8    A    
C19   N1    T    
C40   C46   A    
C17   C23   S    
C35   H2    S    
C39   H21   S    
C25   C53   S    
C12   O2    A    
C38   N5    S    
C2    C55   A    
C11   C14   A    
C36   H10   S    
H16   N5    S    
C14   H6    S    
O1    Zn1   S    
C34   C35   A    
C3    C47   S    
O8    Zn1   S    
H7    N3    S    
C16   O5    A    
C16   C34   S    
C3    C55   A    
C27   H38   S    
C4    C40   S    
C23   C33   A    
C22   C25   A    
C28   H39   S    
C1    O1    A    
C26   C45   S    
C50   H32   S    
C32   H12   S    
C46   H29   S    
C9    N3    S    
C55   H4    S    
C33   C53   A    
C2    C6    S    
C44   C46   A    
C16   O7    A    
C54   H3    S    
H20   N6    S    
C21   C32   A    
C54   C56   A    
C13   C19   S    
C51   C52   A    
C39   H22   S    
C10   C14   A    
C17   O6    A    
O2    Zn2   S    
N1    Zn2   S    
C36   H9    S    
O6    Zn2   S    
C2    C4    A    
C43   C44   A    
C3    C56   A    
C47   C48   A    
C8    C12   S    
C41   H25   S    
C30   N6    S    
C50   C51   A    
C15   H5    S    
C29   N5    S    
C10   N4    S    
C9    C11   A    
C47   C52   A    
C38   H19   S    
H11   N4    S    
C40   C41   A    
O3    Zn2   S    
C20   C22   A    
C37   H15   S    
C48   H30   S    
O7    Zn2   S    
C42   C43   A    
O4    Zn1   S    
C35   C45   A    
C33   H40   S    
C39   N6    S    
C38   H18   S    
C48   C49   A    
N2    Zn1   S    
C20   H23   S    
C4    C54   A    
C1    C7    S    
O5    Zn1   S    
C24   C26   A    
C44   H28   S    
C10   C13   A    
C5    C8    T    
C6    C7    T    
C25   C27   A    
C26   C28   A    
C37   H14   S    
C39   H24   S    
C31   H1    S    
C13   C15   A    
C9    C15   A    
C29   C31   A    
C24   H37   S    
C51   H33   S    
C30   C32   A    
C28   C30   A    
C36   N3    S    
C34   C53   A    
C49   C50   A    
C21   C24   A    
C22   H36   S    
C52   H35   S    
C18   N2    T    
C36   H8    S    
C20   C31   A    
C37   N4    S    
C1    O3    A    
C38   H17   S    
