data_mof_unit_65648.cif
_audit_creation_date              2012-12-10T18:19:09-0500
_audit_creation_method            fapswitch 2.2
_symmetry_space_group_name_H-M    P1
_symmetry_Int_Tables_number       1
_space_group_crystal_system       triclinic
_cell_length_a                    32.250781
_cell_length_b                    32.250845
_cell_length_c                    35.720968
_cell_angle_alpha                 90.000028
_cell_angle_beta                  89.999875
_cell_angle_gamma                 89.999856
_cell_volume                      37153.9124578

loop_
_atom_site_label
_atom_site_type_symbol
_atom_type_description
_atom_site_fract_x
_atom_site_fract_y
_atom_site_fract_z
_atom_type_partial_charge
Br1   Br    Br    0.700360 0.409785 0.999955 -0.416857
Br2   Br    Br    0.909971 0.799640 0.505242 -0.416905
Br3   Br    Br    0.799640 0.090204 0.498667 -0.416856
Br4   Br    Br    0.090208 0.200359 0.501053 -0.416903
Br5   Br    Br    0.200359 0.090183 0.497783 -0.416882
Br6   Br    Br    0.909792 0.200360 0.498932 -0.416857
Br7   Br    Br    0.799641 0.909797 0.501351 -0.416993
Br8   Br    Br    0.090029 0.799639 0.494773 -0.417056
Br9   Br    Br    0.409791 0.299640 0.000931 -0.416940
Br10  Br    Br    0.299640 0.590149 0.003127 -0.416870
Br11  Br    Br    0.590214 0.700360 0.999443 -0.416851
Br12  Br    Br    0.700359 0.590215 0.000039 -0.416851
Br13  Br    Br    0.409787 0.700360 0.000570 -0.416903
Br14  Br    Br    0.299640 0.409851 0.996879 -0.416913
Br15  Br    Br    0.590210 0.299640 0.999055 -0.416852
Br16  Br    Br    0.200360 0.909819 0.502201 -0.417127
C1    C     C_R   0.920450 0.500000 1.000000 0.829079
C2    C     C_R   0.537529 0.228140 0.999603 -0.181451
C3    C     C_R   0.500130 0.962546 0.633633 -0.259535
C4    C     C_R   0.962545 0.500078 0.366367 -0.259533
C5    C     C_R   0.499864 0.962546 0.366367 -0.259526
C6    C     C_R   0.037454 0.499923 0.366367 -0.259529
C7    C     C_R   0.500136 0.037454 0.366367 -0.259536
C8    C     C_R   0.462546 0.999869 0.133633 -0.259525
C9    C     C_R   0.999904 0.537455 0.133633 -0.259536
C10   C     C_R   0.537455 0.000131 0.133633 -0.259536
C11   C     C_R   0.000096 0.462546 0.133633 -0.259525
C12   C     C_R   0.462545 0.000150 0.866367 -0.259535
C13   C     C_R   0.228140 0.462497 0.998697 -0.181446
C14   C     C_R   0.999852 0.462546 0.866367 -0.259535
C15   C     C_R   0.537454 0.999849 0.866367 -0.259526
C16   C     C_R   0.000148 0.537454 0.866367 -0.259525
C17   C     C_R   0.000000 0.500000 0.613830 -0.023413
C18   C     C_R   0.499999 0.000000 0.613830 -0.023413
C19   C     C_R   1.000000 0.500000 0.386170 -0.023414
C20   C     C_R   0.500000 1.000000 0.386170 -0.023414
C21   C     C_R   0.500000 1.000000 0.113830 -0.023413
C22   C     C_R   0.000000 0.500000 0.113830 -0.023413
C23   C     C_R   0.500000 0.000000 0.886170 -0.023414
C24   C     C_R   0.462470 0.771860 0.000238 -0.181450
C25   C     C_R   1.000000 0.500000 0.886170 -0.023414
C26   C     C_R   0.000000 0.500001 0.692789 0.073912
C27   C     C_R   0.499999 0.000000 0.692789 0.073912
C28   C     C_R   1.000000 0.500001 0.307210 0.073913
C29   C     C_R   0.500000 1.000000 0.307210 0.073912
C30   C     C_R   0.500000 1.000000 0.192789 0.073912
C31   C     C_R   0.000000 0.500000 0.192789 0.073913
C32   C     C_R   0.499999 0.000000 0.807211 0.073912
C33   C     C_R   0.000000 0.500000 0.807210 0.073912
C34   C     C_1   0.000000 0.500001 0.733148 0.206548
C35   C     C_R   0.771860 0.462469 0.999981 -0.181455
C36   C     C_1   0.499999 0.000000 0.733148 0.206550
C37   C     C_1   1.000000 0.500001 0.266852 0.206550
C38   C     C_1   0.500000 1.000000 0.266852 0.206550
C39   C     C_1   0.500000 1.000000 0.233148 0.206548
C40   C     C_1   1.000000 0.500000 0.233148 0.206551
C41   C     C_1   0.499999 0.000000 0.766852 0.206547
C42   C     C_1   1.000000 0.500000 0.766852 0.206549
C43   C     C_R   0.728423 0.462267 0.999981 0.246410
C44   C     C_R   0.462270 0.271578 0.000389 0.246421
C45   C     C_R   0.271577 0.537705 0.001311 0.246419
C46   C     C_R   0.537530 0.771859 0.999769 -0.181456
C47   C     C_R   0.537732 0.728422 0.999769 0.246409
C48   C     C_R   0.728422 0.537733 0.000016 0.246409
C49   C     C_R   0.462268 0.728423 0.000240 0.246410
C50   C     C_R   0.271577 0.462295 0.998693 0.246427
C51   C     C_R   0.537731 0.271577 0.999602 0.246410
C52   C     C_R   0.228423 0.962282 0.500921 0.246447
C53   C     C_R   0.962345 0.771578 0.502198 0.246432
C54   C     C_R   0.771577 0.037728 0.499444 0.246408
C55   C     C_R   0.037730 0.228422 0.500439 0.246417
C56   C     C_R   0.228423 0.037720 0.499068 0.246417
C57   C     C_R   0.228140 0.537503 0.001307 -0.181449
C58   C     C_R   0.962270 0.228423 0.499550 0.246410
C59   C     C_R   0.771577 0.962273 0.500567 0.246411
C60   C     C_R   0.037654 0.771577 0.497811 0.246469
C61   C     C_R   0.706400 0.500000 0.999998 -0.011961
C62   C     C_R   0.500000 0.293600 0.999996 -0.011957
C63   C     C_R   0.293600 0.500000 0.000002 -0.011960
C64   C     C_R   0.500000 0.706400 0.000004 -0.011957
C65   C     C_R   0.206400 0.000001 0.499995 -0.011940
C66   C     C_R   1.000000 0.793600 0.500004 -0.011955
C67   C     C_R   0.793600 0.000000 0.500005 -0.011949
C68   C     C_R   0.462471 0.228140 0.000389 -0.181447
C69   C     C_R   0.000000 0.206400 0.499995 -0.011959
C70   C     C_2   0.920279 0.499677 0.691108 0.395194
C71   C     C_2   0.499711 0.079721 0.691108 0.395148
C72   C     C_2   0.079721 0.500326 0.691108 0.395108
C73   C     C_2   0.500287 0.920279 0.691108 0.395157
C74   C     C_2   0.920278 0.500172 0.308892 0.395103
C75   C     C_2   0.499702 0.920279 0.308892 0.395150
C76   C     C_2   0.079721 0.499832 0.308892 0.395198
C77   C     C_2   0.500299 0.079721 0.308892 0.395155
C78   C     C_2   0.420279 0.999712 0.191108 0.395195
C79   C     C_R   0.271860 0.037518 0.499071 -0.181446
C80   C     C_2   0.999792 0.579721 0.191108 0.395163
C81   C     C_2   0.579722 0.000288 0.191108 0.395104
C82   C     C_2   0.000208 0.420279 0.191108 0.395149
C83   C     C_2   0.420278 0.000331 0.808893 0.395106
C84   C     C_2   0.999673 0.420280 0.808892 0.395144
C85   C     C_2   0.579721 0.999669 0.808892 0.395195
C86   C     C_2   0.000327 0.579721 0.808892 0.395169
C87   C     C_R   0.037452 0.728140 0.497817 -0.181429
C88   C     C_R   0.728140 0.962474 0.500563 -0.181446
C89   C     C_R   0.500000 0.079550 1.000000 0.829078
C90   C     C_R   0.962472 0.271860 0.499552 -0.181455
C91   C     C_R   0.271860 0.962484 0.500919 -0.181430
C92   C     C_R   0.037528 0.271859 0.500439 -0.181447
C93   C     C_R   0.728140 0.037526 0.499447 -0.181457
C94   C     C_R   0.962547 0.728140 0.502191 -0.181438
C95   C     C_R   0.793655 0.500000 0.999999 0.036896
C96   C     C_R   0.500000 0.206345 0.999996 0.036895
C97   C     C_R   0.206345 0.500000 0.000002 0.036894
C98   C     C_R   0.500000 0.793655 0.000003 0.036898
C99   C     C_R   0.293655 0.000001 0.499996 0.036891
C100  C     C_R   0.079550 0.500000 0.000000 0.829077
C101  C     C_R   1.000000 0.706345 0.500004 0.036888
C102  C     C_R   0.706345 0.000000 0.500004 0.036897
C103  C     C_R   0.000000 0.293655 0.499996 0.036896
C104  C     C_1   0.661549 0.500000 0.999999 0.099306
C105  C     C_1   0.500000 0.338451 0.999998 0.099312
C106  C     C_1   0.338451 0.500000 0.000001 0.099320
C107  C     C_1   0.500000 0.661549 0.000002 0.099307
C108  C     C_1   0.161549 0.000001 0.499997 0.099332
C109  C     C_1   1.000000 0.838451 0.500002 0.099347
C110  C     C_1   0.838451 0.000000 0.500003 0.099307
C111  C     C_R   0.500000 0.920450 0.000000 0.829078
C112  C     C_1   1.000000 0.161549 0.499997 0.099311
C113  C     C_1   0.838404 0.500000 0.999999 0.005004
C114  C     C_1   0.500000 0.161596 0.999998 0.005003
C115  C     C_1   0.161596 0.500000 0.000001 0.005006
C116  C     C_1   0.500000 0.838404 0.000002 0.005005
C117  C     C_1   0.338404 0.000001 0.499997 0.005005
C118  C     C_1   1.000000 0.661596 0.500002 0.005009
C119  C     C_1   0.661596 0.000000 0.500003 0.005002
C120  C     C_1   0.000000 0.338404 0.499997 0.005003
C121  C     C_1   0.875855 0.500000 1.000000 -0.151969
C122  C     C_R   0.420450 0.000000 0.500000 0.829079
C123  C     C_1   0.500000 0.124145 0.999999 -0.151970
C124  C     C_1   0.124145 0.500000 0.000001 -0.151967
C125  C     C_1   0.500000 0.875855 0.000001 -0.151970
C126  C     C_1   0.375855 0.000000 0.499999 -0.151967
C127  C     C_1   1.000000 0.624145 0.500001 -0.151965
C128  C     C_1   0.624145 1.000000 0.500001 -0.151971
C129  C     C_1   0.000000 0.375855 0.499999 -0.151971
C130  C     C_1   0.624101 0.500000 1.000000 -0.075584
C131  C     C_1   0.500000 0.375899 0.999999 -0.075584
C132  C     C_1   0.375899 0.500000 0.000000 -0.075575
C133  C     C_R   1.000000 0.579550 0.500000 0.829075
C134  C     C_1   0.500000 0.624101 0.000001 -0.075587
C135  C     C_1   0.124101 0.000001 0.499999 -0.075575
C136  C     C_1   1.000000 0.875899 0.500001 -0.075558
C137  C     C_1   0.875899 0.000000 0.500001 -0.075589
C138  C     C_1   1.000000 0.124101 0.499999 -0.075581
C139  C     C_R   0.500000 0.420475 1.000000 0.819151
C140  C     C_R   0.420475 0.500000 0.000000 0.819146
C141  C     C_R   0.500000 0.579525 0.000000 0.819150
C142  C     C_R   0.579525 0.500000 1.000000 0.819154
C143  C     C_R   1.000000 0.920475 0.500000 0.819121
C144  C     C_R   0.579550 1.000000 0.500000 0.829079
C145  C     C_R   0.920475 0.000000 0.500000 0.819136
C146  C     C_R   1.000000 0.079525 0.500000 0.819144
C147  C     C_R   0.079525 0.000000 0.500000 0.819137
C148  C     C_R   1.000000 0.500000 0.927540 0.809552
C149  C     C_R   0.500000 0.000000 0.927540 0.809554
C150  C     C_R   0.000000 0.500000 0.072460 0.809553
C151  C     C_R   0.500000 1.000000 0.072460 0.809556
C152  C     C_R   0.500000 0.000000 0.427540 0.809553
C153  C     C_R   1.000000 0.500000 0.427540 0.809553
C154  C     C_R   0.500000 0.000000 0.572460 0.809554
C155  C     C_R   1.000000 0.420450 0.500000 0.829077
C156  C     C_R   0.000000 0.500000 0.572460 0.809554
C157  C     C_R   0.961856 0.499848 0.672854 -0.010858
C158  C     C_R   0.499863 0.038144 0.672853 -0.010850
C159  C     C_R   0.038144 0.500154 0.672853 -0.010830
C160  C     C_R   0.500135 0.961856 0.672853 -0.010839
C161  C     C_R   0.961856 0.500082 0.327146 -0.010828
C162  C     C_R   0.499859 0.961856 0.327147 -0.010851
C163  C     C_R   0.038144 0.499920 0.327146 -0.010859
C164  C     C_R   0.500141 0.038144 0.327146 -0.010838
C165  C     C_R   0.461856 0.999864 0.172854 -0.010864
C166  C     C_R   0.771859 0.537531 0.000016 -0.181452
C167  C     C_R   0.999901 0.538144 0.172853 -0.010840
C168  C     C_R   0.538145 0.000136 0.172853 -0.010825
C169  C     C_R   0.000099 0.461856 0.172854 -0.010852
C170  C     C_R   0.461855 0.000157 0.827147 -0.010826
C171  C     C_R   0.999845 0.461856 0.827146 -0.010837
C172  C     C_R   0.538143 0.999843 0.827146 -0.010864
C173  C     C_R   0.000155 0.538144 0.827147 -0.010856
C174  C     C_R   0.962546 0.499854 0.633633 -0.259530
C175  C     C_R   0.499869 0.037454 0.633633 -0.259526
C176  C     C_R   0.037455 0.500147 0.633633 -0.259531
Cu1   Cu    Cu3+1 0.000000 0.540940 0.000000 0.989358
Cu2   Cu    Cu3+1 0.500000 0.500000 0.037330 1.050269
Cu3   Cu    Cu3+1 0.000000 0.000000 0.462670 1.050302
Cu4   Cu    Cu3+1 1.000000 0.000000 0.537330 1.050302
Cu5   Cu    Cu3+1 0.540940 0.000000 0.000000 0.989355
Cu6   Cu    Cu3+1 0.000000 0.459060 0.000000 0.989355
Cu7   Cu    Cu3+1 0.459060 0.000000 0.000000 0.989355
Cu8   Cu    Cu3+1 0.500000 0.040940 0.500000 0.989354
Cu9   Cu    Cu3+1 0.040940 0.500000 0.500000 0.989358
Cu10  Cu    Cu3+1 0.500000 0.959060 0.500000 0.989351
Cu11  Cu    Cu3+1 0.959060 0.500000 0.500000 0.989354
Cu12  Cu    Cu3+1 0.500000 0.500000 0.962670 1.050269
H1    H     H_    0.933484 0.499738 0.618386 0.153938
H2    H     H_    0.999829 0.566517 0.118386 0.153936
H3    H     H_    0.566517 0.000234 0.118386 0.153932
H4    H     H_    0.000171 0.433483 0.118386 0.153938
H5    H     H_    0.433483 0.000270 0.881614 0.153932
H6    H     H_    0.999734 0.433484 0.881614 0.153934
H7    H     H_    0.566516 0.999730 0.881613 0.153939
H8    H     H_    0.000266 0.566516 0.881614 0.153938
H9    H     H_    0.788587 0.433330 0.999967 0.183189
H10   H     H_    0.433334 0.211413 0.000695 0.183189
H11   H     H_    0.211413 0.566620 0.002321 0.183190
H12   H     H_    0.499765 0.066517 0.618386 0.153937
H13   H     H_    0.566669 0.788586 0.999588 0.183191
H14   H     H_    0.788586 0.566670 0.000029 0.183191
H15   H     H_    0.433331 0.788586 0.000421 0.183191
H16   H     H_    0.211413 0.433379 0.997683 0.183189
H17   H     H_    0.566666 0.211413 0.999297 0.183191
H18   H     H_    0.288587 0.933356 0.501639 0.183188
H19   H     H_    0.933469 0.711412 0.503893 0.183188
H20   H     H_    0.711413 0.066661 0.499014 0.183190
H21   H     H_    0.066665 0.288586 0.500783 0.183191
H22   H     H_    0.288587 0.066646 0.498351 0.183190
H23   H     H_    0.066517 0.500263 0.618386 0.153934
H24   H     H_    0.933336 0.288587 0.499207 0.183189
H25   H     H_    0.711414 0.933339 0.500997 0.183189
H26   H     H_    0.066531 0.711412 0.496116 0.183186
H27   H     H_    0.892560 0.499584 0.673852 0.079537
H28   H     H_    0.499627 0.107439 0.673852 0.079522
H29   H     H_    0.107440 0.500413 0.673852 0.079512
H30   H     H_    0.500371 0.892561 0.673852 0.079523
H31   H     H_    0.892560 0.500213 0.326148 0.079511
H32   H     H_    0.499614 0.892561 0.326148 0.079522
H33   H     H_    0.107440 0.499784 0.326148 0.079538
H34   H     H_    0.500234 0.933483 0.618386 0.153935
H35   H     H_    0.500387 0.107439 0.326148 0.079524
H36   H     H_    0.392560 0.999627 0.173852 0.079539
H37   H     H_    0.999728 0.607440 0.173851 0.079523
H38   H     H_    0.607440 0.000373 0.173851 0.079512
H39   H     H_    0.000272 0.392561 0.173852 0.079526
H40   H     H_    0.392560 0.000432 0.826148 0.079512
H41   H     H_    0.999576 0.392561 0.826148 0.079523
H42   H     H_    0.607439 0.999568 0.826148 0.079538
H43   H     H_    0.000424 0.607439 0.826149 0.079524
H44   H     H_    0.933483 0.500139 0.381614 0.153933
H45   H     H_    0.499757 0.933484 0.381614 0.153936
H46   H     H_    0.066517 0.499862 0.381613 0.153939
H47   H     H_    0.500243 0.066516 0.381614 0.153935
H48   H     H_    0.433484 0.999765 0.118387 0.153939
O1    O     O_R   0.940210 0.534560 0.999910 -0.573917
O2    O     O_R   0.034560 0.559790 0.499910 -0.573927
O3    O     O_R   0.559790 0.965440 0.499910 -0.573924
O4    O     O_R   0.965440 0.440210 0.499910 -0.573932
O5    O     O_R   0.440210 0.965440 0.500090 -0.573924
O6    O     O_R   0.034560 0.440210 0.500090 -0.573916
O7    O     O_R   0.559790 0.034560 0.500090 -0.573924
O8    O     O_R   0.965440 0.559790 0.500090 -0.573913
O9    O     O_R   0.000060 0.534560 0.945550 -0.586252
O10   O     O_R   0.534560 0.999940 0.945550 -0.586260
O11   O     O_R   0.999940 0.465440 0.945550 -0.586267
O12   O     O_R   0.534560 0.059790 0.999910 -0.573921
O13   O     O_R   0.465440 0.000060 0.945550 -0.586260
O14   O     O_R   0.000060 0.465440 0.054450 -0.586253
O15   O     O_R   0.534560 0.000060 0.054450 -0.586261
O16   O     O_R   0.999940 0.534560 0.054450 -0.586268
O17   O     O_R   0.465440 0.999940 0.054450 -0.586261
O18   O     O_R   0.500060 0.034560 0.445550 -0.586268
O19   O     O_R   0.034560 0.499940 0.445550 -0.586266
O20   O     O_R   0.499940 0.965440 0.445550 -0.586252
O21   O     O_R   0.965440 0.500060 0.445550 -0.586255
O22   O     O_R   0.500060 0.965440 0.554450 -0.586269
O23   O     O_R   0.059790 0.465440 0.999910 -0.573917
O24   O     O_R   0.034560 0.500060 0.554450 -0.586255
O25   O     O_R   0.499940 0.034560 0.554450 -0.586253
O26   O     O_R   0.965440 0.499940 0.554450 -0.586267
O27   O     O_R   0.500080 0.440090 0.968430 -0.570026
O28   O     O_R   0.440090 0.499920 0.968430 -0.570249
O29   O     O_R   0.499920 0.559910 0.968430 -0.570334
O30   O     O_R   0.559910 0.500080 0.968430 -0.570105
O31   O     O_R   0.500080 0.559910 0.031570 -0.570028
O32   O     O_R   0.440090 0.500080 0.031570 -0.570094
O33   O     O_R   0.499920 0.440090 0.031570 -0.570333
O34   O     O_R   0.465440 0.940210 0.999910 -0.573921
O35   O     O_R   0.559910 0.499920 0.031570 -0.570259
O36   O     O_R   0.000080 0.940090 0.468430 -0.570325
O37   O     O_R   0.940090 0.999920 0.468430 -0.570384
O38   O     O_R   0.999920 0.059910 0.468430 -0.570007
O39   O     O_R   0.059910 0.000080 0.468430 -0.569965
O40   O     O_R   0.000080 0.059910 0.531570 -0.570353
O41   O     O_R   0.940090 0.000080 0.531570 -0.569971
O42   O     O_R   0.999920 0.940090 0.531570 -0.569980
O43   O     O_R   0.059910 0.999920 0.531570 -0.570378
O44   O     O_2   0.916011 0.499634 0.725050 -0.524620
O45   O     O_R   0.940210 0.465440 0.000090 -0.573930
O46   O     O_2   0.499674 0.083989 0.725049 -0.524638
O47   O     O_2   0.083989 0.500379 0.725049 -0.524666
O48   O     O_2   0.500325 0.916011 0.725049 -0.524656
O49   O     O_2   0.916010 0.500204 0.274951 -0.524672
O50   O     O_2   0.499665 0.916011 0.274951 -0.524638
O51   O     O_2   0.083990 0.499808 0.274950 -0.524620
O52   O     O_2   0.500335 0.083989 0.274950 -0.524656
O53   O     O_2   0.416011 0.999675 0.225050 -0.524611
O54   O     O_2   0.999769 0.583990 0.225049 -0.524651
O55   O     O_2   0.583990 0.000324 0.225049 -0.524677
O56   O     O_R   0.534560 0.940210 0.000090 -0.573926
O57   O     O_2   0.000231 0.416011 0.225050 -0.524642
O58   O     O_2   0.416010 0.000370 0.774951 -0.524675
O59   O     O_2   0.999631 0.416012 0.774950 -0.524665
O60   O     O_2   0.583989 0.999630 0.774950 -0.524613
O61   O     O_2   0.000368 0.583989 0.774951 -0.524623
O62   O     O_R   0.059790 0.534560 0.000090 -0.573927
O63   O     O_R   0.465440 0.059790 0.000090 -0.573926
O64   O     O_R   0.440210 0.034560 0.499910 -0.573922

loop_
_geom_bond_atom_site_label_1
_geom_bond_atom_site_label_2
_ccdc_geom_bond_type
C104  C130  T    
C48   C61   A    
Cu7   O13   S    
Cu11  O21   S    
Cu8   O18   S    
C50   C63   A    
C68   C96   A    
C72   C159  S    
Cu8   O7    S    
C52   C65   A    
C30   C165  A    
C46   C98   A    
C20   C152  S    
Cu5   Cu7   S    
Cu9   O6    S    
C84   H41   S    
C118  C127  T    
C100  O62   A    
C28   C37   S    
C75   O50   D    
C30   C39   S    
C105  C131  T    
Cu3   O36   S    
C106  C132  T    
C139  O33   A    
C85   C172  S    
C131  C139  S    
C112  C138  T    
C158  C175  A    
C141  O31   A    
Cu4   O41   S    
C87   H26   S    
C74   C161  S    
C55   C92   A    
C71   O46   D    
C87   C101  A    
C85   H42   S    
C28   C163  A    
C77   C164  S    
C93   C102  A    
C31   C167  A    
C3    H34   S    
C12   H5    S    
C95   C166  A    
C137  C145  S    
Cu1   O1    S    
C23   C149  S    
C66   C109  S    
Cu5   O10   S    
C175  H12   S    
Cu5   O12   S    
C150  O14   A    
C72   O47   D    
C24   C49   A    
Br10  C45   S    
C70   H27   S    
C67   C110  S    
C9    H2    S    
C71   C158  S    
C13   C97   A    
C155  O6    A    
Cu7   O63   S    
C6    C163  A    
C32   C172  A    
C4    C161  A    
C103  C120  S    
C14   C171  A    
Br9   C44   S    
C133  O2    A    
C74   O49   D    
C88   H25   S    
C111  O56   A    
Cu2   O35   S    
C74   H31   S    
C144  O7    A    
Cu3   Cu4   S    
Cu4   O43   S    
C142  O30   A    
C113  C121  T    
Cu8   Cu10  S    
C7    C20   A    
C25   C148  S    
C1    C121  S    
C73   C160  S    
C17   C156  S    
Br4   C55   S    
Cu1   Cu6   S    
C64   C107  S    
C134  C141  S    
C57   C97   A    
C32   C41   S    
C72   H29   S    
C44   C62   A    
C117  C126  T    
C144  O3    A    
C54   C93   A    
C6    H46   S    
C82   C169  S    
Br11  C47   S    
Cu6   O11   S    
Br12  C48   S    
C27   C36   S    
Cu11  O26   S    
Cu9   O2    S    
Cu12  O29   S    
Br8   C60   S    
C86   C173  S    
C11   C169  A    
C30   C168  A    
C83   H40   S    
C2    H17   S    
Cu1   O62   S    
C139  O27   A    
C53   C66   A    
C81   H38   S    
C3    C160  A    
C4    C19   A    
C155  O4    A    
C16   C25   A    
C14   C25   A    
C115  C124  T    
C78   C165  S    
Br2   C53   S    
Cu7   O17   S    
C48   C166  A    
C107  C134  T    
Cu2   Cu12  S    
Cu2   O32   S    
Cu9   Cu11  S    
Cu10  O22   S    
C47   C64   A    
Cu4   O40   S    
C142  O35   A    
C1    O45   A    
C46   H13   S    
Br3   C54   S    
Cu10  O5    S    
C60   C66   A    
C159  C176  A    
Cu6   O23   S    
Cu12  O27   S    
Cu2   O33   S    
C145  O37   A    
C12   C170  A    
C9    C22   A    
C53   C94   A    
C127  C133  S    
Br15  C51   S    
C8    C21   A    
C29   C162  A    
C26   C34   S    
C108  C135  T    
C128  C144  S    
C80   C167  S    
C37   C40   T    
C116  C125  T    
C38   C39   T    
C8    C165  A    
C138  C146  S    
C86   H43   S    
C147  O43   A    
C153  O19   A    
C130  C142  S    
C60   C87   A    
C143  O36   A    
Cu3   O38   S    
C45   C63   A    
C58   C69   A    
C156  O26   A    
C80   H37   S    
C149  O10   A    
C69   C112  S    
C96   C114  S    
C31   C40   S    
C13   H16   S    
Cu4   O42   S    
C90   C103  A    
C77   O52   D    
C10   H3    S    
C61   C104  S    
C21   C151  S    
C2    C96   A    
C140  O28   A    
C146  O40   A    
Br1   C43   S    
C92   H21   S    
C94   H19   S    
C11   C22   A    
C71   H28   S    
C75   C162  S    
C157  C174  A    
C70   O44   D    
C11   H4    S    
Cu9   O19   S    
C62   C105  S    
Cu10  O20   S    
C7    H47   S    
C29   C164  A    
C95   C113  S    
C176  H23   S    
C52   C91   A    
C31   C169  A    
C56   C65   A    
C91   H18   S    
C92   C103  A    
C89   O63   A    
C114  C123  T    
C94   C101  A    
C156  O24   A    
Br6   C58   S    
C88   C102  A    
C63   C106  S    
C81   O55   D    
C34   C42   T    
C8    H48   S    
C84   C171  S    
C153  O21   A    
C122  C126  S    
C140  O32   A    
C99   C117  S    
C12   C23   A    
C45   C57   A    
C26   C157  A    
C17   C174  A    
Cu5   O15   S    
C100  O23   A    
C46   C47   A    
C76   C163  S    
C152  O18   A    
C89   C123  S    
C27   C160  A    
C174  H1    S    
Cu10  O3    S    
C33   C171  A    
C148  O9    A    
C82   O57   D    
C54   C67   A    
C7    C164  A    
C78   H36   S    
C5    C162  A    
C76   O51   D    
C59   C88   A    
C19   C153  S    
C90   H24   S    
Cu11  O8    S    
C81   C168  S    
Cu11  O4    S    
C22   C150  S    
Cu7   O34   S    
Cu1   O16   S    
C145  O41   A    
C146  O38   A    
C10   C21   A    
Br5   C56   S    
C70   C157  S    
C5    H45   S    
C59   C67   A    
C85   O60   D    
C89   O12   A    
Cu12  O30   S    
C36   C41   T    
C110  C137  T    
Cu3   O39   S    
C57   H11   S    
C132  C140  S    
C83   C170  S    
C147  O39   A    
C102  C119  S    
C73   O48   D    
C129  C155  S    
C143  O42   A    
C43   C61   A    
C133  O8    A    
C5    C20   A    
Br13  C49   S    
C6    C19   A    
C1    O1    A    
C17   C176  A    
C18   C175  A    
C77   H35   S    
Cu6   O14   S    
C26   C159  A    
C152  O20   A    
C111  C125  S    
C16   H8    S    
C27   C158  A    
C86   O61   D    
C33   C173  A    
Cu12  O28   S    
C148  O11   A    
C154  O25   A    
Cu8   O64   S    
C80   O54   D    
C55   C69   A    
C56   C79   A    
C24   C98   A    
C79   C99   A    
C78   O53   D    
C15   C172  A    
Br16  C52   S    
C120  C129  T    
C18   C154  S    
C35   H9    S    
C122  O5    A    
C49   C64   A    
C149  O13   A    
C111  O34   A    
C51   C62   A    
C68   H10   S    
C151  O15   A    
C76   H33   S    
C65   C108  S    
C84   O59   D    
Br7   C59   S    
C2    C51   A    
C75   H32   S    
Cu1   O9    S    
C33   C42   S    
C101  C118  S    
C73   H30   S    
C32   C170  A    
C109  C136  T    
C58   C90   A    
Cu3   O37   S    
Br14  C50   S    
C91   C99   A    
C93   H20   S    
C119  C128  T    
Cu6   O45   S    
C29   C38   S    
C166  H14   S    
C135  C147  S    
Cu5   O56   S    
Cu2   O31   S    
C35   C43   A    
C154  O22   A    
C141  O29   A    
C35   C95   A    
C97   C115  S    
C98   C116  S    
C151  O17   A    
C83   O58   D    
C3    C18   A    
C28   C161  A    
C14   H6    S    
C122  O64   A    
C82   H39   S    
C79   H22   S    
C24   H15   S    
C44   C68   A    
C15   C23   A    
C16   C173  A    
C136  C143  S    
Cu9   O24   S    
C13   C50   A    
C4    H44   S    
C15   H7    S    
Cu8   O25   S    
C150  O16   A    
C9    C167  A    
C100  C124  S    
C10   C168  A    
