data_mof_unit_27628.cif
_audit_creation_date              2013-03-05T15:43:18-0500
_audit_creation_method            fapswitch 2.2
_symmetry_space_group_name_H-M    P1
_symmetry_Int_Tables_number       1
_space_group_crystal_system       triclinic
_cell_length_a                    10.58192
_cell_length_b                    10.746029
_cell_length_c                    10.02436
_cell_angle_alpha                 93.357744
_cell_angle_beta                  88.846187
_cell_angle_gamma                 92.10101
_cell_volume                      1136.99948404

loop_
_atom_site_label
_atom_site_type_symbol
_atom_site_description
_atom_site_fract_x
_atom_site_fract_y
_atom_site_fract_z
_atom_type_partial_charge
O1    O     O_R   0.499980 0.319060 0.613040 -0.569966
O2    O     O_R   0.500020 0.319100 0.386900 -0.603576
C1    C     C_R   0.502779 0.262489 0.495476 0.945309
O3    O     O_R   0.316750 0.499980 0.613090 -0.608124
O4    O     O_R   0.316790 0.500020 0.386950 -0.566766
C2    C     C_R   0.261071 0.477019 0.499845 0.946402
Zn1   Zn    Zn3+2 0.499970 0.499970 0.650990 1.066773
Zn2   Zn    Zn3+2 0.500030 0.500030 0.349010 1.075060
O5    O     O_R   0.499980 0.680900 0.613100 -0.532909
O6    O     O_R   0.500020 0.680940 0.386960 -0.586585
O7    O     O_R   0.683210 0.499980 0.613050 -0.610087
O8    O     O_R   0.683250 0.500020 0.386910 -0.556248
C3    C     C_R   0.507883 0.737950 0.503617 0.882904
C4    C     C_R   0.738902 0.481393 0.497736 0.899718
C5    C     C_R   0.117570 0.343140 0.722589 0.357085
C6    C     C_R   0.046855 0.322058 0.839049 -0.143672
H1    H     H_    0.089422 0.281879 0.922739 0.180980
C7    C     C_R   0.916900 0.331973 0.840457 -0.134139
H2    H     H_    0.861547 0.304058 0.926414 0.220126
C8    C     C_R   0.856667 0.362995 0.725949 -0.095292
H3    H     H_    0.755618 0.346737 0.726837 0.186874
C9    C     C_R   0.926642 0.401602 0.612256 0.045528
C10   C     C_R   0.059798 0.396419 0.613412 -0.072978
C11   C     C_R   0.128505 0.431652 0.498001 -0.268844
C12   C     C_R   0.068305 0.417639 0.374847 0.412338
C13   C     C_R   0.937798 0.426201 0.370694 0.197709
C14   C     C_R   0.868467 0.436858 0.493482 -0.287727
C15   C     C_2   0.562483 0.928225 0.399632 -0.328490
C16   C     C_2   0.539828 0.869408 0.512791 0.082105
H4    H     H_    0.566094 0.877358 0.302947 0.237449
C17   C     C_2   0.569865 0.063019 0.397190 0.313859
C18   C     C_2   0.497508 0.129890 0.483900 -0.326131
H5    H     H_    0.432632 0.085429 0.552241 0.226623
C19   C     C_2   0.545256 0.593073 0.930784 0.136863
N1    N     N_2   0.501340 0.501330 0.852150 -0.240301
H6    H     H_    0.488045 0.416113 0.892605 0.178008
C20   C     C_2   0.562391 0.584262 0.081018 0.451203
N2    N     N_2   0.501380 0.501360 0.147810 -0.185650
H7    H     H_    0.439541 0.440612 0.097394 0.127022
O9    O     O_3   0.137840 0.392765 0.258481 -0.557006
C21   C     C_3   0.137559 0.261950 0.231280 0.093929
H8    H     H_    0.051994 0.231613 0.173711 0.197566
H9    H     H_    0.139079 0.208310 0.323426 0.163237
C22   C     C_3   0.254366 0.228372 0.148083 -0.709365
H10   H     H_    0.339959 0.244246 0.209432 0.274341
H11   H     H_    0.247607 0.128554 0.112476 0.239128
H12   H     H_    0.263578 0.287051 0.060938 0.264398
N3    N     N_R   0.579434 0.709229 0.875372 0.244969
O10   O     O_R   0.676867 0.715427 0.794481 -0.365126
O11   O     O_R   0.539188 0.811470 0.934948 -0.299619
O12   O     O_3   0.629362 0.677446 0.155061 -0.581087
C23   C     C_3   0.752842 0.699128 0.103060 0.154550
H13   H     H_    0.753644 0.776521 0.034762 0.218384
H14   H     H_    0.791586 0.615399 0.048448 0.176597
C24   C     C_3   0.839940 0.742101 0.217117 -0.687920
H15   H     H_    0.838967 0.672263 0.294110 0.256586
H16   H     H_    0.938170 0.755577 0.178178 0.228743
H17   H     H_    0.808378 0.831887 0.264566 0.262752
N4    N     N_R   0.231824 0.277170 0.701867 0.211116
O13   O     O_R   0.304803 0.261219 0.801876 -0.403796
O14   O     O_R   0.241878 0.203724 0.594780 -0.457059
N5    N     N_R   0.879402 0.422354 0.241949 0.206518
O15   O     O_R   0.785525 0.344108 0.215717 -0.327506
O16   O     O_R   0.937982 0.473418 0.142540 -0.419247
N6    N     N_R   0.556076 0.930721 0.643092 0.240247
O17   O     O_R   0.462112 0.931659 0.728766 -0.292177
O18   O     O_R   0.659987 0.994384 0.671746 -0.327917
N7    N     N_R   0.646443 0.117899 0.295282 0.244312
O19   O     O_R   0.765291 0.091206 0.285137 -0.374760
O20   O     O_R   0.591583 0.158118 0.191901 -0.327243

loop_
_geom_bond_atom_site_label_1
_geom_bond_atom_site_label_2
_geom_bond_distance
_ccdc_geom_bond_type
O4    Zn2   1.968446 S    
C24   H15   1.107245 S    
C22   H12   1.107622 S    
N5    O15   1.298603 A    
O12   C23   1.413450 S    
C4    C14   1.467646 S    
C19   C20   1.529330 S    
C21   H8    1.111975 S    
C1    C18   1.421972 S    
C17   C18   1.341104 D    
C23   C24   1.522939 S    
Zn2   O8    1.983191 S    
C2    C11   1.468241 S    
C18   H5    1.079002 S    
C5    C10   1.423134 A    
O2    C1    1.278946 A    
C13   N5    1.439852 S    
N4    O13   1.300709 A    
C6    C7    1.382914 A    
C23   H13   1.107447 S    
C11   C12   1.398357 A    
Zn1   O7    1.968447 S    
N3    O11   1.300898 A    
C21   H9    1.117768 S    
C15   C16   1.343741 D    
C13   C14   1.421158 A    
O4    C2    1.297956 A    
Zn2   N2    2.017547 S    
O3    Zn1   1.983190 S    
C16   N6    1.438645 S    
C15   H4    1.085170 S    
O9    C21   1.416087 S    
C21   C22   1.519704 S    
C20   N2    1.291910 D    
O8    C4    1.296977 A    
C19   N1    1.303603 D    
C7    C8    1.387389 A    
C9    C14   1.428137 A    
C24   H16   1.110435 S    
C12   O9    1.384522 S    
C17   N7    1.431866 S    
C20   O12   1.392097 S    
O7    C4    1.295211 A    
N4    O14   1.299574 A    
O3    C2    1.296218 A    
C19   N3    1.427382 S    
Zn2   O6    1.958951 S    
C8    C9    1.420629 A    
C10   C11   1.416926 A    
C5    C6    1.399131 A    
Zn1   N1    2.016036 S    
N2    H7    1.026221 S    
C8    H3    1.077082 S    
N7    O20   1.301105 A    
N6    O17   1.300649 A    
N3    O10   1.300998 A    
C24   H17   1.110026 S    
C3    C16   1.438513 S    
Zn1   O5    2.002742 S    
O5    C3    1.287905 A    
C9    C10   1.412495 A    
C7    H2    1.082869 S    
N5    O16   1.301018 A    
C22   H11   1.110692 S    
N6    O18   1.301594 A    
C12   C13   1.389058 A    
O1    Zn1   1.958951 S    
C5    N4    1.429312 S    
N7    O19   1.300828 A    
C15   C17   1.449359 S    
O2    Zn2   2.002742 S    
C22   H10   1.107468 S    
N1    H6    1.026933 S    
C23   H14   1.112492 S    
C6    H1    1.079370 S    
O1    C1    1.294334 A    
O6    C3    1.290745 A    
