data_mof_unit_15559.cif
_audit_creation_date              2012-12-10T19:18:35-0500
_audit_creation_method            fapswitch 2.2
_symmetry_space_group_name_H-M    P1
_symmetry_Int_Tables_number       1
_space_group_crystal_system       triclinic
_cell_length_a                    15.762181
_cell_length_b                    15.002596
_cell_length_c                    10.474897
_cell_angle_alpha                 90.142296
_cell_angle_beta                  90.060509
_cell_angle_gamma                 91.182913
_cell_volume                      2476.49990407

loop_
_atom_site_label
_atom_site_type_symbol
_atom_type_description
_atom_site_fract_x
_atom_site_fract_y
_atom_site_fract_z
_atom_type_partial_charge
C1    C     C_R   0.337993 0.499050 0.500570 0.906172
C2    C     C_3   0.500848 0.499803 0.122189 0.035655
C3    C     C_3   0.052855 0.592399 0.547441 -0.140125
C4    C     C_3   0.045993 0.430001 0.604331 -0.166996
C5    C     C_3   0.947195 0.433650 0.606719 0.366365
C6    C     C_3   0.954625 0.597874 0.536447 0.383395
C7    C     C_1   0.750769 0.503050 0.503163 -0.217005
C8    C     C_3   0.082322 0.497806 0.501286 0.093540
C9    C     C_3   0.917342 0.502875 0.506391 0.056283
C10   C     C_3   0.947606 0.472316 0.372392 -0.778646
C11   C     C_3   0.047562 0.474393 0.362995 0.971084
C12   C     C_1   0.825900 0.504053 0.505155 0.024169
C13   C     C_1   0.174060 0.495747 0.502378 0.059657
C14   C     C_R   0.500420 0.499906 0.256913 0.871125
C15   C     C_1   0.249269 0.496642 0.501803 -0.209967
C16   C     C_3   0.423713 0.049787 0.417642 0.186873
C17   C     C_3   0.422049 0.944648 0.425591 0.232016
C18   C     C_3   0.495033 0.053948 0.633666 0.317974
C19   C     C_3   0.498507 0.949008 0.636576 0.290905
C20   C     C_3   0.501652 0.090063 0.494010 -0.050042
C21   C     C_3   0.502031 0.910211 0.497279 -0.044485
C22   C     C_3   0.582368 0.948941 0.424837 0.057818
C23   C     C_3   0.584586 0.054618 0.429054 0.031247
C24   C     C_1   0.499737 0.809209 0.497777 0.102155
C25   C     C_1   0.499478 0.190867 0.495506 0.084729
C26   C     C_R   0.662126 0.500898 0.500760 0.901572
C27   C     C_R   0.500419 0.500111 0.743261 0.864851
C28   C     C_3   0.430421 0.539984 0.041962 -0.174276
C29   C     C_3   0.501814 0.415306 0.040697 -0.143416
C30   C     C_3   0.431317 0.455455 0.957831 -0.187350
C31   C     C_3   0.500755 0.500262 0.877843 0.032467
C32   C     C_3   0.499902 0.584796 0.959121 -0.153460
C33   C     C_3   0.571230 0.460178 0.957908 -0.175500
C34   C     C_3   0.570349 0.544680 0.042140 -0.179289
H1    H     H_    0.375028 0.419355 0.918002 0.135074
H2    H     H_    0.914080 0.508827 0.296967 0.183040
H3    H     H_    0.924030 0.402510 0.357994 0.199050
H4    H     H_    0.365650 0.922983 0.483336 0.003686
H5    H     H_    0.363881 0.071683 0.463855 0.017708
H6    H     H_    0.430949 0.073383 0.669043 -0.049365
H7    H     H_    0.437424 0.925988 0.680968 -0.025035
H8    H     H_    0.583314 0.077716 0.328203 0.175564
H9    H     H_    0.574448 0.930353 0.322536 0.180727
H10   H     H_    0.373511 0.572595 0.081512 0.141368
H11   H     H_    0.503216 0.347113 0.080379 0.136620
H12   H     H_    0.499242 0.652344 0.916962 0.146079
H13   H     H_    0.628091 0.427548 0.918417 0.133702
H14   H     H_    0.626590 0.581024 0.081683 0.130842
H15   H     H_    0.069427 0.597203 0.650852 0.203658
H16   H     H_    0.070194 0.452729 0.699308 0.181677
H17   H     H_    0.918251 0.368225 0.576827 0.083033
H18   H     H_    0.938657 0.641879 0.454705 0.055949
N1    N     N_1   0.498630 0.731150 0.497460 -0.115855
N2    N     N_1   0.498630 0.268850 0.497460 -0.110931
O1    O     O_R   0.377210 0.574260 0.500130 -0.616194
O2    O     O_R   0.377210 0.425740 0.500130 -0.613489
O3    O     O_R   0.500050 0.574220 0.314080 -0.617622
O4    O     O_R   0.500050 0.425780 0.314080 -0.628235
O5    O     O_R   0.622930 0.574200 0.500140 -0.616321
O6    O     O_R   0.622930 0.425800 0.500140 -0.607517
O7    O     O_R   0.500090 0.574240 0.686180 -0.632190
O8    O     O_R   0.500090 0.425760 0.686180 -0.618081
Zn1   Zn    Zn3+2 0.500090 0.599130 0.500180 0.942556
Zn2   Zn    Zn3+2 0.500090 0.400870 0.500180 0.952504
O9    O     O_3   0.561237 0.092709 0.709038 -0.588978
C35   C     C_3   0.531330 0.123595 0.827825 0.131704
H19   H     H_    0.489100 0.073097 0.873964 0.122099
H20   H     H_    0.495142 0.185780 0.814061 0.129245
C36   C     C_3   0.607589 0.143570 0.914597 -0.331593
H21   H     H_    0.654589 0.089705 0.905131 0.238809
H22   H     H_    0.638759 0.207303 0.884651 0.217716
C37   C     C_3   0.581376 0.150085 0.054330 -0.984986
H23   H     H_    0.530769 0.199481 0.065749 0.264956
H24   H     H_    0.636864 0.171043 0.113377 0.265373
H25   H     H_    0.557435 0.084275 0.088727 0.285424
O10   O     O_3   0.569839 0.921625 0.708857 -0.592859
C38   C     C_3   0.549780 0.852696 0.796942 0.099460
H26   H     H_    0.606267 0.809894 0.804007 0.156951
H27   H     H_    0.496268 0.808039 0.765784 0.115671
C39   C     C_3   0.531936 0.892495 0.928807 -0.360997
H28   H     H_    0.584185 0.940017 0.954580 0.241310
H29   H     H_    0.471303 0.928709 0.925949 0.203338
C40   C     C_3   0.525013 0.821352 0.032163 -0.944802
H30   H     H_    0.464897 0.782298 0.020849 0.259563
H31   H     H_    0.524391 0.853916 0.127146 0.301138
H32   H     H_    0.580078 0.776389 0.028791 0.253709
C41   C     C_3   0.667844 0.097010 0.482291 -0.796361
H33   H     H_    0.721272 0.082856 0.416826 0.206810
H34   H     H_    0.663829 0.170628 0.488174 0.237972
H35   H     H_    0.684214 0.071235 0.577927 0.301043
C42   C     C_3   0.666409 0.904335 0.461475 -0.877933
H36   H     H_    0.661520 0.830899 0.449639 0.236225
H37   H     H_    0.717920 0.927618 0.396709 0.219764
H38   H     H_    0.685467 0.919124 0.560957 0.301922
O11   O     O_3   0.427883 0.074883 0.286707 -0.602942
C43   C     C_3   0.384406 0.154097 0.258435 0.111561
H39   H     H_    0.431838 0.209711 0.252026 0.161805
H40   H     H_    0.335727 0.172800 0.330110 0.112482
C44   C     C_3   0.340299 0.142452 0.129149 -0.340289
H41   H     H_    0.384390 0.111803 0.059729 0.228248
H42   H     H_    0.284347 0.096823 0.140331 0.207910
C45   C     C_3   0.311581 0.231356 0.075601 -0.991600
H43   H     H_    0.271937 0.266854 0.145975 0.276699
H44   H     H_    0.274145 0.219574 0.987125 0.264459
H45   H     H_    0.367547 0.273929 0.051622 0.260817
O12   O     O_3   0.420047 0.906912 0.300766 -0.607648
C46   C     C_3   0.337548 0.879339 0.262653 0.136158
H46   H     H_    0.333431 0.888878 0.157684 0.163123
H47   H     H_    0.286512 0.920247 0.305398 0.112765
C47   C     C_3   0.323745 0.780179 0.292419 -0.351358
H48   H     H_    0.378620 0.742060 0.256469 0.246549
H49   H     H_    0.319449 0.770692 0.397404 0.215851
C48   C     C_3   0.242978 0.743167 0.230064 -1.004614
H50   H     H_    0.186964 0.779645 0.265090 0.262238
H51   H     H_    0.234953 0.671457 0.254223 0.294223
H52   H     H_    0.246961 0.749444 0.124588 0.260266
O13   O     O_3   0.921789 0.629428 0.654453 -0.611863
C49   C     C_3   0.868551 0.703507 0.639483 0.112308
H53   H     H_    0.823640 0.703083 0.721161 0.168401
H54   H     H_    0.828704 0.699485 0.551582 0.118788
C50   C     C_3   0.921174 0.790411 0.643787 -0.383938
H55   H     H_    0.961177 0.791569 0.731278 0.234445
H56   H     H_    0.963064 0.794293 0.558944 0.215158
C51   C     C_3   0.864994 0.871805 0.643492 -0.972179
H57   H     H_    0.831247 0.875656 0.550900 0.269038
H58   H     H_    0.904884 0.933149 0.655227 0.265453
H59   H     H_    0.818285 0.868336 0.722776 0.271352
O14   O     O_3   0.917863 0.458996 0.729529 -0.608016
C52   C     C_3   0.911371 0.386326 0.815280 0.071405
H60   H     H_    0.965622 0.390750 0.883024 0.147685
H61   H     H_    0.912421 0.319434 0.768882 0.120712
C53   C     C_3   0.828286 0.393838 0.889426 -0.319870
H62   H     H_    0.826790 0.459455 0.938844 0.229324
H63   H     H_    0.774242 0.389993 0.821211 0.219554
C54   C     C_3   0.817672 0.319753 0.988015 -1.009837
H64   H     H_    0.819007 0.253372 0.940927 0.269797
H65   H     H_    0.755731 0.326373 0.037226 0.270574
H66   H     H_    0.869008 0.324591 0.060440 0.261878
C55   C     C_3   0.075959 0.332781 0.593651 -0.901582
H67   H     H_    0.062401 0.297354 0.684595 0.216106
H68   H     H_    0.042167 0.295214 0.517037 0.274100
H69   H     H_    0.145344 0.330007 0.577049 0.269102
C56   C     C_3   0.099212 0.674869 0.489704 -0.936116
H70   H     H_    0.095141 0.731737 0.557169 0.233002
H71   H     H_    0.167751 0.663966 0.474975 0.274901
H72   H     H_    0.071123 0.696724 0.398966 0.238811
O15   O     O_3   0.087903 0.534452 0.273083 -0.664989
C57   C     C_3   0.037853 0.594381 0.201964 0.033195
H73   H     H_    0.080236 0.652009 0.178572 0.186843
H74   H     H_    0.985552 0.624174 0.256243 0.114574
C58   C     C_3   0.007510 0.554573 0.074351 -0.400277
H75   H     H_    0.061450 0.522992 0.024657 0.224814
H76   H     H_    0.956907 0.503590 0.090103 0.205354
C59   C     C_3   0.971347 0.626189 0.987875 -0.911016
H77   H     H_    0.917626 0.659484 0.035647 0.250505
H78   H     H_    0.947709 0.594923 0.898352 0.326519
H79   H     H_    0.021153 0.676733 0.963381 0.256140
O16   O     O_3   0.075382 0.386524 0.335757 -0.663027
C60   C     C_3   0.064327 0.360904 0.206794 0.105342
H80   H     H_    0.113550 0.394454 0.146809 0.180264
H81   H     H_    0.000119 0.376400 0.171234 0.120101
C61   C     C_3   0.074344 0.260134 0.196187 -0.353647
H82   H     H_    0.136386 0.241178 0.237218 0.232411
H83   H     H_    0.023396 0.225973 0.252096 0.217110
C62   C     C_3   0.069129 0.228967 0.057484 -0.998144
H84   H     H_    0.005696 0.243029 0.016955 0.264197
H85   H     H_    0.079322 0.156032 0.052696 0.270922
H86   H     H_    0.118561 0.263387 0.999133 0.264429

loop_
_geom_bond_atom_site_label_1
_geom_bond_atom_site_label_2
_ccdc_geom_bond_type
C54   H66   S    
C35   H20   S    
C41   H33   S    
C8    C13   S    
C56   H72   S    
N1    Zn1   S    
O11   C43   S    
C57   C58   S    
C4    C8    S    
C3    C6    S    
O14   C52   S    
C6    C9    S    
C3    H15   S    
C54   H64   S    
C38   H26   S    
C18   O9    S    
C62   H84   S    
C7    C26   S    
C30   H1    S    
C10   H3    S    
C19   O10   S    
C19   C21   S    
C1    O2    A    
C57   H74   S    
C61   H82   S    
C39   C40   S    
C60   H80   S    
C30   C31   S    
C55   H69   S    
C35   C36   S    
O12   C46   S    
C56   H70   S    
C43   C44   S    
C29   C33   S    
C45   H45   S    
O7    Zn1   S    
C18   C19   S    
C58   C59   S    
C36   H22   S    
C18   H6    S    
C47   H48   S    
C50   C51   S    
O8    Zn2   S    
C27   O7    A    
C49   H53   S    
C56   H71   S    
O15   C57   S    
C16   C17   S    
C43   H40   S    
C58   H75   S    
O2    Zn2   S    
C1    C15   S    
C26   O5    A    
C6    O13   S    
C59   H78   S    
C41   H35   S    
C37   H23   S    
C52   C53   S    
C2    C34   S    
C35   H19   S    
C62   H85   S    
C23   C41   S    
C21   C22   S    
C46   H47   S    
C36   H21   S    
C37   H25   S    
O3    Zn1   S    
C61   H83   S    
C38   H27   S    
O4    Zn2   S    
C7    C12   T    
C14   O4    A    
C27   C31   S    
C53   C54   S    
C28   C32   S    
C3    C56   S    
O10   C38   S    
C59   H79   S    
C37   H24   S    
C3    C8    S    
C42   H36   S    
C39   H28   S    
C24   N1    T    
C28   H10   S    
C17   C21   S    
O1    Zn1   S    
C49   C50   S    
C32   C34   S    
C36   C37   S    
C5    C9    S    
C29   C30   S    
C27   O8    A    
C42   H37   S    
C61   C62   S    
C22   H9    S    
C20   C23   S    
C16   C20   S    
C43   H39   S    
C40   H32   S    
C31   C33   S    
C33   C34   S    
C50   H55   S    
C60   C61   S    
C57   H73   S    
C45   H44   S    
C23   H8    S    
C47   C48   S    
C59   H77   S    
C25   N2    T    
C51   H59   S    
C49   H54   S    
C39   H29   S    
C44   H42   S    
C42   H38   S    
C62   H86   S    
C13   C15   T    
O16   C60   S    
C33   H13   S    
C46   C47   S    
C40   H30   S    
C34   H14   S    
C46   H46   S    
C51   H58   S    
C48   H50   S    
C9    C10   S    
C38   C39   S    
C54   H65   S    
C14   O3    A    
C16   O11   S    
C40   H31   S    
C32   H12   S    
C31   C32   S    
C4    C5    S    
C22   C42   S    
C2    C28   S    
C55   H67   S    
O5    Zn1   S    
C44   H41   S    
O6    Zn2   S    
C6    H18   S    
C48   H52   S    
C28   C30   S    
C60   H81   S    
C52   H60   S    
O13   C49   S    
C4    C55   S    
C55   H68   S    
C11   O15   S    
N2    Zn2   S    
C8    C11   S    
C5    O14   S    
C53   H62   S    
C18   C20   S    
C17   H4    S    
C58   H76   S    
C1    O1    A    
C45   H43   S    
C2    C14   S    
C9    C12   S    
C47   H49   S    
C50   H56   S    
C10   C11   S    
C16   H5    S    
C44   C45   S    
C2    C29   S    
C53   H63   S    
O9    C35   S    
C20   C25   S    
C21   C24   S    
C4    H16   S    
C41   H34   S    
C22   C23   S    
C5    H17   S    
C10   H2    S    
C48   H51   S    
C17   O12   S    
C26   O6    A    
C29   H11   S    
C19   H7    S    
C11   O16   S    
C51   H57   S    
C52   H61   S    
