data_mof_unit_44365.cif
_audit_creation_date              2012-12-10T16:57:42-0500
_audit_creation_method            fapswitch 2.2
_symmetry_space_group_name_H-M    P1
_symmetry_Int_Tables_number       1
_space_group_crystal_system       triclinic
_cell_length_a                    7.763549
_cell_length_b                    8.604461
_cell_length_c                    19.095441
_cell_angle_alpha                 91.496947
_cell_angle_beta                  85.891734
_cell_angle_gamma                 93.009197
_cell_volume                      1270.24516659

loop_
_atom_site_label
_atom_site_type_symbol
_atom_type_description
_atom_site_fract_x
_atom_site_fract_y
_atom_site_fract_z
_atom_type_partial_charge
C1    C     C_R   0.544748 0.794273 0.499607 0.875636
C2    C     C_R   0.610645 0.412447 0.174647 -0.170026
C3    C     C_R   0.562266 0.556771 0.853272 -0.043503
C4    C     C_R   0.486783 0.496464 0.144329 -0.050054
C5    C     C_R   0.684779 0.476108 0.810119 0.026190
C6    C     C_R   0.355275 0.567521 0.186694 0.015364
C7    C     C_R   0.659162 0.457738 0.738839 -0.267229
C8    C     C_R   0.360317 0.563272 0.259425 -0.250157
C9    C     C_R   0.514448 0.516645 0.710525 -0.152853
C10   C     C_R   0.489219 0.484809 0.289718 -0.162354
C11   C     C_R   0.504454 0.513212 0.068755 0.272871
C12   C     C_R   0.455259 0.205725 0.500347 0.855460
C13   C     C_R   0.554918 0.546567 0.929111 0.267245
C14   C     C_R   0.840282 0.411731 0.837867 0.138927
C15   C     C_R   0.886671 0.259289 0.819435 -0.150751
C16   C     C_R   0.031339 0.198363 0.846240 -0.123429
C17   C     C_R   0.130498 0.288351 0.891905 -0.102137
C18   C     C_R   0.085722 0.439689 0.910537 -0.160278
C19   C     C_R   0.942857 0.502076 0.883065 -0.122075
C20   C     C_R   0.208445 0.640815 0.156892 0.148380
C21   C     C_R   0.106804 0.556997 0.109251 -0.123234
C22   C     C_R   0.966886 0.625046 0.082134 -0.157259
C23   C     C_2   0.564791 0.957102 0.509211 0.189164
C24   C     C_R   0.926126 0.776464 0.102698 -0.097147
C25   C     C_R   0.025492 0.860311 0.150397 -0.117577
C26   C     C_R   0.165920 0.792910 0.177560 -0.141451
C27   C     C_2   0.435270 0.042899 0.490688 0.185401
C28   C     C_R   0.502742 0.502927 0.634673 0.882865
C29   C     C_R   0.496878 0.494578 0.365550 0.844991
C30   C     C_R   0.395693 0.600762 0.754076 0.431366
C31   C     C_R   0.610150 0.401399 0.246793 0.446582
C32   C     C_R   0.424873 0.624982 0.824321 -0.182394
H1    H     H_    0.331257 0.687354 0.857505 0.167966
H2    H     H_    0.162346 0.509101 0.946054 0.149926
H3    H     H_    0.911852 0.620518 0.897340 0.131789
H4    H     H_    0.135337 0.438792 0.093399 0.131223
H5    H     H_    0.889667 0.560087 0.045354 0.152527
H6    H     H_    0.817428 0.828691 0.081758 0.149792
H7    H     H_    0.993708 0.977617 0.166341 0.153369
H8    H     H_    0.242022 0.859521 0.214320 0.139054
H9    H     H_    0.776411 0.938403 0.558168 0.365656
H10   H     H_    0.223725 0.061617 0.441698 0.363836
H11   H     H_    0.936878 0.304677 0.411459 0.349537
H12   H     H_    0.709346 0.354853 0.142035 0.170113
H13   H     H_    0.063104 0.695215 0.588591 0.352405
H14   H     H_    0.753503 0.397384 0.705122 0.188117
H15   H     H_    0.263229 0.621699 0.292556 0.194277
H16   H     H_    0.181745 0.574205 0.710755 0.349297
H17   H     H_    0.676301 0.261715 0.316851 0.328318
H18   H     H_    0.809693 0.186754 0.785076 0.141859
H19   H     H_    0.065886 0.080886 0.831957 0.152305
H20   H     H_    0.241949 0.240849 0.912884 0.150627
N1    N     N_R   0.503542 0.667864 0.970739 -0.185623
N2    N     N_R   0.555888 0.392254 0.027090 -0.186777
N3    N     N_R   0.480170 0.651751 0.039742 -0.167935
N4    N     N_R   0.579341 0.408386 0.958244 -0.167296
N5    N     N_2   0.950330 0.457950 0.481240 0.192094
N6    N     N_2   0.049670 0.542050 0.518760 0.187373
O1    O     O_R   0.389250 0.738570 0.504600 -0.571190
O2    O     O_3   0.728502 0.307860 0.272818 -0.763885
O3    O     O_3   0.703936 0.021911 0.543832 -0.760368
O4    O     O_3   0.296173 0.978094 0.456040 -0.763300
O5    O     O_3   0.030981 0.359732 0.436076 -0.652666
O6    O     O_3   0.969003 0.640164 0.563971 -0.660007
O7    O     O_R   0.610750 0.261430 0.495400 -0.585423
O8    O     O_R   0.678400 0.711620 0.492580 -0.594615
O9    O     O_R   0.321600 0.288380 0.507420 -0.596398
O10   O     O_R   0.355380 0.513500 0.607880 -0.635266
O11   O     O_R   0.644620 0.486500 0.392120 -0.621241
O12   O     O_R   0.644530 0.486550 0.595850 -0.574340
O13   O     O_R   0.355470 0.513450 0.404150 -0.569157
O14   O     O_3   0.252242 0.662744 0.729755 -0.767345
Zn1   Zn    Zn3+2 0.306930 0.517990 0.508030 1.077719
Zn2   Zn    Zn3+2 0.693070 0.482010 0.491970 1.077122

loop_
_geom_bond_atom_site_label_1
_geom_bond_atom_site_label_2
_ccdc_geom_bond_type
N5    Zn2   S    
O12   Zn2   S    
C2    C4    A    
C24   C25   A    
N2    N4    A    
C1    C23   S    
O9    Zn1   S    
C27   O4    S    
C23   C27   D    
C6    C20   S    
C12   O7    A    
O1    Zn1   S    
H13   O6    S    
C24   H6    S    
C3    C13   S    
C16   H19   S    
H9    O3    S    
C13   N4    A    
C32   H1    S    
C1    O1    A    
C17   C18   A    
C5    C14   S    
C8    H15   S    
H11   O5    S    
O11   Zn2   S    
C21   H4    S    
C19   H3    S    
C21   C22   A    
C25   H7    S    
C4    C11   S    
C30   C32   A    
H17   O2    S    
C10   C29   S    
C26   H8    S    
N5    N6    D    
C11   N2    A    
C20   C26   A    
C9    C30   A    
H16   O14   S    
C18   H2    S    
C10   C31   A    
C17   H20   S    
C8    C10   A    
C2    C31   A    
C28   O10   A    
N5    O5    S    
C13   N1    A    
C25   C26   A    
N1    N3    A    
N6    O6    S    
C3    C32   A    
C12   O9    A    
C22   C24   A    
C12   C27   S    
C15   C16   A    
O8    Zn2   S    
C7    H14   S    
C7    C9    A    
C23   O3    S    
C11   N3    A    
C20   C21   A    
C9    C28   S    
C4    C6    A    
C18   C19   A    
C15   H18   S    
O13   Zn1   S    
C5    C7    A    
C29   O11   A    
H10   O4    S    
C14   C15   A    
C16   C17   A    
C6    C8    A    
C31   O2    S    
C29   O13   A    
O10   Zn1   S    
C22   H5    S    
C14   C19   A    
C28   O12   A    
O7    Zn2   S    
N6    Zn1   S    
C2    H12   S    
C30   O14   S    
C3    C5    A    
C1    O8    A    
