data_mof_unit_61667.cif
_audit_creation_date              2012-12-10T16:53:59-0500
_audit_creation_method            fapswitch 2.2
_symmetry_space_group_name_H-M    P1
_symmetry_Int_Tables_number       1
_space_group_crystal_system       monoclinic
_cell_length_a                    18.529451
_cell_length_b                    18.538024
_cell_length_c                    43.050696
_cell_angle_alpha                 90.0
_cell_angle_beta                  90.0
_cell_angle_gamma                 90.00398
_cell_volume                      14787.8885261

loop_
_atom_site_label
_atom_site_type_symbol
_atom_type_description
_atom_site_fract_x
_atom_site_fract_y
_atom_site_fract_z
_atom_type_partial_charge
C1    C     C_R   0.500000 0.000000 0.584139 0.786688
C2    C     C_R   1.000000 0.500000 0.281376 0.300915
C3    C     C_R   0.027082 0.559289 0.331856 -0.197148
C4    C     C_R   0.940651 0.526991 0.831852 -0.196671
C5    C     C_R   0.458483 0.949641 0.832322 -0.193343
C6    C     C_R   0.059349 0.473008 0.831852 -0.196671
C7    C     C_R   0.541517 0.050359 0.832322 -0.193343
C8    C     C_R   0.500000 1.000000 0.315516 0.053120
C9    C     C_R   1.000000 0.500000 0.315517 0.053117
C10   C     C_R   1.000000 0.500000 0.815512 0.053160
C11   C     C_R   0.500000 0.000000 0.815836 0.047107
C12   C     C_R   0.500000 1.000000 0.381154 -0.101357
C13   C     C_R   1.000000 0.500000 0.781372 0.301162
C14   C     C_R   0.000000 0.500000 0.381156 -0.101288
C15   C     C_R   1.000000 0.500000 0.881152 -0.101328
C16   C     C_R   0.500000 0.000000 0.881460 -0.091290
C17   C     C_1   0.109876 0.788936 0.483598 0.252525
C18   C     C_1   0.211073 0.110187 0.483315 0.251672
C19   C     C_1   0.890126 0.211064 0.483600 0.252521
C20   C     C_1   0.788927 0.889813 0.483315 0.251672
C21   C     C_1   0.858505 0.762540 0.456642 0.273464
C22   C     C_1   0.763058 0.141136 0.456873 0.273323
C23   C     C_1   0.141495 0.237460 0.456642 0.273465
C24   C     C_R   0.500000 0.000000 0.781509 0.309698
C25   C     C_1   0.236946 0.858860 0.456871 0.273323
C26   C     C_1   0.609803 0.289009 0.983796 0.249719
C27   C     C_1   0.710922 0.609847 0.983770 0.251089
C28   C     C_1   0.390200 0.710990 0.983799 0.249713
C29   C     C_1   0.289078 0.390152 0.983770 0.251088
C30   C     C_1   0.359195 0.263298 0.957015 0.274306
C31   C     C_1   0.263290 0.640918 0.956978 0.275290
C32   C     C_1   0.640804 0.736702 0.957015 0.274307
C33   C     C_1   0.736717 0.359075 0.956974 0.275288
C34   C     C_1   0.378729 0.060742 0.379359 0.213038
C35   C     C_R   0.943110 0.468087 0.667957 -0.196900
C36   C     C_1   0.939178 0.378803 0.379360 0.213092
C37   C     C_1   0.621271 0.939258 0.379359 0.213038
C38   C     C_1   0.060822 0.621197 0.379360 0.213092
C39   C     C_1   0.878673 0.560632 0.879354 0.213503
C40   C     C_1   0.412281 0.897400 0.880298 0.199118
C41   C     C_1   0.121327 0.439367 0.879354 0.213502
C42   C     C_1   0.587719 0.102600 0.880298 0.199117
C43   C     C_1   0.884499 0.429286 0.620317 0.203931
C44   C     C_1   0.408796 0.900586 0.619582 0.192938
C45   C     C_1   0.115500 0.570714 0.620317 0.203931
C46   C     C_R   0.456815 0.951052 0.667602 -0.194133
C47   C     C_1   0.591204 0.099414 0.619582 0.192938
C48   C     C_1   0.384343 0.929536 0.120324 0.203806
C49   C     C_1   0.070571 0.384452 0.120322 0.203836
C50   C     C_1   0.615657 0.070464 0.120324 0.203805
C51   C     C_1   0.929429 0.615548 0.120322 0.203836
C52   C     C_R   0.056889 0.531913 0.667957 -0.196901
C53   C     C_R   0.543185 0.048948 0.667602 -0.194133
C54   C     C_R   0.443044 0.968208 0.167961 -0.197214
C55   C     C_R   0.031841 0.443094 0.167959 -0.197221
C56   C     C_R   0.556956 0.031792 0.167961 -0.197214
C57   C     C_R   0.000000 0.500000 0.584231 0.783399
C58   C     C_R   0.968159 0.556906 0.167959 -0.197220
C59   C     C_R   0.942928 0.467029 0.635518 -0.022957
C60   C     C_R   0.456424 0.950675 0.635145 -0.022319
C61   C     C_R   0.057072 0.532971 0.635518 -0.022957
C62   C     C_R   0.543575 0.049325 0.635145 -0.022319
C63   C     C_R   0.442858 0.967150 0.135522 -0.022353
C64   C     C_R   0.032900 0.442910 0.135520 -0.022346
C65   C     C_R   0.557142 0.032850 0.135522 -0.022352
C66   C     C_R   0.967100 0.557090 0.135520 -0.022346
C67   C     C_R   1.000000 0.500000 0.618717 -0.099701
C68   C     C_R   0.000000 0.500000 0.084228 0.783000
C69   C     C_R   0.500000 0.000000 0.618483 -0.091583
C70   C     C_R   0.500000 1.000000 0.118720 -0.099602
C71   C     C_R   1.000000 0.500000 0.118717 -0.099540
C72   C     C_R   1.000000 0.500000 0.684302 0.052283
C73   C     C_R   0.500000 0.000000 0.684090 0.046663
C74   C     C_R   0.500000 1.000000 0.184306 0.052389
C75   C     C_R   1.000000 0.500000 0.184304 0.052396
C76   C     C_R   0.500000 1.000000 0.415708 0.779248
C77   C     C_R   1.000000 0.500000 0.415711 0.779092
C78   C     C_R   0.000000 0.500000 0.915707 0.779691
C79   C     C_R   0.500000 0.000000 0.084232 0.783156
C80   C     C_R   0.500000 0.000000 0.915826 0.783215
C81   C     C_R   0.360772 0.137947 0.500270 0.861073
C82   C     C_R   0.862064 0.360765 0.500289 0.862592
C83   C     C_R   0.639227 0.862053 0.500270 0.861073
C84   C     C_R   0.137936 0.639235 0.500289 0.862591
C85   C     C_R   0.639049 0.138378 0.500042 0.863639
C86   C     C_R   0.138415 0.360988 0.500027 0.861259
C87   C     C_R   0.360951 0.861622 0.500042 0.863640
C88   C     C_R   0.861585 0.639012 0.500027 0.861259
C89   C     C_R   0.860765 0.637932 0.000281 0.862588
C90   C     C_R   1.000000 0.500000 0.718441 0.301200
C91   C     C_R   0.362059 0.860773 0.000285 0.863809
C92   C     C_R   0.139235 0.362068 0.000281 0.862588
C93   C     C_R   0.637941 0.139227 0.000285 0.863810
C94   C     C_R   0.139042 0.638388 0.000037 0.861397
C95   C     C_R   0.638393 0.860960 0.000044 0.861322
C96   C     C_R   0.860958 0.361612 0.000037 0.861397
C97   C     C_R   0.361607 0.139040 0.000044 0.861321
C98   C     C_2   0.182301 0.761697 0.489222 -0.035698
C99   C     C_2   0.238402 0.182507 0.489046 -0.035781
C100  C     C_2   0.817700 0.238302 0.489223 -0.035696
C101  C     C_R   0.500000 1.000000 0.718416 0.309325
C102  C     C_2   0.761598 0.817492 0.489046 -0.035780
C103  C     C_2   0.810809 0.756694 0.483324 -0.042026
C104  C     C_2   0.756968 0.188995 0.483482 -0.045046
C105  C     C_2   0.189191 0.243306 0.483324 -0.042026
C106  C     C_2   0.243034 0.811003 0.483480 -0.045046
C107  C     C_2   0.682265 0.261723 0.989283 -0.035418
C108  C     C_2   0.738220 0.682267 0.989294 -0.036540
C109  C     C_2   0.317737 0.738275 0.989285 -0.035416
C110  C     C_2   0.261780 0.317732 0.989294 -0.036540
C111  C     C_2   0.311120 0.257039 0.983550 -0.042661
C112  C     C_R   0.500000 1.000000 0.218445 0.301086
C113  C     C_2   0.257039 0.688938 0.983525 -0.042495
C114  C     C_2   0.688880 0.742961 0.983550 -0.042661
C115  C     C_2   0.742964 0.311059 0.983523 -0.042494
C116  C     C_2   0.194522 0.693552 0.498975 -0.349769
C117  C     C_2   0.306523 0.194582 0.498900 -0.355534
C118  C     C_2   0.805478 0.306448 0.498975 -0.349766
C119  C     C_2   0.693477 0.805418 0.498900 -0.355534
C120  C     C_2   0.810437 0.698673 0.502392 -0.367785
C121  C     C_2   0.698767 0.189461 0.502458 -0.362926
C122  C     C_2   0.189562 0.301327 0.502392 -0.367785
C123  C     C_R   1.000000 0.500000 0.218444 0.301069
C124  C     C_2   0.301234 0.810538 0.502458 -0.362925
C125  C     C_2   0.694535 0.193529 0.998958 -0.348438
C126  C     C_2   0.806454 0.694508 0.998958 -0.350528
C127  C     C_2   0.305465 0.806470 0.998959 -0.348434
C128  C     C_2   0.193546 0.305492 0.998958 -0.350528
C129  C     C_2   0.310497 0.198737 0.002458 -0.366871
C130  C     C_2   0.198741 0.689499 0.002445 -0.367143
C131  C     C_2   0.689502 0.801263 0.002459 -0.366871
C132  C     C_2   0.801259 0.310501 0.002444 -0.367142
C133  C     C_R   0.440365 0.028123 0.364294 -0.024689
C134  C     C_R   0.500000 1.000000 0.281376 0.300925
C135  C     C_R   0.971839 0.440400 0.364296 -0.024627
C136  C     C_R   0.559635 0.971877 0.364294 -0.024689
C137  C     C_R   0.028161 0.559600 0.364296 -0.024626
C138  C     C_R   0.940340 0.528069 0.864291 -0.024624
C139  C     C_R   0.458122 0.949213 0.864779 -0.022821
C140  C     C_R   0.059660 0.471931 0.864291 -0.024625
C141  C     C_R   0.541878 0.050787 0.864779 -0.022821
C142  C     C_R   0.440676 0.027047 0.331855 -0.197143
C143  C     C_R   0.972918 0.440710 0.331856 -0.197148
C144  C     C_R   0.559324 0.972953 0.331855 -0.197143
H1    H     H_    0.248782 0.675121 0.504205 0.152884
H2    H     H_    0.824952 0.748761 0.004117 0.153101
H3    H     H_    0.251177 0.824943 0.004105 0.152903
H4    H     H_    0.175048 0.251239 0.004117 0.153102
H5    H     H_    0.273662 0.196550 0.022053 0.161799
H6    H     H_    0.196561 0.726294 0.022047 0.161733
H7    H     H_    0.726337 0.803450 0.022053 0.161799
H8    H     H_    0.803437 0.273708 0.022048 0.161733
H9    H     H_    0.394930 0.048901 0.319259 0.157384
H10   H     H_    0.951036 0.394991 0.319260 0.157375
H11   H     H_    0.605070 0.951099 0.319259 0.157384
H12   H     H_    0.324998 0.248776 0.504192 0.152648
H13   H     H_    0.048964 0.605008 0.319260 0.157375
H14   H     H_    0.894885 0.548802 0.819255 0.157411
H15   H     H_    0.425826 0.910557 0.819936 0.160276
H16   H     H_    0.105115 0.451197 0.819255 0.157411
H17   H     H_    0.574174 0.089443 0.819936 0.160276
H18   H     H_    0.899348 0.442455 0.680538 0.157400
H19   H     H_    0.422810 0.913126 0.679984 0.160179
H20   H     H_    0.100652 0.557545 0.680538 0.157400
H21   H     H_    0.577190 0.086874 0.679984 0.160179
H22   H     H_    0.399227 0.942670 0.180542 0.157197
H23   H     H_    0.751218 0.324879 0.504204 0.152883
H24   H     H_    0.057417 0.399316 0.180540 0.157190
H25   H     H_    0.600773 0.057330 0.180542 0.157197
H26   H     H_    0.942583 0.600684 0.180540 0.157190
H27   H     H_    0.675002 0.751224 0.504192 0.152648
H28   H     H_    0.773825 0.696733 0.522069 0.160133
H29   H     H_    0.696684 0.226143 0.522103 0.165377
H30   H     H_    0.226175 0.303267 0.522069 0.160133
H31   H     H_    0.303314 0.773858 0.522103 0.165376
H32   H     H_    0.748823 0.175057 0.004106 0.152905
N1    N     N_R   0.563031 0.002449 0.265359 -0.168675
N2    N     N_R   0.540693 0.048078 0.734511 -0.172243
N3    N     N_R   0.936986 0.497137 0.734457 -0.168803
N4    N     N_R   0.459307 0.951923 0.734511 -0.172243
N5    N     N_R   0.563018 0.002765 0.234461 -0.168956
N6    N     N_R   0.997227 0.562988 0.234461 -0.168946
N7    N     N_R   0.436982 0.997235 0.234461 -0.168956
N8    N     N_R   0.002773 0.437012 0.234461 -0.168946
N9    N     N_1   0.052278 0.810764 0.479130 -0.177487
N10   N     N_1   0.189169 0.052674 0.478762 -0.176783
N11   N     N_1   0.947724 0.189235 0.479133 -0.177489
N12   N     N_R   0.997544 0.563002 0.265359 -0.168662
N13   N     N_1   0.810831 0.947326 0.478762 -0.176783
N14   N     N_1   0.896353 0.767416 0.435353 -0.164275
N15   N     N_1   0.768129 0.103160 0.435640 -0.163924
N16   N     N_1   0.103647 0.232584 0.435353 -0.164276
N17   N     N_1   0.231877 0.896834 0.435637 -0.163927
N18   N     N_1   0.552176 0.310881 0.979440 -0.178533
N19   N     N_1   0.689045 0.552255 0.979383 -0.177829
N20   N     N_1   0.447827 0.689118 0.979445 -0.178536
N21   N     N_1   0.310955 0.447745 0.979383 -0.177828
N22   N     N_1   0.397340 0.268513 0.935840 -0.164768
N23   N     N_R   0.436969 0.997551 0.265359 -0.168675
N24   N     N_1   0.268489 0.602813 0.935793 -0.163764
N25   N     N_1   0.602659 0.731486 0.935840 -0.164769
N26   N     N_1   0.731521 0.397177 0.935789 -0.163768
N27   N     N_1   0.329344 0.086903 0.391368 -0.169924
N28   N     N_1   0.912982 0.329448 0.391369 -0.170077
N29   N     N_1   0.670656 0.913097 0.391368 -0.169924
N30   N     N_1   0.087018 0.670551 0.391369 -0.170078
N31   N     N_1   0.829263 0.586750 0.891362 -0.169672
N32   N     N_1   0.375573 0.855915 0.892714 -0.180052
N33   N     N_1   0.170737 0.413250 0.891362 -0.169672
N34   N     N_R   0.002456 0.436998 0.265359 -0.168662
N35   N     N_1   0.624426 0.144085 0.892714 -0.180051
N36   N     N_1   0.837699 0.398996 0.608192 -0.178334
N37   N     N_1   0.370636 0.860494 0.607132 -0.185755
N38   N     N_1   0.162301 0.601004 0.608192 -0.178335
N39   N     N_1   0.629364 0.139506 0.607132 -0.185754
N40   N     N_1   0.337472 0.899350 0.108202 -0.181224
N41   N     N_1   0.100803 0.337627 0.108200 -0.181153
N42   N     N_1   0.662528 0.100650 0.108202 -0.181224
N43   N     N_1   0.899197 0.662373 0.108200 -0.181153
N44   N     N_R   0.063028 0.502545 0.765356 -0.168438
N45   N     N_R   0.540686 0.048083 0.765413 -0.172075
N46   N     N_R   0.936972 0.497454 0.765356 -0.168438
N47   N     N_R   0.459314 0.951917 0.765413 -0.172075
N48   N     N_R   0.063014 0.502862 0.734457 -0.168803
O1    O     O_3   0.500000 0.000000 0.500000 -0.501109
O2    O     O_R   0.560150 0.000000 0.069320 -0.631362
O3    O     O_R   1.000000 0.560150 0.069320 -0.631273
O4    O     O_R   0.439850 0.000000 0.069320 -0.631362
O5    O     O_R   0.439930 0.000000 0.430670 -0.630869
O6    O     O_R   0.000000 0.439930 0.430670 -0.630758
O7    O     O_R   0.560070 0.000000 0.430670 -0.630869
O8    O     O_R   0.000000 0.560070 0.430670 -0.630758
O9    O     O_R   0.939930 0.500000 0.930670 -0.630754
O10   O     O_R   0.500000 0.939930 0.930670 -0.629597
O11   O     O_R   0.060070 0.500000 0.930670 -0.630754
O12   O     O_3   0.000000 0.500000 0.500000 -0.500727
O13   O     O_R   0.500000 0.060070 0.930670 -0.629598
O14   O     O_R   0.415450 0.144560 0.518170 -0.640188
O15   O     O_R   0.855440 0.415450 0.518170 -0.634783
O16   O     O_R   0.584550 0.855440 0.518170 -0.640188
O17   O     O_R   0.144560 0.584550 0.518170 -0.634784
O18   O     O_R   0.584550 0.144560 0.518170 -0.634825
O19   O     O_R   0.144560 0.415450 0.518170 -0.639725
O20   O     O_R   0.415450 0.855440 0.518170 -0.634825
O21   O     O_R   0.855440 0.584550 0.518170 -0.639725
O22   O     O_R   0.915450 0.644560 0.018170 -0.634926
O23   O     O_3   0.000000 0.500000 0.000000 -0.500903
O24   O     O_R   0.355440 0.915450 0.018170 -0.635362
O25   O     O_R   0.084550 0.355440 0.018170 -0.634926
O26   O     O_R   0.644560 0.084550 0.018170 -0.635362
O27   O     O_R   0.084550 0.644560 0.018170 -0.639109
O28   O     O_R   0.644560 0.915450 0.018170 -0.639138
O29   O     O_R   0.915450 0.355440 0.018170 -0.639110
O30   O     O_R   0.355440 0.084550 0.018170 -0.639137
O31   O     O_R   0.644640 0.915430 0.481820 -0.626566
O32   O     O_R   0.084570 0.644640 0.481820 -0.628036
O33   O     O_R   0.355360 0.084570 0.481820 -0.626566
O34   O     O_3   0.500000 0.000000 0.000000 -0.501643
O35   O     O_R   0.915430 0.355360 0.481820 -0.628036
O36   O     O_R   0.355360 0.915430 0.481820 -0.631976
O37   O     O_R   0.915430 0.644640 0.481820 -0.630834
O38   O     O_R   0.644640 0.084570 0.481820 -0.631977
O39   O     O_R   0.084570 0.355360 0.481820 -0.630833
O40   O     O_R   0.144640 0.415430 0.981820 -0.627825
O41   O     O_R   0.584570 0.144640 0.981820 -0.626928
O42   O     O_R   0.855360 0.584570 0.981820 -0.627825
O43   O     O_R   0.415430 0.855360 0.981820 -0.626927
O44   O     O_R   0.855360 0.415430 0.981820 -0.631158
O45   O     O_R   0.500000 0.939850 0.569320 -0.630934
O46   O     O_R   0.415430 0.144640 0.981820 -0.631401
O47   O     O_R   0.144640 0.584570 0.981820 -0.631158
O48   O     O_R   0.584570 0.855360 0.981820 -0.631400
O49   O     O_R   0.060150 0.500000 0.569320 -0.631464
O50   O     O_R   0.500000 0.060150 0.569320 -0.630935
O51   O     O_R   0.939850 0.500000 0.569320 -0.631464
O52   O     O_R   0.000000 0.439850 0.069320 -0.631273
Zn1   Zn    Zn3+2 0.414160 0.000000 0.474030 0.997873
Zn2   Zn    Zn3+2 0.914220 0.500000 0.525960 0.987163
Zn3   Zn    Zn3+2 0.500000 0.914220 0.525960 0.987800
Zn4   Zn    Zn3+2 0.085780 0.500000 0.525960 0.987163
Zn5   Zn    Zn3+2 0.000000 0.585780 0.025960 0.987508
Zn6   Zn    Zn3+2 0.414220 0.000000 0.025960 0.987559
Zn7   Zn    Zn3+2 1.000000 0.414220 0.025960 0.987508
Zn8   Zn    Zn3+2 0.585780 0.000000 0.025960 0.987559
Zn9   Zn    Zn3+2 1.000000 0.414160 0.474030 0.997546
Zn10  Zn    Zn3+2 0.585840 0.000000 0.474030 0.997873
Zn11  Zn    Zn3+2 0.000000 0.585840 0.474030 0.997546
Zn12  Zn    Zn3+2 0.914160 0.500000 0.974030 0.997802
Zn13  Zn    Zn3+2 0.500000 0.914160 0.974030 0.999232
Zn14  Zn    Zn3+2 0.085840 0.500000 0.974030 0.997802
Zn15  Zn    Zn3+2 0.500000 0.085840 0.974030 0.999232
Zn16  Zn    Zn3+2 0.500000 0.085780 0.525960 0.987800

loop_
_geom_bond_atom_site_label_1
_geom_bond_atom_site_label_2
_ccdc_geom_bond_type
O34   Zn15  S    
C96   O44   A    
C55   C75   A    
C40   N32   T    
O33   Zn1   S    
O39   Zn9   S    
C56   H25   S    
O19   Zn4   S    
C114  C131  D    
C33   N26   T    
C131  H7    S    
C103  C120  D    
O11   Zn14  S    
N44   N48   A    
C13   N46   A    
C94   O27   A    
C47   C62   S    
O24   Zn6   S    
C126  H2    S    
C68   O3    A    
C95   O48   A    
C124  H31   S    
C92   O25   A    
C81   O14   A    
C7    C11   A    
C62   C69   A    
C7    H17   S    
O31   Zn10  S    
C78   O9    A    
C133  C142  A    
C94   C130  S    
C91   C127  S    
N4    N47   A    
C75   C123  S    
C27   C108  S    
C58   H26   S    
C54   H22   S    
C96   O29   A    
C5    C11   A    
C123  N6    A    
C52   C61   A    
O28   Zn8   S    
C74   C112  S    
C116  H1    S    
C97   O46   A    
C64   C71   A    
O9    Zn12  S    
C1    O45   A    
C14   C135  A    
C94   O47   A    
C108  C114  S    
C56   C65   A    
C23   C105  S    
O15   Zn2   S    
C81   C117  S    
C118  H23   S    
C100  C104  S    
C22   C104  S    
C89   O22   A    
O45   Zn3   S    
O22   Zn5   S    
C35   C59   A    
C89   O42   A    
O27   Zn5   S    
O10   Zn13  S    
C83   C119  S    
C32   N25   T    
O35   Zn9   S    
C110  C111  S    
C23   N16   T    
C41   C140  S    
O23   Zn7   S    
C101  N2    A    
C19   N11   T    
C88   O21   A    
C54   C74   A    
C8    C142  A    
C98   C116  D    
C109  C127  D    
C121  H29   S    
C17   N9    T    
C86   O19   A    
C5    H15   S    
C39   N31   T    
C130  H6    S    
C63   C70   A    
O7    Zn10  S    
C85   C121  S    
C84   O17   A    
C3    C137  A    
C48   N40   T    
C88   C120  S    
C110  C128  D    
O25   Zn7   S    
C17   C98   S    
C85   O38   A    
O47   Zn14  S    
C92   C128  S    
O6    Zn9   S    
C43   C59   S    
C96   C132  S    
C15   C138  A    
C41   N33   T    
C135  C143  A    
C65   C70   A    
C82   O35   A    
C39   C138  S    
C84   C116  S    
C49   C64   S    
O12   Zn4   S    
C109  C113  S    
C55   C64   A    
C95   C131  S    
O17   Zn4   S    
O34   Zn6   S    
O26   Zn8   S    
C55   H24   S    
C57   C67   S    
C91   O43   A    
O3    Zn5   S    
C20   C102  S    
C31   N24   T    
C58   C66   A    
C25   C106  S    
C5    C139  A    
C112  N7    A    
O2    Zn8   S    
C89   C126  S    
C57   O51   A    
C9    C143  A    
C134  N23   A    
C99   C105  S    
C4    H14   S    
C2    N34   A    
C40   C139  S    
C33   C115  S    
C113  C130  D    
N3    N46   A    
C8    C134  S    
C115  C132  D    
C35   H18   S    
C80   O10   A    
C29   C110  S    
O43   Zn13  S    
O51   Zn2   S    
C56   C74   A    
C107  C125  D    
C8    C144  A    
O13   Zn15  S    
O46   Zn15  S    
C14   C77   S    
O14   Zn16  S    
C120  H28   S    
C48   C63   S    
O40   Zn14  S    
C104  C121  D    
C34   C133  S    
C51   N43   T    
C24   N45   A    
C50   N42   T    
O20   Zn3   S    
C1    C69   S    
C44   N37   T    
O32   Zn11  S    
C47   N39   T    
C16   C80   S    
C51   C66   S    
C21   C103  S    
C80   O13   A    
C95   O28   A    
C76   O7    A    
C20   N13   T    
C86   C122  S    
C123  N8    A    
C3    C9    A    
O42   Zn12  S    
O48   Zn13  S    
C99   C117  D    
C72   C90   S    
C53   C62   A    
C61   C67   A    
C59   C67   A    
O18   Zn16  S    
C66   C71   A    
C68   O52   A    
C14   C137  A    
C34   N27   T    
O5    Zn1   S    
O1    Zn16  S    
C82   O15   A    
C42   C141  S    
C45   N38   T    
O1    Zn3   S    
O16   Zn3   S    
N2    N45   A    
O12   Zn11  S    
N6    N12   A    
C43   N36   T    
C107  C115  S    
C1    O50   A    
O21   Zn2   S    
C87   O36   A    
C52   H20   S    
O30   Zn6   S    
O34   Zn13  S    
C53   H21   S    
C11   C24   S    
C30   N22   T    
C93   C125  S    
C119  H27   S    
O49   Zn4   S    
C84   O32   A    
C117  H12   S    
C57   O49   A    
C12   C133  A    
C12   C76   S    
C90   N48   A    
C12   C136  A    
C132  H8    S    
O12   Zn2   S    
C16   C139  A    
C100  C118  D    
C18   C99   S    
C82   C118  S    
O8    Zn11  S    
C4    C10   A    
C26   N18   T    
C36   C135  S    
C86   O39   A    
C7    C141  A    
C25   N17   T    
C93   O26   A    
C111  C129  D    
C15   C140  A    
C24   N47   A    
O4    Zn6   S    
C91   O24   A    
C52   C72   A    
C92   O40   A    
C37   C136  S    
C73   C101  S    
C38   N30   T    
C46   C60   A    
C70   C79   S    
C90   N3    A    
C37   N29   T    
C134  N1    A    
C128  H4    S    
O23   Zn12  S    
C143  H10   S    
C10   C13   S    
C26   C107  S    
C35   C72   A    
C6    H16   S    
C19   C100  S    
C79   O2    A    
N8    N34   A    
C112  N5    A    
O52   Zn7   S    
C83   O31   A    
C28   C109  S    
C77   O8    A    
C79   O4    A    
C83   O16   A    
C81   O33   A    
C98   C106  S    
C30   C111  S    
C46   H19   S    
C108  C126  D    
O1    Zn10  S    
C144  H11   S    
C16   C141  A    
C22   N15   T    
C97   C129  S    
C136  C144  A    
C101  N4    A    
C122  H30   S    
C85   O18   A    
O36   Zn1   S    
C125  H32   S    
C87   O20   A    
C87   C124  S    
C27   N19   T    
C60   C69   A    
C44   C60   S    
C68   C71   S    
N1    N5    A    
C53   C73   A    
O23   Zn14  S    
C45   C61   S    
C88   O37   A    
C28   N20   T    
C38   C137  S    
C18   N10   T    
C105  C122  D    
C78   O11   A    
C21   N14   T    
C142  H9    S    
C6    C140  A    
C102  C103  S    
C50   C65   S    
C2    N12   A    
C6    C10   A    
C42   N35   T    
C4    C138  A    
C15   C78   S    
O38   Zn10  S    
N7    N23   A    
C13   N44   A    
C29   N21   T    
C93   O41   A    
C77   O6    A    
O23   Zn5   S    
O41   Zn15  S    
C54   C63   A    
C49   N41   T    
C76   O5    A    
C3    H13   S    
C106  C124  D    
O1    Zn1   S    
C97   O30   A    
O34   Zn8   S    
O12   Zn9   S    
C36   N28   T    
C32   C114  S    
C129  H5    S    
C2    C9    S    
O50   Zn16  S    
C31   C113  S    
C46   C73   A    
O44   Zn12  S    
C102  C119  D    
O29   Zn7   S    
C127  H3    S    
C58   C75   A    
O37   Zn11  S    
