data_mof_unit_48349.cif
_audit_creation_date              2012-12-11T16:08:44-0500
_audit_creation_method            fapswitch 2.2
_symmetry_space_group_name_H-M    P1
_symmetry_Int_Tables_number       1
_space_group_crystal_system       triclinic
_cell_length_a                    12.954128
_cell_length_b                    13.29844
_cell_length_c                    27.714887
_cell_angle_alpha                 95.306542
_cell_angle_beta                  89.709596
_cell_angle_gamma                 119.119974
_cell_volume                      4148.70320314

loop_
_atom_site_label
_atom_site_type_symbol
_atom_type_description
_atom_site_fract_x
_atom_site_fract_y
_atom_site_fract_z
_atom_type_partial_charge
C1    C     C_R   0.628132 0.895675 0.427340 0.546941
C2    C     C_R   0.578747 0.318853 0.226861 -0.108448
C3    C     C_R   0.571479 0.305433 0.276269 -0.111926
C4    C     C_R   0.667845 0.314771 0.303003 0.038212
C5    C     C_R   0.682239 0.340909 0.203382 0.023811
C6    C     C_1   0.692416 0.364925 0.153363 -0.060449
C7    C     C_1   0.652524 0.293661 0.353501 -0.068873
C8    C     C_1   0.702190 0.393459 0.112769 -0.016378
C9    C     C_R   0.220576 0.765816 0.345120 -0.126954
C10   C     C_R   0.210818 0.763100 0.295372 0.010606
C11   C     C_R   0.193270 0.758490 0.195041 0.013787
C12   C     C_R   0.601110 0.221575 0.440429 0.548918
C13   C     C_R   0.219169 0.680206 0.215163 -0.131404
C14   C     C_R   0.226521 0.681689 0.265171 -0.134885
C15   C     C_R   0.172833 0.748780 0.145373 -0.130904
C16   C     C_R   0.129958 0.815462 0.125873 -0.006417
C17   C     C_R   0.195959 0.936459 0.356467 -0.135561
C18   C     C_R   0.178347 0.930355 0.306230 0.014508
C19   C     C_R   0.189594 0.845429 0.275633 0.062997
C20   C     C_R   0.153572 0.009423 0.285833 -0.130360
C21   C     C_R   0.138095 0.002967 0.235535 -0.130006
C22   C     C_R   0.150028 0.919140 0.205079 0.012226
C23   C     C_R   0.270911 0.876565 0.425122 0.546622
C24   C     C_R   0.178969 0.842006 0.225228 0.062814
C25   C     C_R   0.125831 0.905549 0.155151 -0.134773
C26   C     C_R   0.220445 0.856019 0.375807 -0.002793
C27   C     C_R   0.750059 0.942528 0.356322 -0.130552
C28   C     C_R   0.753703 0.933295 0.306305 0.011592
C29   C     C_R   0.753065 0.920766 0.205503 0.014232
C30   C     C_R   0.841149 0.018368 0.233207 -0.129712
C31   C     C_R   0.842521 0.023771 0.283455 -0.132140
C32   C     C_R   0.757182 0.911211 0.155525 -0.129339
C33   C     C_R   0.681634 0.806195 0.128112 -0.005775
C34   C     C_R   0.626764 0.899335 0.565167 0.545118
C35   C     C_R   0.566243 0.759364 0.352108 -0.134641
C36   C     C_R   0.572134 0.745705 0.301773 0.016494
C37   C     C_R   0.663546 0.835434 0.278746 0.064649
C38   C     C_R   0.485414 0.647128 0.273841 -0.132499
C39   C     C_R   0.489200 0.637707 0.223307 -0.131557
C40   C     C_R   0.578377 0.727846 0.200198 0.015520
C41   C     C_R   0.664427 0.828216 0.228130 0.064584
C42   C     C_R   0.587944 0.716989 0.149974 -0.136279
C43   C     C_R   0.652082 0.860648 0.379037 -0.003689
C44   C     C_R   0.732544 0.299928 0.654246 -0.135649
C45   C     C_R   0.599686 0.222503 0.579706 0.544469
C46   C     C_R   0.744665 0.315852 0.704814 0.016594
C47   C     C_R   0.769839 0.349545 0.806031 0.005864
C48   C     C_R   0.868605 0.375262 0.778168 -0.129646
C49   C     C_R   0.855760 0.356789 0.727839 -0.129042
C50   C     C_R   0.784715 0.380402 0.855676 -0.149357
C51   C     C_R   0.687055 0.360063 0.883483 0.006541
C52   C     C_R   0.524527 0.242640 0.659350 -0.135073
C53   C     C_R   0.532126 0.251049 0.709925 0.001553
C54   C     C_R   0.643976 0.289057 0.732789 0.048468
C55   C     C_R   0.430780 0.221788 0.737853 -0.005317
C56   C     C_R   0.272223 0.879980 0.563603 0.545446
C57   C     C_R   0.445241 0.233682 0.788583 -0.115135
C58   C     C_R   0.555896 0.271454 0.811986 0.002822
C59   C     C_R   0.656150 0.302107 0.783596 0.042359
C60   C     C_R   0.570985 0.288215 0.863249 -0.005946
C61   C     C_R   0.622397 0.262535 0.631468 -0.002358
C62   C     C_1   0.226348 0.865569 0.611090 -0.022368
C63   C     C_R   0.281206 0.904081 0.737179 -0.111666
C64   C     C_R   0.265128 0.895121 0.786857 -0.121512
C65   C     C_R   0.052872 0.782632 0.770474 -0.110701
C66   C     C_R   0.068906 0.791981 0.720881 -0.114640
C67   C     C_1   0.633390 0.267515 0.394450 -0.019969
C68   C     C_R   0.183141 0.852101 0.704109 0.030812
C69   C     C_R   0.150823 0.833647 0.803518 0.029540
C70   C     C_1   0.131806 0.818651 0.854094 -0.069424
C71   C     C_1   0.201548 0.857997 0.653024 -0.075261
C72   C     C_1   0.105196 0.799086 0.895235 -0.027390
C73   C     C_1   0.641198 0.867448 0.611710 -0.013828
C74   C     C_R   0.751186 0.835591 0.724601 -0.111271
C75   C     C_R   0.756414 0.825995 0.774242 -0.107354
C76   C     C_R   0.561040 0.806491 0.781724 -0.108051
C77   C     C_R   0.555860 0.816269 0.732026 -0.104669
C78   C     C_R   0.773560 0.336742 0.279826 0.022781
C79   C     C_R   0.650862 0.830717 0.703339 0.039095
C80   C     C_R   0.661565 0.811613 0.802966 0.038541
C81   C     C_1   0.668902 0.800690 0.853923 -0.059804
C82   C     C_1   0.647519 0.847814 0.652907 -0.058850
C83   C     C_1   0.684130 0.790458 0.895704 -0.015035
C84   C     C_R   0.065659 0.773497 0.078849 0.546475
C85   C     C_R   0.716767 0.441252 0.067224 0.541458
C86   C     C_R   0.719877 0.782968 0.080802 0.547185
C87   C     C_R   0.057442 0.766387 0.941508 0.540765
C88   C     C_R   0.709600 0.430689 0.930058 0.538289
C89   C     C_R   0.779095 0.349839 0.229596 -0.081906
C90   C     C_R   0.716387 0.776173 0.943035 0.545341
Cr1   Cr    Cr6+3 0.416430 0.829200 0.492370 1.019721
Cr2   Cr    Cr6+3 0.674630 0.087020 0.504170 1.019761
Cr3   Cr    Cr6+3 0.408920 0.083740 0.503490 1.017914
Cr4   Cr    Cr6+3 0.914010 0.832750 0.013970 1.014409
Cr5   Cr    Cr6+3 0.922310 0.578600 0.003000 1.015573
Cr6   Cr    Cr6+3 0.656280 0.574630 0.003870 1.013652
H1    H     H_    0.115653 0.062622 0.220503 0.101914
H2    H     H_    0.144672 0.075102 0.308752 0.102992
H3    H     H_    0.195629 0.005977 0.380095 0.120321
H4    H     H_    0.827995 0.981559 0.138644 0.128332
H5    H     H_    0.817825 0.020064 0.376986 0.130361
H6    H     H_    0.910448 0.089116 0.216014 0.094091
H7    H     H_    0.911731 0.099394 0.304436 0.100044
H8    H     H_    0.528430 0.636367 0.128670 0.123819
H9    H     H_    0.422677 0.560078 0.202349 0.098985
H10   H     H_    0.414987 0.577404 0.291066 0.094882
H11   H     H_    0.858245 0.368227 0.210392 0.103646
H12   H     H_    0.491224 0.695299 0.369753 0.118703
H13   H     H_    0.873781 0.429002 0.871894 0.137053
H14   H     H_    0.807807 0.314533 0.632698 0.118320
H15   H     H_    0.956134 0.411534 0.795311 0.112388
H16   H     H_    0.933178 0.377269 0.706887 0.110677
H17   H     H_    0.371219 0.221159 0.809894 0.103951
H18   H     H_    0.440057 0.213803 0.640976 0.135579
H19   H     H_    0.370048 0.950952 0.724506 0.116316
H20   H     H_    0.503910 0.313250 0.207049 0.110806
H21   H     H_    0.341420 0.934984 0.812059 0.109688
H22   H     H_    0.964128 0.734301 0.783033 0.111393
H23   H     H_    0.992624 0.751339 0.695679 0.108089
H24   H     H_    0.825662 0.847984 0.702993 0.103044
H25   H     H_    0.834723 0.830354 0.790318 0.107361
H26   H     H_    0.487224 0.795472 0.803489 0.108659
H27   H     H_    0.478316 0.813685 0.716052 0.112445
H28   H     H_    0.490042 0.287407 0.293742 0.113075
H29   H     H_    0.178592 0.680945 0.122615 0.128682
H30   H     H_    0.238729 0.702578 0.359494 0.130709
H31   H     H_    0.230047 0.615644 0.192294 0.103225
H32   H     H_    0.244614 0.619331 0.280260 0.105994
H33   H     H_    0.094341 0.958476 0.139934 0.125427
O1    O     O_R   0.296680 0.802170 0.437540 -0.525591
O2    O     O_R   0.662610 0.183990 0.557860 -0.498607
O3    O     O_R   0.500730 0.201280 0.562180 -0.523836
O4    O     O_R   0.312500 0.978850 0.548170 -0.501708
O5    O     O_3   0.499990 0.999990 0.500010 -0.243733
O6    O     O_R   0.820790 0.857990 0.068830 -0.523751
O7    O     O_R   0.016700 0.827330 0.062850 -0.504214
O8    O     O_R   0.041970 0.673520 0.060040 -0.518378
O9    O     O_R   0.817980 0.483660 0.048840 -0.494352
O10   O     O_R   0.637200 0.461990 0.052510 -0.515607
O11   O     O_R   0.664790 0.681920 0.057970 -0.501037
O12   O     O_R   0.525380 0.838530 0.443500 -0.502450
O13   O     O_R   0.815840 0.852920 0.961840 -0.509493
O14   O     O_R   0.012100 0.822630 0.963670 -0.496733
O15   O     O_R   0.037010 0.668460 0.953040 -0.511669
O16   O     O_R   0.813390 0.478970 0.949660 -0.508666
O17   O     O_R   0.632250 0.456930 0.945520 -0.516953
O18   O     O_R   0.660200 0.677230 0.958780 -0.493716
O19   O     O_3   0.830870 0.661990 0.006950 -0.238292
O20   O     O_R   0.702130 0.995190 0.446810 -0.521786
O21   O     O_R   0.661770 0.181390 0.458760 -0.496074
O22   O     O_R   0.499820 0.198480 0.455280 -0.507385
O23   O     O_R   0.311660 0.976250 0.449080 -0.498967
O24   O     O_R   0.297580 0.804960 0.544440 -0.504727
O25   O     O_R   0.526220 0.841130 0.542590 -0.494718
O26   O     O_R   0.703030 0.997990 0.553710 -0.509726
C91   C     C_3   0.877018 0.346021 0.309605 -0.248826
C92   C     C_3   0.988817 0.372026 0.281781 -0.312429
C93   C     C_3   0.087988 0.384088 0.315447 -0.460945
H34   H     H_    0.113606 0.457912 0.343799 0.152012
H35   H     H_    0.059411 0.303580 0.333124 0.146923
H36   H     H_    0.166530 0.400399 0.294155 0.130707
H37   H     H_    0.968429 0.300662 0.252735 0.153995
H38   H     H_    0.020545 0.454363 0.265144 0.168926
H39   H     H_    0.901015 0.415810 0.339815 0.151920
H40   H     H_    0.846827 0.263161 0.325741 0.150622
C94   C     C_3   0.467571 0.227544 0.896122 -0.252024
C95   C     C_3   0.493322 0.160652 0.932343 -0.295112
C96   C     C_3   0.386156 0.093507 0.962284 -0.445694
H41   H     H_    0.361928 0.153762 0.983215 0.156980
H42   H     H_    0.309489 0.029340 0.938293 0.153882
H43   H     H_    0.407573 0.046583 0.988138 0.145963
H44   H     H_    0.516547 0.098610 0.912226 0.161053
H45   H     H_    0.568809 0.220648 0.957711 0.168993
H46   H     H_    0.445508 0.290878 0.915553 0.172045
H47   H     H_    0.386615 0.161877 0.875055 0.128997
C97   C     C_3   0.308997 0.178807 0.713056 -0.255671
C98   C     C_3   0.203587 0.142216 0.746248 -0.302485
C99   C     C_3   0.086869 0.092040 0.716693 -0.444997
H48   H     H_    0.087552 0.157429 0.694298 0.155192
H49   H     H_    0.071868 0.014128 0.692623 0.158174
H50   H     H_    0.012721 0.066583 0.741590 0.149182
H51   H     H_    0.198639 0.075152 0.768728 0.178361
H52   H     H_    0.214367 0.218539 0.770419 0.157268
H53   H     H_    0.313340 0.248273 0.692260 0.143392
H54   H     H_    0.289830 0.102463 0.687031 0.153267

loop_
_geom_bond_atom_site_label_1
_geom_bond_atom_site_label_2
_ccdc_geom_bond_type
C66   C68   A    
C23   O23   A    
Cr1   O12   S    
C92   C93   S    
C35   C36   A    
Cr5   O16   S    
C25   H33   S    
Cr6   O10   S    
C99   H48   S    
C97   H54   S    
Cr1   O1    S    
C53   C54   A    
C52   C53   A    
C46   C49   A    
C94   H47   S    
C90   O18   A    
C33   C42   A    
C91   H40   S    
C36   C37   A    
Cr1   O24   S    
C29   C32   A    
Cr3   O4    S    
C52   C61   A    
Cr4   O14   S    
C5    C6    S    
C58   C60   A    
C98   H51   S    
C11   C24   A    
C16   C84   S    
C14   H32   S    
C17   C18   A    
C8    C85   S    
C23   C26   S    
C45   C61   S    
Cr6   O18   S    
C35   H12   S    
C93   H36   S    
C96   H41   S    
C11   C15   A    
C1    C43   S    
C96   H43   S    
C84   O7    A    
C22   C25   A    
Cr4   O7    S    
C88   O16   A    
C1    O20   A    
C87   O15   A    
Cr3   O3    S    
C35   C43   A    
C75   C80   A    
C85   O10   A    
C18   C20   A    
C86   O11   A    
C95   H45   S    
C63   H19   S    
C96   H42   S    
Cr5   O15   S    
C21   C22   A    
C93   H35   S    
C12   O22   A    
C89   H11   S    
C2    H20   S    
C4    C7    S    
C34   O26   A    
C81   C83   T    
C44   C46   A    
C9    C26   A    
C56   O4    A    
C47   C50   A    
C54   C59   A    
C53   C55   A    
C78   C89   A    
Cr4   O19   S    
Cr6   O19   S    
C12   C67   S    
C94   H46   S    
Cr5   O8    S    
C74   C75   A    
Cr4   O13   S    
C12   O21   A    
Cr2   O2    S    
C76   C77   A    
Cr1   O25   S    
Cr3   O5    S    
C10   C14   A    
C95   C96   S    
C97   H53   S    
C18   C19   A    
C6    C8    T    
C50   C51   A    
C58   C59   A    
C98   H52   S    
C47   C59   A    
C27   H5    S    
C50   H13   S    
C60   C94   S    
C64   H21   S    
C32   H4    S    
C23   O1    A    
C91   C92   S    
C93   H34   S    
C38   H10   S    
C33   C86   S    
C4    C78   A    
C29   C30   A    
C77   H27   S    
C21   H1    S    
C47   C48   A    
C10   C19   A    
C65   H22   S    
C46   C54   A    
Cr4   O6    S    
C77   C79   A    
C57   H17   S    
C64   C69   A    
C17   H3    S    
C90   O13   A    
C30   H6    S    
C49   H16   S    
C56   O24   A    
C48   C49   A    
C84   O8    A    
C45   O2    A    
C34   O25   A    
C74   C79   A    
C55   C57   A    
Cr2   O21   S    
C94   C95   S    
C56   C62   S    
Cr3   O22   S    
C2    C5    A    
C17   C26   A    
C3    C4    A    
C73   C82   T    
C39   C40   A    
C72   C87   S    
C74   H24   S    
C3    H28   S    
C9    C10   A    
C16   C25   A    
C39   H9    S    
C83   C90   S    
C92   H38   S    
C63   C68   A    
C40   C41   A    
Cr5   O9    S    
C29   C41   A    
C75   H25   S    
C28   C31   A    
Cr2   O5    S    
Cr5   O19   S    
C76   C80   A    
C80   C81   S    
C42   H8    S    
C51   C88   S    
Cr6   O11   S    
C79   C82   S    
C99   H49   S    
C95   H44   S    
C52   H18   S    
C44   C61   A    
Cr6   O17   S    
C9    H30   S    
C66   H23   S    
C76   H26   S    
C32   C33   A    
C97   C98   S    
C19   C24   A    
C36   C38   A    
C11   C13   A    
C30   C31   A    
C78   C91   S    
C57   C58   A    
C38   C39   A    
Cr1   O5    S    
C28   C37   A    
C68   C71   S    
C65   C69   A    
C92   H37   S    
C40   C42   A    
C62   C71   T    
C2    C3    A    
Cr2   O26   S    
C22   C24   A    
C65   C66   A    
C37   C41   A    
C69   C70   S    
C55   C97   S    
C99   H50   S    
C1    O12   A    
C34   C73   S    
C7    C67   T    
C63   C64   A    
C13   H31   S    
C27   C43   A    
C86   O6    A    
C48   H15   S    
C20   H2    S    
C20   C21   A    
C91   H39   S    
C45   O3    A    
C98   C99   S    
C15   H29   S    
Cr2   O20   S    
C88   O17   A    
Cr3   O23   S    
C70   C72   T    
C51   C60   A    
C87   O14   A    
C13   C14   A    
C85   O9    A    
C5    C89   A    
C15   C16   A    
C31   H7    S    
C27   C28   A    
C44   H14   S    
