data_mof_unit_13365.cif
_audit_creation_date              2013-03-05T16:02:22-0500
_audit_creation_method            fapswitch 2.2
_symmetry_space_group_name_H-M    P1
_symmetry_Int_Tables_number       1
_space_group_crystal_system       triclinic
_cell_length_a                    15.107581
_cell_length_b                    14.218682
_cell_length_c                    11.009516
_cell_angle_alpha                 89.568594
_cell_angle_beta                  83.778244
_cell_angle_gamma                 89.307138
_cell_volume                      2350.80516939

loop_
_atom_site_label
_atom_site_type_symbol
_atom_site_description
_atom_site_fract_x
_atom_site_fract_y
_atom_site_fract_z
_atom_type_partial_charge
O1    O     O_R   0.367860 0.580280 0.500020 -0.633823
O2    O     O_R   0.367860 0.419720 0.500020 -0.637443
C1    C     C_R   0.325451 0.500898 0.503665 0.933877
O3    O     O_R   0.500000 0.580270 0.314790 -0.656996
O4    O     O_R   0.500000 0.419730 0.314790 -0.652930
C2    C     C_R   0.502832 0.500153 0.258458 0.908412
Zn1   Zn    Zn3+2 0.500020 0.607200 0.499990 1.013862
Zn2   Zn    Zn3+2 0.500020 0.392800 0.499990 1.004657
O5    O     O_R   0.632160 0.580270 0.499960 -0.594674
O6    O     O_R   0.632160 0.419730 0.499960 -0.628821
O7    O     O_R   0.500030 0.580270 0.685200 -0.545126
O8    O     O_R   0.500030 0.419730 0.685200 -0.537752
C3    C     C_R   0.673074 0.499323 0.489903 0.892779
C4    C     C_R   0.505871 0.500074 0.741924 1.092006
C5    C     C_3   0.459012 0.592574 0.079638 -0.203918
C6    C     C_3   0.460030 0.409879 0.082670 -0.187968
H1    H     H_    0.496538 0.650605 0.114155 0.232098
H2    H     H_    0.504522 0.352306 0.104889 0.220002
C7    C     C_3   0.463823 0.601005 0.935358 0.416787
C8    C     C_3   0.456342 0.410586 0.941492 0.399213
C9    C     C_3   0.611012 0.498795 0.063171 0.122932
C10   C     C_3   0.507374 0.500525 0.122465 -0.081332
C11   C     C_3   0.510960 0.502036 0.879857 -0.524685
C12   C     C_3   0.615159 0.500013 0.913133 0.420513
C13   C     C_R   0.819838 0.551877 0.392278 -0.240340
C14   C     C_R   0.768965 0.495652 0.477191 -0.068300
C15   C     C_R   0.809219 0.432420 0.550447 -0.125483
C16   C     C_R   0.900016 0.434365 0.555280 -0.019366
C17   C     C_R   0.952239 0.495775 0.476029 0.013975
C18   C     C_R   0.913279 0.550341 0.387536 0.111141
C19   C     C_R   0.937417 0.386208 0.649406 0.295258
C20   C     C_R   0.017063 0.420198 0.683211 0.062255
C21   C     C_R   0.076867 0.463122 0.591075 -0.011178
C22   C     C_R   0.043153 0.502453 0.487176 -0.050491
C23   C     C_R   0.098860 0.552733 0.399421 0.005284
C24   C     C_R   0.061766 0.601123 0.303750 0.319162
C25   C     C_R   0.968247 0.603353 0.300255 0.046028
C26   C     C_R   0.169024 0.464238 0.598116 0.298517
C27   C     C_R   0.227220 0.504436 0.503534 -0.204554
C28   C     C_R   0.190721 0.552633 0.408937 -0.218900
H3    H     H_    0.785920 0.595428 0.330765 0.141206
H4    H     H_    0.768146 0.388714 0.612881 0.241291
H5    H     H_    0.233973 0.590256 0.342728 0.185422
C29   C     C_R   0.577023 0.798588 0.463055 0.313419
C30   C     C_R   0.578139 0.198950 0.473468 0.273236
N1    N     N_R   0.500070 0.750030 0.500050 -0.107600
N2    N     N_R   0.500070 0.249970 0.500050 -0.110722
C31   C     C_R   0.422928 0.801039 0.531102 0.211702
C32   C     C_R   0.422100 0.199487 0.521872 0.171351
C33   C     C_R   0.420205 0.900128 0.510398 -0.110391
C34   C     C_R   0.420297 0.100185 0.503516 -0.100039
C35   C     C_R   0.501087 0.949243 0.497342 -0.030869
C36   C     C_R   0.500770 0.049310 0.497157 -0.015597
C37   C     C_R   0.581966 0.898042 0.482636 0.016351
C38   C     C_R   0.580657 0.098923 0.492103 0.017473
C39   C     C_R   0.339687 0.951180 0.502781 0.221815
C40   C     C_R   0.340089 0.050283 0.496336 0.220452
C41   C     C_R   0.660293 0.047432 0.505376 0.111938
C42   C     C_R   0.663185 0.947656 0.490440 0.180841
C43   C     C_3   0.019330 0.441228 0.817578 -0.559730
H6    H     H_    0.951111 0.443471 0.866824 0.238396
H7    H     H_    0.058170 0.387297 0.862856 0.299966
H8    H     H_    0.045110 0.512903 0.829283 0.252223
N3    N     N_R   0.201766 0.428588 0.704877 0.214775
O9    O     O_R   0.194263 0.339038 0.728513 -0.356904
O10   O     O_R   0.202026 0.486669 0.795274 -0.262212
N4    N     N_R   0.118849 0.648281 0.210678 0.184012
O11   O     O_R   0.129540 0.615215 0.100131 -0.324167
O12   O     O_R   0.156380 0.726813 0.234764 -0.306216
C44   C     C_3   0.927242 0.661994 0.204854 -0.747261
H9    H     H_    0.976684 0.701942 0.143951 0.293475
H10   H     H_    0.891168 0.615597 0.146728 0.235494
H11   H     H_    0.880092 0.714550 0.250485 0.225430
C45   C     C_3   0.646115 0.752034 0.375371 -0.864100
H12   H     H_    0.615350 0.694446 0.330375 0.262665
H13   H     H_    0.670290 0.801249 0.300598 0.229545
H14   H     H_    0.702398 0.724860 0.422248 0.254807
C46   C     C_3   0.654604 0.243040 0.395980 -0.807172
H15   H     H_    0.628089 0.297889 0.338811 0.250119
H16   H     H_    0.704199 0.272551 0.451587 0.259735
H17   H     H_    0.688870 0.190985 0.331813 0.231403
C47   C     C_3   0.345542 0.755371 0.604137 -0.551126
H18   H     H_    0.313725 0.804191 0.674575 0.243010
H19   H     H_    0.295390 0.732023 0.544790 0.249797
H20   H     H_    0.369940 0.695624 0.654675 0.292216
C48   C     C_3   0.342189 0.244059 0.589077 -0.513496
H21   H     H_    0.308045 0.194724 0.656985 0.248510
H22   H     H_    0.365271 0.300758 0.642499 0.299870
H23   H     H_    0.294992 0.269899 0.525664 0.250079
N5    N     N_R   0.260255 0.903003 0.480483 0.219945
O13   O     O_R   0.190204 0.905498 0.560347 -0.296041
O14   O     O_R   0.258374 0.855597 0.380222 -0.317849
N6    N     N_R   0.261866 0.098719 0.464336 0.219865
O15   O     O_R   0.265001 0.146475 0.362699 -0.359546
O16   O     O_R   0.187922 0.096338 0.536751 -0.280979
C49   C     C_3   0.736373 0.096670 0.556130 -0.695192
H24   H     H_    0.758276 0.056483 0.634574 0.267181
H25   H     H_    0.792881 0.106082 0.483939 0.253135
H26   H     H_    0.714871 0.165225 0.596843 0.279012
C50   C     C_3   0.750687 0.894243 0.495330 -0.801528
H27   H     H_    0.806007 0.936645 0.522248 0.258812
H28   H     H_    0.741518 0.835562 0.562456 0.270064
H29   H     H_    0.775740 0.867948 0.403486 0.235325
C51   C     C_3   0.365854 0.613941 0.149840 -0.647162
H30   H     H_    0.310398 0.578662 0.113058 0.306053
H31   H     H_    0.362074 0.594113 0.246432 0.203169
H32   H     H_    0.352006 0.690867 0.149888 0.293836
C52   C     C_3   0.374525 0.373900 0.162535 -0.640258
H33   H     H_    0.329215 0.431566 0.197316 0.240437
H34   H     H_    0.338359 0.322503 0.111331 0.280895
H35   H     H_    0.390031 0.331856 0.243014 0.246657
N7    N     N_R   0.372618 0.619352 0.899543 0.248802
O17   O     O_R   0.331985 0.697572 0.934291 -0.301117
O18   O     O_R   0.344843 0.579348 0.805701 -0.341052
N8    N     N_R   0.363030 0.417134 0.912935 0.254627
O19   O     O_R   0.346006 0.395328 0.804680 -0.306720
O20   O     O_R   0.297845 0.452472 0.985775 -0.326412
N9    N     N_R   0.515425 0.686773 0.891322 0.244283
O21   O     O_R   0.564951 0.732569 0.959568 -0.391225
O22   O     O_R   0.494119 0.732561 0.795565 -0.308477
N10   N     N_R   0.492785 0.316849 0.894555 0.237349
O23   O     O_R   0.562069 0.277440 0.935000 -0.368401
O24   O     O_R   0.445026 0.261150 0.835435 -0.316314
C53   C     C_3   0.662496 0.581158 0.117465 -0.758800
H36   H     H_    0.735575 0.575883 0.094126 0.269068
H37   H     H_    0.641787 0.652183 0.093716 0.280954
H38   H     H_    0.656752 0.575882 0.217948 0.184588
C54   C     C_3   0.662516 0.412090 0.112429 -0.739029
H39   H     H_    0.644825 0.342830 0.079662 0.277502
H40   H     H_    0.735691 0.417608 0.090359 0.279245
H41   H     H_    0.654586 0.410826 0.212978 0.195710
N11   N     N_R   0.666297 0.582120 0.858242 0.231285
O25   O     O_R   0.745834 0.597573 0.887959 -0.346688
O26   O     O_R   0.653472 0.611218 0.749430 -0.345751
N12   N     N_R   0.666697 0.417558 0.859511 0.227922
O27   O     O_R   0.749975 0.407877 0.877997 -0.348798
O28   O     O_R   0.643978 0.375661 0.763583 -0.363110
N13   N     N_R   0.894917 0.305994 0.711404 0.255634
O29   O     O_R   0.852059 0.247752 0.649444 -0.394233
O30   O     O_R   0.916978 0.277655 0.816799 -0.305772

loop_
_geom_bond_atom_site_label_1
_geom_bond_atom_site_label_2
_geom_bond_distance
_ccdc_geom_bond_type
N6    O15   1.301266 A    
C23   C24   1.415829 A    
C15   H4    1.074313 S    
C54   H39   1.097265 S    
N7    O18   1.294451 A    
C24   N4    1.433664 S    
N12   O27   1.301592 A    
N2    C32   1.384558 A    
C7    N7    1.493196 S    
C39   C40   1.410422 A    
C5    C7    1.585924 S    
C14   C15   1.382310 A    
C45   H13   1.110440 S    
C43   H8    1.108760 S    
C16   C17   1.414968 A    
C5    C10   1.584748 S    
O4    C2    1.295699 A    
O7    C4    1.302615 A    
C48   H22   1.084368 S    
N8    O19   1.287131 A    
C2    C10   1.491314 S    
C49   H26   1.106322 S    
C52   H33   1.105365 S    
C43   H7    1.107972 S    
C22   C23   1.407370 A    
C41   C49   1.512615 S    
N9    O21   1.299753 A    
N7    O17   1.303508 A    
O5    C3    1.299587 A    
C28   H5    1.069495 S    
C7    N9    1.504046 S    
C29   N1    1.380841 A    
N11   O25   1.300721 A    
C32   C34   1.428844 A    
C45   H14   1.105804 S    
C49   H25   1.110184 S    
C33   C35   1.408030 A    
C11   C12   1.654364 S    
C30   C46   1.500372 S    
C34   C40   1.421426 A    
C5    C51   1.558151 S    
Zn2   O8    2.077561 S    
C30   N2    1.382269 A    
C1    C27   1.484428 S    
N6    O16   1.300827 A    
C40   N6    1.435923 S    
C25   C44   1.515751 S    
C42   C50   1.522414 S    
O3    Zn1   2.077471 S    
C51   H31   1.093783 S    
C51   H30   1.097401 S    
C35   C37   1.409466 A    
Zn1   O7    2.071894 S    
C26   N3    1.412138 S    
C37   C42   1.433638 A    
C36   C38   1.401005 A    
N1    C31   1.377703 A    
C45   H12   1.094130 S    
N4    O11   1.300985 A    
Zn1   N1    2.030869 S    
O3    C2    1.299170 A    
C13   H3    1.079768 S    
C27   C28   1.401046 A    
C48   H21   1.111021 S    
N8    O20   1.299347 A    
C41   C42   1.429008 A    
C17   C22   1.396570 A    
O6    C3    1.294322 A    
C50   H29   1.106701 S    
C33   C39   1.418970 A    
C18   C25   1.418588 A    
C43   H6    1.111521 S    
O1    C1    1.302814 A    
N3    O10   1.298383 A    
C4    C11   1.529303 S    
C7    C11   1.659856 S    
C17   C18   1.414029 A    
C8    N8    1.478941 S    
C12   N11   1.494998 S    
N5    O14   1.300788 A    
C19   C20   1.390595 A    
C8    C11   1.650269 S    
C6    C8    1.561274 S    
C49   H24   1.109864 S    
C44   H11   1.110588 S    
C50   H28   1.110325 S    
C21   C22   1.410821 A    
C8    N10   1.509140 S    
C9    C54   1.574044 S    
C29   C45   1.494701 S    
C31   C33   1.426351 A    
N10   O23   1.300367 A    
C44   H9    1.107305 S    
N13   O30   1.301308 A    
C53   H38   1.102305 S    
C12   N12   1.489298 S    
Zn2   O6    2.037212 S    
O8    C4    1.314525 A    
C47   H19   1.108079 S    
N12   O28   1.296551 A    
C3    C14   1.440597 S    
C9    C12   1.646194 S    
C20   C43   1.515535 S    
C54   H41   1.100510 S    
C35   C36   1.422755 A    
C53   H37   1.091889 S    
N4    O12   1.300384 A    
C13   C18   1.406876 A    
Zn1   O5    2.028118 S    
C24   C25   1.417504 A    
C6    C10   1.569530 S    
O1    Zn1   2.037483 S    
C32   C48   1.483754 S    
C16   C19   1.403170 A    
O2    Zn2   2.028392 S    
C48   H23   1.108385 S    
C54   H40   1.109462 S    
O4    Zn2   2.071802 S    
C52   H34   1.110415 S    
C5    H1    1.099711 S    
C47   H20   1.094013 S    
C21   C26   1.403066 A    
C52   H35   1.109484 S    
C19   N13   1.445675 S    
C20   C21   1.422366 A    
C9    C53   1.570705 S    
O2    C1    1.312107 A    
C13   C14   1.397011 A    
Zn2   N2    2.030842 S    
N3    O9    1.301510 A    
C46   H15   1.097506 S    
C46   H17   1.110960 S    
N5    O13   1.300865 A    
C26   C27   1.410229 A    
N11   O26   1.297973 A    
C39   N5    1.433818 S    
C50   H27   1.103797 S    
C31   C47   1.497239 S    
C23   C28   1.403013 A    
C46   H16   1.105971 S    
N9    O22   1.302705 A    
N10   O24   1.301854 A    
N13   O29   1.299058 A    
C6    C52   1.570513 S    
C29   C37   1.436097 A    
C30   C38   1.436072 A    
C6    H2    1.095942 S    
C47   H18   1.110655 S    
C38   C41   1.421282 A    
C15   C16   1.379128 A    
C44   H10   1.110129 S    
C34   C36   1.402583 A    
C9    C10   1.629717 S    
C51   H32   1.111122 S    
C53   H36   1.107864 S    
