data_mof_unit_55979.cif
_audit_creation_date              2012-12-10T17:57:26-0500
_audit_creation_method            fapswitch 2.2
_symmetry_space_group_name_H-M    P1
_symmetry_Int_Tables_number       1
_space_group_crystal_system       triclinic
_cell_length_a                    9.509363
_cell_length_b                    10.829313
_cell_length_c                    13.493942
_cell_angle_alpha                 89.713379
_cell_angle_beta                  72.267005
_cell_angle_gamma                 89.520508
_cell_volume                      1323.52830153

loop_
_atom_site_label
_atom_site_type_symbol
_atom_type_description
_atom_site_fract_x
_atom_site_fract_y
_atom_site_fract_z
_atom_type_partial_charge
C1    C     C_R   0.499012 0.737472 0.501023 0.872582
C2    C     C_R   0.435619 0.494928 0.978662 0.084381
C3    C     C_R   0.469882 0.460787 0.872413 -0.007113
C4    C     C_R   0.543764 0.474660 0.030903 0.006953
C5    C     C_R   0.681488 0.419502 0.976782 0.008922
C6    C     C_R   0.706038 0.375344 0.876060 0.589202
C7    C     C_R   0.600056 0.392512 0.826179 -0.233989
C8    C     C_R   0.519569 0.507242 0.135301 -0.220518
C9    C     C_R   0.769827 0.446171 0.126620 -0.018669
C10   C     C_R   0.373172 0.496085 0.814901 -0.047309
C11   C     C_R   0.570144 0.933017 0.562096 0.581349
C12   C     C_R   0.421085 0.495057 0.700218 0.790420
C13   C     C_R   0.574515 0.061217 0.560329 -0.126705
C14   C     C_R   0.505371 0.127427 0.496647 -0.244941
C15   C     C_R   0.434438 0.062945 0.434227 0.006567
C16   C     C_R   0.428027 0.934649 0.440222 -0.287148
C17   C     C_R   0.497502 0.870544 0.502184 -0.173882
C18   C     C_R   0.897629 0.578320 0.563083 0.022971
C19   C     C_R   0.046469 0.578091 0.563230 0.006450
C20   C     C_R   0.102135 0.421335 0.437262 -0.006357
C21   C     C_R   0.953120 0.420926 0.437701 0.034651
C22   C     C_R   0.501295 0.261994 0.499192 0.860028
C23   C     C_R   0.579801 0.500120 0.299514 0.845549
C24   C     C_R   0.793347 0.408435 0.024017 -0.169548
C25   C     C_R   0.627644 0.488828 0.185053 -0.093078
C26   C     C_R   0.234900 0.547775 0.866755 -0.162634
C27   C     C_R   0.196414 0.573122 0.972204 -0.115211
C28   C     C_R   0.296014 0.550223 0.027304 -0.101113
Cu1   Cu    Cu3+1 0.359340 0.499980 0.500000 0.984493
Cu2   Cu    Cu3+1 0.640660 0.500020 0.500000 1.021365
H1    H     H_    0.375560 0.883857 0.392169 0.195292
H2    H     H_    0.819120 0.641033 0.613638 0.177869
H3    H     H_    0.080259 0.640576 0.613874 0.133991
H4    H     H_    0.180420 0.358567 0.386789 0.155547
H5    H     H_    0.919013 0.357561 0.387856 0.171766
H6    H     H_    0.900804 0.371880 0.980316 0.212370
H7    H     H_    0.415256 0.544705 0.181265 0.151756
H8    H     H_    0.158510 0.573951 0.824809 0.160550
H9    H     H_    0.259824 0.577857 0.107530 0.125716
H10   H     H_    0.090560 0.615694 0.010682 0.168908
H11   H     H_    0.622071 0.350649 0.750736 0.199580
N1    N     N_R   0.147940 0.499970 0.499970 -0.174229
N2    N     N_R   0.852060 0.500060 0.499990 -0.177027
O1    O     O_R   0.381250 0.680340 0.500010 -0.599413
O2    O     O_R   0.618820 0.680370 0.500010 -0.532754
O3    O     O_R   0.323240 0.499950 0.650980 -0.579914
O4    O     O_R   0.560810 0.499980 0.650980 -0.591537
O5    O     O_R   0.381180 0.319630 0.499990 -0.565017
O6    O     O_R   0.618750 0.319660 0.499990 -0.567049
O7    O     O_R   0.439190 0.500020 0.349020 -0.589831
O8    O     O_R   0.676760 0.500050 0.349020 -0.555685
C29   C     C_2   0.896981 0.441047 0.168108 0.825090
O9    O     O_2   0.972833 0.347392 0.157474 -0.578924
O10   O     O_R   0.935258 0.545938 0.213871 -0.753255
H12   H     H_    0.025911 0.532127 0.237137 0.313822
C30   C     C_2   0.649696 0.121669 0.627970 0.929865
O11   O     O_2   0.596542 0.114841 0.722478 -0.553261
O12   O     O_R   0.785775 0.178930 0.583847 -0.728382
H13   H     H_    0.828293 0.213999 0.637999 0.363328
C31   C     C_2   0.375360 0.125151 0.356755 0.875754
O13   O     O_2   0.262633 0.087268 0.341909 -0.571734
O14   O     O_R   0.451829 0.223585 0.297542 -0.767534
H14   H     H_    0.402157 0.256384 0.245988 0.334477
F1    F     F_    0.833166 0.314851 0.825303 -0.666356
F2    F     F_    0.635336 0.868915 0.623518 -0.651450

loop_
_geom_bond_atom_site_label_1
_geom_bond_atom_site_label_2
_ccdc_geom_bond_type
C20   N1    A    
C22   O5    A    
Cu2   O8    S    
C9    C24   A    
O14   H14   S    
C21   H5    S    
C26   H8    S    
Cu1   N1    S    
C15   C31   S    
Cu1   O3    S    
C1    O1    A    
C23   O8    A    
C14   C15   A    
C19   N1    A    
C27   H10   S    
C4    C8    A    
C13   C30   S    
C20   H4    S    
C14   C22   S    
C5    C24   A    
C2    C3    A    
C9    C25   A    
C3    C10   A    
C24   H6    S    
C13   C14   A    
C29   O9    D    
C16   H1    S    
C8    C25   A    
C11   C13   A    
C1    O2    A    
C26   C27   A    
Cu1   Cu2   S    
C9    C29   S    
C10   C12   S    
C12   O4    A    
C2    C4    A    
C31   O14   S    
Cu2   O6    S    
C30   O12   S    
C6    C7    A    
C3    C7    A    
Cu1   O7    S    
C22   O6    A    
Cu1   O1    S    
C5    C6    A    
Cu2   N2    S    
C18   H2    S    
C8    H7    S    
Cu1   O5    S    
C15   C16   A    
Cu2   O4    S    
C4    C5    A    
C23   C25   S    
C20   C21   A    
C12   O3    A    
C18   C19   A    
C19   H3    S    
C6    F1    S    
C27   C28   A    
C30   O11   D    
O10   H12   S    
C31   O13   D    
C23   O7    A    
C2    C28   A    
Cu2   O2    S    
C28   H9    S    
O12   H13   S    
C18   N2    A    
C1    C17   S    
C10   C26   A    
C21   N2    A    
C11   F2    S    
C7    H11   S    
C29   O10   S    
C16   C17   A    
C11   C17   A    
