data_mof_unit_53498.cif
_audit_creation_date              2012-12-10T17:07:05-0500
_audit_creation_method            fapswitch 2.2
_symmetry_space_group_name_H-M    P1
_symmetry_Int_Tables_number       1
_space_group_crystal_system       triclinic
_cell_length_a                    18.218886
_cell_length_b                    18.403652
_cell_length_c                    18.252236
_cell_angle_alpha                 119.944191
_cell_angle_beta                  120.148147
_cell_angle_gamma                 60.425852
_cell_volume                      4338.07496801

loop_
_atom_site_label
_atom_site_type_symbol
_atom_type_description
_atom_site_fract_x
_atom_site_fract_y
_atom_site_fract_z
_atom_type_partial_charge
C1    C     C_R   0.139947 0.853263 0.633267 0.915667
C2    C     C_R   0.703667 0.463738 0.740598 0.396472
C3    C     C_R   0.693693 0.407798 0.650635 -0.020266
C4    C     C_R   0.866268 0.140120 0.359930 0.932677
C5    C     C_R   0.719236 0.315637 0.629715 0.440901
C6    C     C_R   0.906387 0.307034 0.402853 0.403986
C7    C     C_R   0.931795 0.369987 0.406006 0.083780
C8    C     C_R   0.881650 0.411243 0.341317 0.450868
C9    C     C_R   0.808018 0.387235 0.271001 -0.257491
C10   C     C_R   0.782082 0.322800 0.264216 -0.084591
C11   C     C_R   0.835618 0.275382 0.325995 -0.104446
C12   C     C_R   0.798168 0.196955 0.900461 -0.226004
C13   C     C_R   0.818018 0.196639 0.303098 -0.241884
C14   C     C_R   0.752732 0.168174 0.219511 0.417934
C15   C     C_R   0.688932 0.226791 0.172629 0.407058
C16   C     C_R   0.141010 0.138799 0.644870 0.903777
C17   C     C_R   0.703692 0.304087 0.195152 -0.176357
C18   C     C_R   0.729531 0.876192 0.432637 0.197069
C19   C     C_R   0.697650 0.855279 0.473128 0.189714
C20   C     C_R   0.644770 0.800451 0.418775 -0.257393
C21   C     C_R   0.624150 0.768554 0.325982 0.193011
C22   C     C_R   0.678348 0.766263 0.289555 -0.071108
C23   C     C_R   0.780832 0.225070 0.832735 0.047579
C24   C     C_R   0.733053 0.821502 0.344749 -0.042883
C25   C     C_R   0.774972 0.832665 0.304899 -0.187919
C26   C     C_R   0.734065 0.819338 0.212108 0.064413
C27   C     C_R   0.683937 0.760458 0.156451 0.467042
C28   C     C_R   0.852269 0.867138 0.359798 0.887033
C29   C     C_R   0.668514 0.723138 0.196769 -0.190034
C30   C     C_R   0.071415 0.749414 0.662613 0.142309
C31   C     C_R   0.032582 0.743006 0.708523 0.082903
C32   C     C_R   0.075937 0.754913 0.800967 0.427219
C33   C     C_R   0.165605 0.753283 0.841699 0.165351
C34   C     C_R   0.839012 0.177025 0.781749 0.002935
C35   C     C_R   0.210112 0.740345 0.788764 -0.121460
C36   C     C_R   0.156917 0.761086 0.709169 -0.067766
C37   C     C_R   0.195452 0.784332 0.676326 -0.174932
C38   C     C_R   0.289225 0.748025 0.695038 0.098070
C39   C     C_R   0.341685 0.698589 0.753050 0.468936
C40   C     C_R   0.140322 0.864406 0.359645 0.805790
C41   C     C_R   0.303952 0.699484 0.805396 -0.178049
C42   C     C_R   0.338395 0.832003 0.432712 -0.154363
C43   C     C_R   0.429551 0.794287 0.474666 0.162421
C44   C     C_R   0.475334 0.708835 0.430636 -0.234266
C45   C     C_R   0.716530 0.307642 0.823642 -0.056076
C46   C     C_R   0.432787 0.664456 0.341278 0.537560
C47   C     C_R   0.344244 0.709869 0.293509 -0.038601
C48   C     C_R   0.292553 0.785915 0.344088 -0.021560
C49   C     C_R   0.197426 0.813574 0.303460 -0.117264
C50   C     C_R   0.158818 0.782351 0.208590 0.177386
C51   C     C_R   0.213660 0.721396 0.157781 -0.207591
C52   C     C_R   0.858262 0.140093 0.638588 0.923946
C53   C     C_R   0.305705 0.685305 0.198359 -0.127305
C54   C     C_R   0.247851 0.159666 0.841718 0.116078
C55   C     C_R   0.265525 0.196180 0.935107 0.547791
C56   C     C_R   0.722876 0.341885 0.773923 -0.132960
C57   C     C_R   0.296822 0.268776 0.985247 -0.269230
C58   C     C_R   0.310684 0.303915 0.943156 -0.191477
C59   C     C_R   0.285696 0.272703 0.848657 0.007410
C60   C     C_R   0.244484 0.206135 0.796100 -0.120865
C61   C     C_R   0.201911 0.190687 0.701604 -0.240291
C62   C     C_R   0.214315 0.229232 0.660167 0.436171
C63   C     C_R   0.267139 0.284500 0.712190 0.421778
C64   C     C_R   0.925543 0.119299 0.817131 0.079539
C65   C     C_R   0.301959 0.306346 0.805864 -0.214633
C66   C     C_R   0.633412 0.647042 0.140407 0.870104
C67   C     C_R   0.748945 0.282436 0.699072 -0.126298
C68   C     C_R   0.359507 0.360884 0.858493 0.867534
C69   C     C_R   0.640032 0.360403 0.140071 0.877859
C70   C     C_R   0.359751 0.642999 0.862245 0.867602
C71   C     C_R   0.360367 0.634862 0.140534 0.881133
C72   C     C_R   0.646363 0.360688 0.866249 0.797574
C73   C     C_R   0.942912 0.094453 0.887551 0.163205
C74   C     C_R   0.876491 0.129940 0.925138 0.145836
C75   C     C_3   0.906799 0.345453 0.541467 -0.108774
C76   C     C_3   0.844390 0.557161 0.365027 -0.199851
C77   C     C_3   0.610218 0.154104 0.028990 -0.134611
C78   C     C_R   0.811306 0.197524 0.703752 -0.080354
C79   C     C_3   0.685763 0.721519 0.015043 -0.098537
C80   C     C_3   0.976381 0.837130 0.876459 -0.146937
C81   C     C_3   0.438172 0.566146 0.696965 -0.169102
C82   C     C_3   0.437015 0.522701 0.293789 -0.279083
C83   C     C_3   0.211251 0.131276 0.517398 -0.230555
C84   C     C_3   0.202444 0.207905 0.023298 -0.197057
C85   C     C_3   0.354112 0.270115 0.646953 -0.257804
C86   C     C_3   0.773862 0.558191 0.781096 -0.192322
C87   C     C_3   0.630202 0.247232 0.497048 -0.248181
C88   C     C_3   0.806986 0.028362 0.132532 -0.163903
C89   C     C_R   0.718402 0.430143 0.802865 0.116676
H1    H     H_    0.773788 0.417247 0.219465 0.168400
H2    H     H_    0.911100 0.411973 0.563793 0.137076
H3    H     H_    0.940343 0.325734 0.601908 0.199745
H4    H     H_    0.870051 0.606447 0.375746 0.213907
H5    H     H_    0.833849 0.575436 0.427931 0.180503
H6    H     H_    0.779477 0.562174 0.308445 0.154828
H7    H     H_    0.660257 0.153237 0.010218 0.146156
H8    H     H_    0.543606 0.172428 0.977782 0.188959
H9    H     H_    0.623452 0.086938 0.025370 0.199328
H10   H     H_    0.659214 0.673027 0.950272 0.236519
H11   H     H_    0.758395 0.688774 0.047067 0.132128
H12   H     H_    0.605962 0.797844 0.446416 0.198639
H13   H     H_    0.677813 0.775046 0.997312 0.185582
H14   H     H_    0.933757 0.869573 0.824004 0.169227
H15   H     H_    0.013363 0.880398 0.938187 0.210508
H16   H     H_    0.930708 0.830078 0.894098 0.205515
H17   H     H_    0.413119 0.529276 0.707798 0.109816
H18   H     H_    0.509935 0.528689 0.704371 0.203100
H19   H     H_    0.401831 0.567701 0.627057 0.154747
H20   H     H_    0.434194 0.535483 0.358909 0.182511
H21   H     H_    0.477748 0.452272 0.270107 0.205740
H22   H     H_    0.368702 0.531853 0.242330 0.136576
H23   H     H_    0.305524 0.898802 0.468950 0.180642
H24   H     H_    0.279454 0.095491 0.555758 0.125339
H25   H     H_    0.217856 0.136223 0.462985 0.195136
H26   H     H_    0.166607 0.091087 0.484845 0.158510
H27   H     H_    0.190490 0.166980 0.042202 0.229688
H28   H     H_    0.136481 0.240885 0.979984 0.156658
H29   H     H_    0.229105 0.258079 0.086375 0.145944
H30   H     H_    0.415585 0.258084 0.705621 0.152682
H31   H     H_    0.363723 0.304324 0.618286 0.188651
H32   H     H_    0.346318 0.205990 0.594275 0.172903
H33   H     H_    0.766034 0.629270 0.805004 0.202714
H34   H     H_    0.544157 0.676590 0.465691 0.198989
H35   H     H_    0.789670 0.525184 0.718156 0.169931
H36   H     H_    0.831303 0.530032 0.833660 0.158621
H37   H     H_    0.575038 0.310224 0.490328 0.173538
H38   H     H_    0.619011 0.219369 0.531095 0.166576
H39   H     H_    0.627451 0.199458 0.428253 0.216206
H40   H     H_    0.782590 0.046560 0.072874 0.133762
H41   H     H_    0.809521 0.958907 0.107456 0.217140
H42   H     H_    0.876885 0.030046 0.172614 0.186865
H43   H     H_    0.183523 0.702705 0.085263 0.216062
H44   H     H_    0.316562 0.294197 0.057808 0.166229
H45   H     H_    0.339768 0.356806 0.985307 0.146984
H46   H     H_    0.755971 0.230642 0.940776 0.196323
H47   H     H_    0.835214 0.350195 0.514832 0.174064
I1    I     I_    0.646862 0.460777 0.548756 -0.351792
I2    I     I_    0.912230 0.709961 0.640840 -0.262610
I3    I     I_    0.222181 0.791875 0.985536 -0.209353
I4    I     I_    0.020709 0.826045 0.130082 -0.348830
I5    I     I_    0.496411 0.864564 0.606522 -0.267852
I6    I     I_    0.073053 0.013633 0.946586 -0.283575
I7    I     I_    0.274631 0.020276 0.790184 -0.147553
I8    I     I_    0.895305 0.098347 0.031894 -0.425732
I9    I     I_    0.779562 0.491821 0.942805 -0.372634
I10   I     I_    0.046745 0.405297 0.510460 -0.119484
I11   I     I_    0.713884 0.915207 0.165302 -0.218527
I12   I     I_    0.705307 0.014086 0.472003 -0.322204
I13   I     I_    0.702413 0.925281 0.608925 -0.265056
I14   I     I_    0.484291 0.791883 0.254994 -0.285837
I15   I     I_    0.040277 0.098502 0.794248 -0.315841
I16   I     I_    0.357087 0.752986 0.630232 -0.187237
I17   I     I_    0.019144 0.707355 0.518602 -0.302285
O1    O     O_3   1.000000 0.000000 0.500000 -0.515146
O2    O     O_R   0.323460 0.615830 0.884170 -0.626764
O3    O     O_R   0.444880 0.615840 0.176480 -0.575566
O4    O     O_R   0.055060 0.884200 0.615800 -0.611113
O5    O     O_R   0.615800 0.444940 0.884180 -0.619588
O6    O     O_R   0.323440 0.615840 0.055040 -0.640073
O7    O     O_R   0.615780 0.323500 0.884180 -0.658321
O8    O     O_R   0.615760 0.323500 0.055050 -0.646209
O9    O     O_R   0.444910 0.615830 0.884180 -0.579910
O10   O     O_R   0.615780 0.615830 0.176490 -0.655168
O11   O     O_R   0.323430 0.444950 0.884170 -0.618928
O12   O     O_R   0.055100 0.176520 0.615800 -0.620404
O13   O     O_R   0.884210 0.176520 0.444920 -0.588453
O14   O     O_R   0.176540 0.055080 0.615800 -0.638879
O15   O     O_R   0.884190 0.884200 0.323480 -0.608976
O16   O     O_R   0.176540 0.884190 0.444930 -0.652065
O17   O     O_R   0.884180 0.055090 0.615790 -0.610930
O18   O     O_R   0.055100 0.884190 0.323490 -0.614055
O19   O     O_R   0.884190 0.176530 0.615790 -0.613484
O20   O     O_3   0.949825 0.281046 0.477290 -0.560552
O21   O     O_3   0.908023 0.472043 0.344759 -0.572517
O22   O     O_3   0.605894 0.215824 0.114350 -0.601715
O23   O     O_R   0.884180 0.884200 0.444920 -0.614538
O24   O     O_3   0.632313 0.754997 0.067377 -0.570243
O25   O     O_3   0.036809 0.752347 0.847502 -0.576132
O26   O     O_3   0.431143 0.652408 0.760911 -0.542411
O27   O     O_3   0.478378 0.576428 0.304121 -0.574080
O28   O     O_3   0.171075 0.217680 0.569151 -0.540164
O29   O     O_3   0.265171 0.151875 0.977871 -0.567931
O30   O     O_3   0.276950 0.324658 0.672079 -0.561913
O31   O     O_3   0.693136 0.551930 0.766670 -0.556280
O32   O     O_3   0.714771 0.259646 0.542759 -0.575442
O33   O     O_3   0.749101 0.083440 0.184007 -0.565947
O34   O     O_R   0.176510 0.884190 0.615800 -0.601414
O35   O     O_R   0.884210 0.055080 0.323480 -0.613259
O36   O     O_3   0.499970 0.500030 0.999970 -0.511804
O37   O     O_R   0.615800 0.615830 0.055050 -0.576975
O38   O     O_R   0.444880 0.323510 0.884180 -0.657550
O39   O     O_R   0.615760 0.444950 0.176490 -0.626345
Zn1   Zn    Zn3+2 0.956630 0.130130 0.543370 1.033510
Zn2   Zn    Zn3+2 0.130140 0.956620 0.543380 1.014986
Zn3   Zn    Zn3+2 0.956630 0.956620 0.369870 1.032341
Zn4   Zn    Zn3+2 0.956610 0.956630 0.543370 1.048644
Zn5   Zn    Zn3+2 0.543340 0.369890 0.956600 0.952834
Zn6   Zn    Zn3+2 0.543340 0.543410 0.130100 1.018341
Zn7   Zn    Zn3+2 0.369830 0.543410 0.956590 1.024932
Zn8   Zn    Zn3+2 0.543370 0.543400 0.956600 1.044723

loop_
_geom_bond_atom_site_label_1
_geom_bond_atom_site_label_2
_ccdc_geom_bond_type
O36   Zn6   S    
C24   C25   A    
C63   C65   A    
C17   C69   S    
C23   C45   A    
C22   C29   A    
C12   C74   A    
C75   O20   S    
O4    Zn4   S    
C73   C74   A    
C83   H24   S    
C35   C36   A    
O13   Zn1   S    
C5    O32   S    
C5    C67   A    
C57   H44   S    
C52   O19   A    
C87   H38   S    
O37   Zn8   S    
C7    C8    A    
C39   C41   A    
C54   C60   A    
C58   H45   S    
C25   C28   S    
C89   I9    S    
C12   C23   A    
C26   C27   A    
C62   C63   A    
C80   H15   S    
C18   C24   A    
C82   H21   S    
C79   H10   S    
C36   C37   A    
C69   O8    A    
C18   I12   S    
C76   H6    S    
C30   C31   A    
C14   O33   S    
C8    O21   S    
C27   C29   A    
C10   C17   A    
C40   C49   S    
O9    Zn8   S    
C72   O5    A    
C83   O28   S    
C18   C19   A    
C4    C13   S    
C85   H30   S    
C42   H23   S    
C87   H39   S    
C76   H5    S    
C81   H17   S    
O1    Zn1   S    
C30   I17   S    
C47   C48   A    
C45   C56   A    
C84   H28   S    
O15   Zn3   S    
C86   H33   S    
O5    Zn8   S    
C64   C73   A    
C79   O24   S    
C79   H13   S    
C85   H32   S    
C3    I1    S    
C88   H41   S    
C9    C10   A    
C86   H36   S    
O11   Zn7   S    
C1    C37   S    
C47   C53   A    
C7    I10   S    
O1    Zn4   S    
O36   Zn7   S    
C88   O33   S    
C54   I7    S    
C81   H19   S    
C59   C60   A    
C85   O30   S    
C13   C14   A    
C45   C72   S    
C86   O31   S    
C83   H25   S    
C32   O25   S    
O19   Zn1   S    
C26   I11   S    
C67   C78   A    
C88   H40   S    
C52   C78   S    
C70   O9    A    
C69   O39   A    
C38   I16   S    
C40   O16   A    
C44   C46   A    
C6    C7    A    
C73   I6    S    
C1    O34   A    
O3    Zn6   S    
C75   H2    S    
C63   O30   S    
C80   H14   S    
C70   O2    A    
C82   H20   S    
C83   H26   S    
C79   H11   S    
C81   H18   S    
O10   Zn6   S    
O18   Zn3   S    
C52   O17   A    
C6    C11   A    
C75   H47   S    
C8    C9    A    
C42   C48   A    
C20   H12   S    
C64   I15   S    
C68   O38   A    
C25   C26   A    
C80   H16   S    
C12   H46   S    
O12   Zn1   S    
C60   C61   A    
C51   C53   A    
C80   O25   S    
C2    C89   A    
C43   C44   A    
C37   C38   A    
C46   O27   S    
C76   H4    S    
C31   C32   A    
C16   O12   A    
C65   C68   S    
C34   C64   A    
C50   C51   A    
C77   H9    S    
C2    O31   S    
C21   I14   S    
O23   Zn4   S    
C31   I2    S    
C77   H8    S    
C81   O26   S    
C19   I13   S    
O16   Zn2   S    
C75   H3    S    
O1    Zn3   S    
O36   Zn8   S    
C84   H29   S    
C56   C89   A    
O39   Zn6   S    
C55   C57   A    
O34   Zn2   S    
C86   H35   S    
O14   Zn2   S    
C22   C24   A    
C84   H27   S    
C43   I5    S    
C42   C43   A    
C53   C71   S    
O2    Zn7   S    
C27   O24   S    
O36   Zn5   S    
C54   C55   A    
C15   C17   A    
C74   I8    S    
C46   C47   A    
C48   C49   A    
C23   C34   A    
C77   H7    S    
C59   C65   A    
C15   O22   S    
C28   O23   A    
O38   Zn5   S    
C3    C5    A    
O35   Zn3   S    
C9    H1    S    
C39   O26   S    
C51   H43   S    
O7    Zn5   S    
C6    O20   S    
O8    Zn5   S    
C56   C67   A    
C71   O6    A    
C44   H34   S    
C72   O7    A    
C30   C36   A    
C32   C33   A    
C4    O35   A    
C19   C20   A    
C84   O29   S    
C2    C3    A    
C58   C59   A    
C68   O11   A    
C1    O4    A    
C82   H22   S    
C62   O28   S    
O17   Zn4   S    
C11   C13   A    
C57   C58   A    
C38   C39   A    
C33   I3    S    
C71   O3    A    
C66   O37   A    
O6    Zn7   S    
C33   C35   A    
C55   O29   S    
C4    O13   A    
C66   O10   A    
C50   I4    S    
C76   O21   S    
C40   O18   A    
C61   C62   A    
C35   C41   A    
C10   C11   A    
C28   O15   A    
C29   C66   S    
O1    Zn2   S    
C85   H31   S    
C20   C21   A    
C77   O22   S    
C49   C50   A    
C16   C61   S    
C82   O27   S    
C14   C15   A    
C16   O14   A    
C88   H42   S    
C21   C22   A    
C87   H37   S    
C34   C78   A    
C41   C70   S    
C87   O32   S    
