data_mof_unit_37135.cif
_audit_creation_date              2012-12-10T16:50:58-0500
_audit_creation_method            fapswitch 2.2
_symmetry_space_group_name_H-M    P1
_symmetry_Int_Tables_number       1
_space_group_crystal_system       triclinic
_cell_length_a                    8.071899
_cell_length_b                    8.526786
_cell_length_c                    10.871863
_cell_angle_alpha                 92.575872
_cell_angle_beta                  85.948094
_cell_angle_gamma                 93.432906
_cell_volume                      744.448816762

loop_
_atom_site_label
_atom_site_type_symbol
_atom_type_description
_atom_site_fract_x
_atom_site_fract_y
_atom_site_fract_z
_atom_type_partial_charge
C1    C     C_R   0.544440 0.793172 0.497045 0.924176
C2    C     C_R   0.925868 0.522395 0.082331 -0.127708
C3    C     C_R   0.077731 0.598947 0.091846 -0.127859
C4    C     C_R   0.956341 0.488999 0.955266 -0.145550
C5    C     C_R   0.207085 0.507581 0.124146 0.163354
C6    C     C_R   0.815951 0.474663 0.883259 0.099122
C7    C     C_R   0.358838 0.553391 0.069027 0.027495
C8    C     C_R   0.662096 0.534125 0.933889 0.064716
C9    C     C_R   0.366044 0.578780 0.942791 0.056016
C10   C     C_R   0.651342 0.576588 0.060723 0.029093
C11   C     C_R   0.502577 0.549553 0.129922 -0.207406
C12   C     C_R   0.455580 0.206864 0.503067 0.954127
C13   C     C_R   0.513014 0.541052 0.871689 -0.201044
C14   C     C_2   0.567118 0.957486 0.495375 -0.368636
C15   C     C_2   0.432952 0.042564 0.504812 -0.387924
C16   C     C_R   0.504153 0.509867 0.738874 0.884362
C17   C     C_R   0.500155 0.513145 0.261782 0.844323
C18   C     C_R   0.221413 0.629364 0.894068 -0.189119
C19   C     C_R   0.793466 0.612304 0.119027 -0.207552
C20   C     C_R   0.069566 0.623887 0.963587 -0.137984
H1    H     H_    0.026418 0.383899 0.934240 0.176422
H2    H     H_    0.289052 0.289675 0.160145 0.178246
H3    H     H_    0.919170 0.339913 0.742174 0.190537
H4    H     H_    0.800704 0.237732 0.849940 0.158189
H5    H     H_    0.106957 0.302906 0.395989 0.213448
H6    H     H_    0.997261 0.251038 0.529077 0.183868
H7    H     H_    0.063240 0.772831 0.535035 0.176668
H8    H     H_    0.003856 0.693749 0.671117 0.161119
H9    H     H_    0.084495 0.710245 0.145251 0.134766
H10   H     H_    0.231273 0.699048 0.812692 0.161049
H11   H     H_    0.794554 0.685191 0.203631 0.175558
H12   H     H_    0.010181 0.730578 0.941015 0.148849
H13   H     H_    0.897350 0.415286 0.131231 0.187152
H14   H     H_    0.694238 0.007787 0.486333 0.183505
H15   H     H_    0.305861 0.992311 0.513876 0.169448
H16   H     H_    0.092650 0.315438 0.207516 0.172137
N1    N     N_2   0.950330 0.457950 0.466250 -0.004534
N2    N     N_2   0.049670 0.542050 0.533750 -0.044651
N3    N     N_3   0.180966 0.339099 0.136078 -0.475614
N4    N     N_3   0.809170 0.339580 0.799129 -0.417179
N5    N     N_3   0.991903 0.303190 0.444308 -0.380336
N6    N     N_3   0.987626 0.683778 0.576614 -0.325627
O1    O     O_R   0.389250 0.738570 0.508280 -0.630552
O2    O     O_R   0.610750 0.261430 0.491720 -0.591297
O3    O     O_R   0.678390 0.711630 0.486650 -0.615034
O4    O     O_R   0.321610 0.288370 0.513350 -0.659640
O5    O     O_R   0.355430 0.513480 0.694040 -0.630080
O6    O     O_R   0.644570 0.486520 0.305960 -0.616658
O7    O     O_R   0.644570 0.486540 0.672410 -0.580888
O8    O     O_R   0.355430 0.513460 0.327590 -0.628801
Zn1   Zn    Zn3+2 0.306940 0.517990 0.514440 0.913091
Zn2   Zn    Zn3+2 0.693060 0.482010 0.485560 0.970835

loop_
_geom_bond_atom_site_label_1
_geom_bond_atom_site_label_2
_ccdc_geom_bond_type
C17   O8    A    
C14   H14   S    
C2    C4    A    
C17   O6    A    
C8    C13   A    
C18   H10   S    
C12   C15   S    
C10   C19   A    
O7    Zn2   S    
O1    Zn1   S    
O2    Zn2   S    
C2    C3    A    
C19   H11   S    
C3    C20   A    
C12   O2    A    
C7    C11   A    
C4    H1    S    
H7    N6    S    
C1    O3    A    
N1    N2    D    
H2    N3    S    
C2    H13   S    
H8    N6    S    
H4    N4    S    
N2    Zn1   S    
N2    N6    S    
C18   C20   A    
C5    N3    S    
N1    N5    S    
C8    C10   A    
C6    N4    S    
C4    C6    A    
C10   C11   A    
H5    N5    S    
H3    N4    S    
C4    C20   A    
C7    C9    A    
C9    C18   A    
O6    Zn2   S    
C16   O7    A    
C16   O5    A    
C3    H9    S    
C20   H12   S    
C13   C16   S    
C15   H15   S    
C5    C7    A    
N1    Zn2   S    
C9    C13   A    
C14   C15   D    
C11   C17   S    
C6    C8    A    
C1    C14   S    
O3    Zn2   S    
O8    Zn1   S    
C2    C19   A    
O4    Zn1   S    
C1    O1    A    
H16   N3    S    
O5    Zn1   S    
H6    N5    S    
C3    C5    A    
C12   O4    A    
