data_mof_unit_68357.cif
_audit_creation_date              2012-12-11T16:06:28-0500
_audit_creation_method            fapswitch 2.2
_symmetry_space_group_name_H-M    P1
_symmetry_Int_Tables_number       1
_space_group_crystal_system       triclinic
_cell_length_a                    7.25178
_cell_length_b                    16.277382
_cell_length_c                    14.409886
_cell_angle_alpha                 89.999964
_cell_angle_beta                  89.999033
_cell_angle_gamma                 90.000713
_cell_volume                      1700.94284565

loop_
_atom_site_label
_atom_site_type_symbol
_atom_type_description
_atom_site_fract_x
_atom_site_fract_y
_atom_site_fract_z
_atom_type_partial_charge
O1    O     O_R   0.388780 0.834790 0.412340 -0.531308
O2    O     O_R   0.111220 0.165210 0.912340 -0.531191
O3    O     O_R   0.888780 0.665210 0.587660 -0.531165
O4    O     O_R   0.611220 0.334790 0.087660 -0.531232
O5    O     O_R   0.059040 0.845930 0.587040 -0.499058
O6    O     O_R   0.440960 0.154070 0.087040 -0.499045
O7    O     O_R   0.559040 0.654070 0.412960 -0.499027
O8    O     O_R   0.940960 0.345930 0.912960 -0.499060
C1    C     C_R   0.226984 0.863833 0.620545 0.822293
C2    C     C_R   0.273020 0.136187 0.120566 0.822208
C3    C     C_R   0.726979 0.636178 0.379443 0.822453
C4    C     C_R   0.773017 0.363832 0.879453 0.822273
O9    O     O_R   0.059070 0.845930 0.412970 -0.500453
O10   O     O_R   0.440930 0.154070 0.912970 -0.500217
O11   O     O_R   0.559070 0.654070 0.587030 -0.500236
O12   O     O_R   0.940930 0.345930 0.087030 -0.500280
O13   O     O_R   0.888760 0.665210 0.412340 -0.540055
O14   O     O_R   0.611240 0.334790 0.912340 -0.540119
O15   O     O_R   0.388760 0.834790 0.587660 -0.540121
O16   O     O_R   0.111240 0.165210 0.087660 -0.540155
C5    C     C_R   0.228286 0.864598 0.381317 0.788734
C6    C     C_R   0.271743 0.135469 0.881241 0.787762
C7    C     C_R   0.728258 0.635467 0.618756 0.787854
C8    C     C_R   0.771732 0.364557 0.118730 0.787980
O17   O     O_3   0.222280 0.690700 0.500000 -0.361356
O18   O     O_3   0.277720 0.309300 0.000000 -0.361370
O19   O     O_3   0.722280 0.809300 0.500000 -0.361397
O20   O     O_3   0.777720 0.190700 0.000000 -0.361410
V1    V     V_3+5 0.947430 0.761000 0.500000 1.622871
V2    V     V_3+5 0.552570 0.239000 0.000000 1.623171
V3    V     V_3+5 0.447430 0.739000 0.500000 1.623120
V4    V     V_3+5 0.052570 0.261000 0.000000 1.623088
C9    C     C_3   0.940216 0.554445 0.730205 0.219922
C10   C     C_3   0.559732 0.445613 0.230129 0.219986
C11   C     C_3   0.440317 0.945705 0.270007 0.220047
C12   C     C_3   0.059795 0.054450 0.769783 0.219879
H1    H     H_    0.998317 0.612349 0.755051 0.107238
H2    H     H_    0.501566 0.387718 0.254952 0.107277
H3    H     H_    0.498520 0.887821 0.245201 0.107613
H4    H     H_    0.001698 0.112354 0.744939 0.107190
C13   C     C_3   0.943020 0.489991 0.810742 1.041421
C14   C     C_3   0.556915 0.510053 0.310680 1.041420
C15   C     C_3   0.443180 0.010123 0.189438 1.042245
C16   C     C_3   0.056998 0.989998 0.689244 1.041353
H5    H     H_    0.772894 0.481233 0.575442 0.215881
H6    H     H_    0.727183 0.518813 0.075405 0.215950
H7    H     H_    0.272908 0.018909 0.424630 0.216525
H8    H     H_    0.227144 0.981239 0.924549 0.215882
H9    H     H_    0.887743 0.388685 0.680286 0.208471
H10   H     H_    0.612355 0.611372 0.180249 0.208463
H11   H     H_    0.387433 0.111496 0.319770 0.208292
H12   H     H_    0.112231 0.888701 0.819710 0.208532
C17   C     C_3   0.693855 0.485236 0.641142 0.477748
C18   C     C_3   0.806190 0.514795 0.141113 0.477667
C19   C     C_3   0.193813 0.014852 0.358952 0.476981
C20   C     C_3   0.306160 0.985239 0.858846 0.477699
C21   C     C_3   0.603308 0.576985 0.778116 0.380439
C22   C     C_3   0.896587 0.423025 0.278086 0.380566
C23   C     C_3   0.103642 0.923041 0.221969 0.380426
C24   C     C_3   0.396722 0.076987 0.721884 0.380461
C25   C     C_3   0.740332 0.566578 0.691914 -0.315270
C26   C     C_3   0.759633 0.433456 0.191872 -0.315311
C27   C     C_3   0.240431 0.933516 0.308204 -0.315646
C28   C     C_3   0.259677 0.066582 0.808079 -0.315202
C29   C     C_3   0.764021 0.435372 0.807706 -0.348399
C30   C     C_3   0.735959 0.564647 0.307682 -0.348436
C31   C     C_3   0.264036 0.064676 0.192352 -0.349225
C32   C     C_3   0.235984 0.935375 0.692289 -0.348283
C33   C     C_3   0.747365 0.409216 0.701817 -0.159555
C34   C     C_3   0.752700 0.590813 0.201798 -0.159572
C35   C     C_3   0.247135 0.090868 0.298225 -0.159368
C36   C     C_3   0.252618 0.909221 0.798179 -0.159614
C37   C     C_3   0.597214 0.491532 0.831327 0.407029
C38   C     C_3   0.902707 0.508464 0.331324 0.406971
C39   C     C_3   0.097411 0.008424 0.168661 0.407926
C40   C     C_3   0.402807 0.991529 0.668676 0.406948
H13   H     H_    0.473168 0.455565 0.811918 0.161664
H14   H     H_    0.026795 0.544420 0.311962 0.161657
H15   H     H_    0.973135 0.044310 0.187877 0.161507
H16   H     H_    0.526826 0.955550 0.688094 0.161671
F1    F     F_    0.054713 0.528767 0.658407 -0.618660
F2    F     F_    0.445319 0.471318 0.158310 -0.618702
F3    F     F_    0.554494 0.971454 0.341897 -0.619874
F4    F     F_    0.945284 0.028771 0.841577 -0.618574
F5    F     F_    0.508653 0.483923 0.616612 -0.592322
F6    F     F_    0.991403 0.516088 0.116598 -0.592458
F7    F     F_    0.008674 0.016106 0.383583 -0.593883
F8    F     F_    0.491378 0.983923 0.883355 -0.592214
N1    N     N_2   0.624084 0.341969 0.681155 -0.526071
H17   H     H_    0.490217 0.351009 0.702738 0.312276
C41   C     C_3   0.640379 0.311812 0.586037 -0.456187
H18   H     H_    0.575726 0.354843 0.536053 0.290781
H19   H     H_    0.571176 0.252329 0.578079 0.177600
H20   H     H_    0.787148 0.302103 0.566739 0.180990
N2    N     N_2   0.876055 0.658038 0.181177 -0.526189
H21   H     H_    0.009911 0.648954 0.202749 0.312344
C42   C     C_3   0.859789 0.688256 0.086089 -0.456147
H22   H     H_    0.924152 0.645183 0.036054 0.290785
H23   H     H_    0.929302 0.747672 0.078147 0.177634
H24   H     H_    0.713031 0.698124 0.066859 0.181058
N3    N     N_2   0.123646 0.158047 0.318825 -0.526030
H25   H     H_    0.989832 0.148930 0.297199 0.312229
C43   C     C_3   0.139767 0.188240 0.413939 -0.455681
H26   H     H_    0.074853 0.145259 0.463914 0.290853
H27   H     H_    0.070711 0.247769 0.421810 0.177552
H28   H     H_    0.286537 0.197900 0.433336 0.181004
N4    N     N_2   0.375871 0.841968 0.818846 -0.526142
H29   H     H_    0.509749 0.851005 0.797284 0.312312
C44   C     C_3   0.359513 0.811800 0.913956 -0.455981
H30   H     H_    0.423904 0.854879 0.963974 0.290781
H31   H     H_    0.428928 0.752365 0.921948 0.177624
H32   H     H_    0.212730 0.801979 0.933171 0.180950
F9    F     F_    0.956124 0.529909 0.895488 -0.639143
F10   F     F_    0.543731 0.470120 0.395415 -0.639100
F11   F     F_    0.456517 0.970164 0.104723 -0.638682
F12   F     F_    0.043922 0.029919 0.604498 -0.639115
F13   F     F_    0.099274 0.441560 0.800774 -0.667955
F14   F     F_    0.400697 0.558504 0.300700 -0.668020
F15   F     F_    0.599371 0.058588 0.199453 -0.668154
F16   F     F_    0.900736 0.941570 0.699200 -0.667954
N5    N     N_2   0.416052 0.594001 0.744745 -0.439999
H33   H     H_    0.317925 0.549267 0.751461 0.344998
C45   C     C_3   0.340289 0.675605 0.742769 -0.354541
H34   H     H_    0.265062 0.687010 0.808187 0.179111
H35   H     H_    0.240575 0.680625 0.684804 0.190811
H36   H     H_    0.449459 0.721098 0.729597 0.194278
N6    N     N_2   0.083831 0.405998 0.244712 -0.440135
H37   H     H_    0.181948 0.450847 0.251162 0.345141
C46   C     C_3   0.159687 0.324412 0.242808 -0.354428
H38   H     H_    0.234888 0.313055 0.308244 0.179168
H39   H     H_    0.259420 0.319377 0.184852 0.190572
H40   H     H_    0.050547 0.278906 0.229634 0.194461
N7    N     N_2   0.916473 0.906016 0.255334 -0.442686
H41   H     H_    0.819164 0.951429 0.251068 0.347264
C47   C     C_3   0.840001 0.824553 0.256974 -0.354404
H42   H     H_    0.764865 0.813448 0.191464 0.180227
H43   H     H_    0.740270 0.819489 0.314931 0.189980
H44   H     H_    0.948864 0.778918 0.270104 0.194697
N8    N     N_2   0.583971 0.094008 0.755276 -0.439615
H45   H     H_    0.682218 0.049292 0.748356 0.344766
C48   C     C_3   0.659705 0.175619 0.757242 -0.354493
H46   H     H_    0.734911 0.187029 0.691821 0.178990
H47   H     H_    0.759445 0.180644 0.815194 0.190807
H48   H     H_    0.550527 0.221106 0.770426 0.194249
N9    N     N_2   0.661638 0.640194 0.845881 -0.475912
H49   H     H_    0.593368 0.641320 0.908475 0.317249
C49   C     C_3   0.771418 0.713163 0.827057 -0.573014
H50   H     H_    0.719897 0.765567 0.868335 0.217277
H51   H     H_    0.769296 0.731576 0.753459 0.169831
H52   H     H_    0.914364 0.704072 0.852096 0.208540
N10   N     N_2   0.838178 0.359798 0.345816 -0.475984
H53   H     H_    0.906162 0.358717 0.408487 0.317265
C50   C     C_3   0.728349 0.286849 0.326964 -0.573064
H54   H     H_    0.779734 0.234445 0.368285 0.217247
H55   H     H_    0.730607 0.268409 0.253373 0.169944
H56   H     H_    0.585368 0.295968 0.351943 0.208475
N11   N     N_2   0.162150 0.859774 0.154308 -0.475407
H57   H     H_    0.094004 0.858596 0.091683 0.317314
C51   C     C_3   0.271588 0.786740 0.173311 -0.572739
H58   H     H_    0.220329 0.734404 0.131832 0.217156
H59   H     H_    0.268682 0.768243 0.246876 0.169974
H60   H     H_    0.414787 0.795768 0.148620 0.208191
N12   N     N_2   0.338410 0.140194 0.654113 -0.475943
H61   H     H_    0.406668 0.141313 0.591516 0.317217
C52   C     C_3   0.228598 0.213155 0.672924 -0.572991
H62   H     H_    0.280123 0.265562 0.631648 0.217247
H63   H     H_    0.230687 0.231569 0.746525 0.169825
H64   H     H_    0.085663 0.204053 0.647868 0.208542
F17   F     F_    0.581700 0.502210 0.926425 -0.637867
F18   F     F_    0.918128 0.497770 0.426423 -0.638004
F19   F     F_    0.082292 0.997654 0.073563 -0.637903
F20   F     F_    0.418355 0.002203 0.573579 -0.637835

loop_
_geom_bond_atom_site_label_1
_geom_bond_atom_site_label_2
_ccdc_geom_bond_type
O17   V3    S    
C47   H44   S    
C22   C26   S    
C52   H62   S    
C21   N9    S    
O19   V1    S    
O13   V1    S    
O12   C8    A    
O3    C7    A    
N2    H21   S    
C10   C14   S    
C10   C26   S    
C17   C33   S    
C20   F8    S    
N9    H49   S    
C47   H42   S    
C2    C31   S    
O1    C5    A    
N11   H57   S    
O9    V1    S    
N12   C52   S    
C48   H47   S    
C11   H3    S    
O4    C8    A    
C45   H35   S    
C16   F16   S    
C30   C38   S    
O1    V3    S    
C24   N12   S    
C29   C37   S    
N5    C45   S    
O2    V4    S    
C21   C37   S    
C40   F20   S    
C49   H50   S    
C42   H23   S    
C17   C25   S    
C14   F10   S    
N12   H61   S    
C5    C27   S    
C2    O16   A    
C20   C36   S    
C19   C27   S    
O2    C6    A    
N10   H53   S    
C51   H59   S    
O14   V2    S    
C50   H55   S    
C11   C15   S    
H8    C20   S    
C3    C30   S    
C32   C36   S    
C46   H40   S    
C15   F11   S    
O11   C7    A    
C35   N3    S    
O15   V3    S    
C22   N6    S    
N11   C51   S    
H9    C33   S    
N7    C47   S    
N4    C44   S    
H11   C35   S    
O10   V2    S    
C33   N1    S    
N9    C49   S    
C1    O15   A    
C42   H22   S    
O5    V1    S    
O7    V3    S    
O8    V4    S    
N3    H25   S    
C45   H34   S    
C49   H52   S    
C44   H30   S    
C48   H48   S    
C41   H18   S    
C18   F6    S    
C11   F3    S    
O18   V4    S    
C14   F14   S    
C45   H36   S    
C13   C29   S    
C18   C26   S    
C21   N5    S    
C23   N7    S    
C9    H1    S    
C44   H32   S    
O7    C3    A    
N6    C46   S    
O5    C1    A    
H12   C36   S    
C41   H19   S    
C51   H58   S    
C18   C34   S    
C36   N4    S    
C12   H4    S    
O8    C4    A    
H6    C18   S    
C20   C28   S    
C51   H60   S    
O9    C5    A    
C43   H27   S    
C32   C40   S    
N8    C48   S    
C50   H56   S    
O11   V3    S    
N5    H33   S    
C15   C31   S    
O6    V2    S    
C52   H64   S    
C39   F19   S    
N7    H41   S    
C12   C16   S    
N1    C41   S    
N4    H29   S    
C37   F17   S    
N6    H37   S    
N1    H17   S    
C23   C39   S    
C42   H24   S    
C22   N10   S    
C22   C38   S    
H7    C19   S    
C46   H38   S    
O16   V4    S    
C47   H43   S    
C3    O13   A    
C8    C26   S    
C49   H51   S    
C10   H2    S    
C40   H16   S    
C13   F9    S    
O6    C2    A    
C17   F5    S    
N8    H45   S    
N2    C42   S    
C21   C25   S    
O12   V4    S    
C4    C29   S    
C23   C27   S    
N3    C43   S    
C24   C28   S    
C9    C13   S    
O10   C6    A    
C44   H31   S    
C34   N2    S    
H10   C34   S    
C1    C32   S    
C48   H46   S    
C41   H20   S    
C23   N11   S    
O3    V1    S    
C30   C34   S    
C9    F1    S    
C12   F4    S    
C9    C25   S    
C29   C33   S    
O20   V2    S    
C24   C40   S    
C43   H28   S    
C31   C35   S    
N10   C50   S    
C19   F7    S    
O4    V2    S    
C38   F18   S    
C16   C32   S    
C24   N8    S    
H5    C17   S    
C7    C25   S    
C31   C39   S    
C16   F12   S    
C52   H63   S    
C38   H14   S    
C4    O14   A    
C43   H26   S    
C14   C30   S    
C37   H13   S    
C11   C27   S    
C10   F2    S    
C6    C28   S    
C13   F13   S    
C50   H54   S    
C12   C28   S    
C39   H15   S    
C19   C35   S    
C15   F15   S    
C46   H39   S    
