data_mof_unit_45108.cif
_audit_creation_date              2012-12-11T14:34:09-0500
_audit_creation_method            fapswitch 2.2
_symmetry_space_group_name_H-M    P1
_symmetry_Int_Tables_number       1
_space_group_crystal_system       triclinic
_cell_length_a                    13.883058
_cell_length_b                    14.009177
_cell_length_c                    27.335854
_cell_angle_alpha                 89.87892
_cell_angle_beta                  90.030169
_cell_angle_gamma                 119.600564
_cell_volume                      4622.6816431

loop_
_atom_site_label
_atom_site_type_symbol
_atom_type_description
_atom_site_fract_x
_atom_site_fract_y
_atom_site_fract_z
_atom_type_partial_charge
C1    C     C_R   0.233929 0.787064 0.568672 0.538903
C2    C     C_1   0.705159 0.861365 0.860471 0.149850
C3    C     C_1   0.117054 0.875380 0.853761 0.151529
C4    C     C_1   0.118558 0.241405 0.853551 0.148052
C5    C     C_1   0.632422 0.816222 0.658211 0.093427
C6    C     C_1   0.177859 0.816175 0.656640 0.090954
C7    C     C_1   0.177818 0.359626 0.656250 0.047076
C8    C     C_1   0.603868 0.797284 0.616061 0.057710
C9    C     C_1   0.199618 0.805101 0.615254 0.064140
C10   C     C_1   0.192195 0.393037 0.614924 0.049372
C11   C     C_R   0.065340 0.151416 0.096108 0.580655
C12   C     C_R   0.212298 0.446143 0.568559 0.541097
C13   C     C_R   0.774668 0.882301 0.087076 0.586767
C14   C     C_R   0.117232 0.893150 0.087560 0.594925
C15   C     C_R   0.070709 0.162752 0.943099 0.507605
C16   C     C_R   0.779890 0.887198 0.950765 0.549669
C17   C     C_R   0.091651 0.928502 0.943228 0.503195
C18   C     C_R   0.611799 0.889596 0.358521 0.322764
C19   C     C_R   0.100454 0.732704 0.361657 0.345216
C20   C     C_R   0.268586 0.367739 0.361764 0.328848
C21   C     C_R   0.629810 0.899102 0.308134 -0.037965
C22   C     C_R   0.086664 0.743394 0.311713 -0.027302
C23   C     C_R   0.553370 0.765501 0.568794 0.538300
C24   C     C_R   0.244905 0.316513 0.316053 -0.021829
C25   C     C_R   0.659572 0.914544 0.206250 0.028512
C26   C     C_R   0.067687 0.757078 0.209984 0.014417
C27   C     C_R   0.204395 0.237317 0.219547 0.008960
C28   C     C_R   0.232405 0.788847 0.431799 0.579084
C29   C     C_R   0.211625 0.443745 0.431819 0.592596
C30   C     C_R   0.555299 0.766912 0.431441 0.583896
C31   C     C_R   0.632111 0.985654 0.230641 0.466695
C32   C     C_R   0.986099 0.667195 0.236055 0.408182
C33   C     C_R   0.309069 0.274903 0.240682 0.402175
C34   C     C_3   0.672215 0.739696 0.789297 0.184413
C35   C     C_R   0.617370 0.977922 0.281192 -0.041472
C36   C     C_R   0.996423 0.659799 0.286422 -0.017162
C37   C     C_R   0.329172 0.314761 0.288389 -0.014705
C38   C     C_R   0.687631 0.929091 0.156461 -0.084670
C39   C     C_R   0.055873 0.768790 0.159839 -0.135833
C40   C     C_R   0.185839 0.204970 0.170443 -0.138485
C41   C     C_R   0.712351 0.855280 0.133058 -0.038541
C42   C     C_R   0.139591 0.858007 0.134482 -0.038520
C43   C     C_R   0.084053 0.176618 0.148459 -0.045531
C44   C     C_R   0.653826 0.739925 0.361689 0.218315
C45   C     C_3   0.250642 0.940728 0.785361 0.181264
C46   C     C_R   0.262740 0.915756 0.362366 0.214361
C47   C     C_R   0.073655 0.310843 0.373050 0.225731
C48   C     C_R   0.668026 0.745183 0.310540 0.003088
C49   C     C_R   0.255936 0.924186 0.311326 -0.002998
C50   C     C_R   0.050942 0.272193 0.324350 -0.012801
C51   C     C_R   0.653994 0.824550 0.283856 -0.109262
C52   C     C_R   0.167979 0.835920 0.286034 -0.110442
C53   C     C_R   0.137431 0.273713 0.296177 -0.103165
C54   C     C_R   0.691150 0.670475 0.285280 0.262823
C55   C     C_R   0.337042 0.015957 0.284810 0.251106
C56   C     C_3   0.041713 0.295884 0.783656 0.219622
C57   C     C_R   0.947450 0.241188 0.302106 0.256491
C58   C     C_R   0.690779 0.670268 0.234014 0.426033
C59   C     C_R   0.335496 0.012843 0.233555 0.434815
C60   C     C_R   0.931051 0.209448 0.252733 0.409150
C61   C     C_R   0.680574 0.751134 0.207916 -0.001685
C62   C     C_R   0.247075 0.926636 0.208680 -0.006023
C63   C     C_R   0.014443 0.204683 0.225670 0.017131
C64   C     C_3   0.550841 0.832519 0.737131 0.344857
C65   C     C_3   0.141363 0.723547 0.738722 0.351966
C66   C     C_3   0.262169 0.422173 0.738923 0.363085
C67   C     C_3   0.663985 0.732541 0.732405 0.084768
C68   C     C_R   0.664896 0.830165 0.232744 -0.127445
C69   C     C_R   0.160836 0.840005 0.234943 -0.119626
C70   C     C_R   0.118099 0.236766 0.247396 -0.108960
C71   C     C_R   0.692968 0.758629 0.157377 0.418345
C72   C     C_R   0.239814 0.929031 0.157948 0.417800
C73   C     C_R   0.998082 0.174051 0.176343 0.399948
C74   C     C_R   0.615483 0.804824 0.384702 0.034196
C75   C     C_R   0.193242 0.814977 0.386180 0.029676
C76   C     C_R   0.184224 0.370731 0.389051 0.040301
C77   C     C_3   0.758621 0.939755 0.724065 0.312810
C78   C     C_3   0.262828 0.932749 0.729194 0.075183
C79   C     C_3   0.054946 0.840052 0.715921 0.324760
C80   C     C_3   0.164084 0.220203 0.716612 0.321355
C81   C     C_3   0.782756 0.943649 0.779740 0.128247
C82   C     C_3   0.048371 0.870033 0.769859 0.145663
C83   C     C_3   0.133346 0.183086 0.770449 0.130595
C84   C     C_1   0.733496 0.872564 0.902710 0.090106
C85   C     C_1   0.105404 0.898056 0.894944 0.088419
C86   C     C_1   0.099306 0.206902 0.894774 0.088165
C87   C     C_3   0.651824 0.830252 0.711514 -0.031453
C88   C     C_3   0.159460 0.827869 0.708738 -0.043127
C89   C     C_3   0.050773 0.315840 0.727382 0.074520
C90   C     C_3   0.163698 0.329757 0.708363 -0.062439
C91   C     C_3   0.572861 0.850754 0.794408 0.674388
C92   C     C_3   0.116288 0.736568 0.794472 0.674031
C93   C     C_3   0.250246 0.385608 0.794733 0.676999
C94   C     C_3   0.682328 0.849660 0.807457 -0.041335
C95   C     C_3   0.131846 0.854346 0.802373 -0.045193
C96   C     C_3   0.137160 0.276962 0.802113 -0.053872
Cr1   Cr    Cr6+3 0.164410 0.584450 0.499910 1.150130
Cr2   Cr    Cr6+3 0.415550 0.579960 0.499910 1.131290
Cr3   Cr    Cr6+3 0.420040 0.835590 0.499910 1.130384
Cr4   Cr    Cr6+3 0.155170 0.075460 0.019960 1.152691
Cr5   Cr    Cr6+3 0.924540 0.079710 0.019960 1.141406
Cr6   Cr    Cr6+3 0.920290 0.844830 0.019960 1.136410
F1    F     F_    0.485840 0.766561 0.819966 -0.433510
F2    F     F_    0.697388 0.676905 0.132387 -0.501307
F3    F     F_    0.325992 0.007396 0.131655 -0.499272
F4    F     F_    0.899143 0.143891 0.154618 -0.561402
F5    F     F_    0.704951 0.593401 0.209846 -0.484466
F6    F     F_    0.418778 0.096374 0.208186 -0.461187
F7    F     F_    0.836329 0.191162 0.230295 -0.526923
F8    F     F_    0.848729 0.950573 0.697629 -0.479275
F9    F     F_    0.056927 0.919671 0.685048 -0.466133
F10   F     F_    0.090108 0.138972 0.685471 -0.477337
F11   F     F_    0.809445 0.045075 0.798730 -0.680803
F12   F     F_    0.189588 0.724004 0.824777 -0.432900
F13   F     F_    0.941368 0.809108 0.787254 -0.697856
F14   F     F_    0.203349 0.148608 0.789219 -0.711029
F15   F     F_    0.581011 0.650210 0.809956 -0.532163
F16   F     F_    0.330457 0.926938 0.809846 -0.530591
F17   F     F_    0.042359 0.383248 0.807721 -0.529259
F18   F     F_    0.251337 0.466539 0.824359 -0.431869
F19   F     F_    0.583087 0.958238 0.381224 -0.622174
F20   F     F_    0.027477 0.639232 0.385436 -0.577081
F21   F     F_    0.374821 0.419241 0.378325 -0.618951
F22   F     F_    0.619573 0.062695 0.205639 -0.489880
F23   F     F_    0.898147 0.584823 0.212656 -0.530638
F24   F     F_    0.393917 0.279089 0.214332 -0.530441
H1    H     H_    0.745647 0.734487 0.801605 0.229035
H2    H     H_    0.747314 0.010505 0.713916 0.210855
H3    H     H_    0.979412 0.761532 0.706588 0.201069
H4    H     H_    0.247676 0.231860 0.708376 0.204736
H5    H     H_    0.856735 0.933867 0.785271 0.225091
H6    H     H_    0.069038 0.956915 0.771479 0.240222
H7    H     H_    0.047839 0.111624 0.771737 0.213641
H8    H     H_    0.590692 0.653281 0.721478 0.183020
H9    H     H_    0.339104 0.927920 0.721411 0.198569
H10   H     H_    0.045495 0.391266 0.719492 0.188362
H11   H     H_    0.628937 0.010518 0.789843 0.378260
H12   H     H_    0.267394 0.024225 0.794859 0.240007
H13   H     H_    0.954074 0.649723 0.785214 0.367181
H14   H     H_    0.352536 0.326389 0.787363 0.370151
H15   H     H_    0.452985 0.673470 0.746207 0.417335
H16   H     H_    0.296894 0.768254 0.754345 0.426042
H17   H     H_    0.199062 0.518556 0.752896 0.420569
H18   H     H_    0.729096 0.552820 0.288291 0.402777
H19   H     H_    0.465576 0.164785 0.285781 0.408926
H20   H     H_    0.798572 0.223253 0.308127 0.392021
H21   H     H_    0.502018 0.896192 0.685101 0.355043
H22   H     H_    0.075329 0.608901 0.688442 0.356293
H23   H     H_    0.961116 0.222964 0.792368 0.255704
H24   H     H_    0.382358 0.483355 0.690303 0.357261
H25   H     H_    0.609484 0.593498 0.381572 0.402547
H26   H     H_    0.412941 0.008525 0.381323 0.403517
H27   H     H_    0.931224 0.214942 0.401665 0.367946
H28   H     H_    0.752714 0.662718 0.720101 0.349872
H29   H     H_    0.349320 0.088160 0.713430 0.350561
H30   H     H_    0.952150 0.252305 0.671555 0.355757
H31   H     H_    0.695289 0.999584 0.136649 0.254526
H32   H     H_    0.979911 0.712454 0.141136 0.232013
H33   H     H_    0.251584 0.205607 0.148827 0.237607
H34   H     H_    0.596200 0.033984 0.299145 0.211017
H35   H     H_    0.933720 0.588114 0.305523 0.225366
H36   H     H_    0.411919 0.346953 0.303134 0.220259
O1    O     O_R   0.137150 0.468200 0.553200 -0.499057
O2    O     O_R   0.140110 0.470540 0.446010 -0.426559
O3    O     O_R   0.529460 0.669570 0.446010 -0.461963
O4    O     O_R   0.330430 0.859890 0.446010 -0.463675
O5    O     O_R   0.176710 0.690910 0.450560 -0.434335
O6    O     O_R   0.309090 0.485800 0.450560 -0.446019
O7    O     O_R   0.514200 0.823290 0.450560 -0.437328
O8    O     O_3   0.333333 0.666667 0.499990 -0.334657
O9    O     O_R   0.176750 0.985260 0.074180 -0.441098
O10   O     O_R   0.014740 0.191490 0.074180 -0.391168
O11   O     O_R   0.808510 0.823250 0.074180 -0.427336
O12   O     O_R   0.531800 0.668950 0.553200 -0.489204
O13   O     O_R   0.146100 0.172630 0.068980 -0.476031
O14   O     O_R   0.827370 0.973470 0.068980 -0.500264
O15   O     O_R   0.026530 0.853900 0.068980 -0.501329
O16   O     O_3   1.000000 1.000000 0.020040 -0.352651
O17   O     O_R   0.148270 0.170520 0.969620 -0.468949
O18   O     O_R   0.829480 0.977750 0.969620 -0.521523
O19   O     O_R   0.022250 0.851730 0.969620 -0.461902
O20   O     O_3   0.577375 0.948446 0.810749 -0.502533
O21   O     O_3   0.009566 0.654813 0.809341 -0.517170
O22   O     O_3   0.339757 0.372599 0.810875 -0.509095
O23   O     O_R   0.331050 0.862850 0.553200 -0.487759
O24   O     O_3   0.451989 0.733584 0.727636 -0.608815
O25   O     O_3   0.235952 0.711044 0.734715 -0.589387
O26   O     O_3   0.261579 0.522291 0.734028 -0.593137
O27   O     O_3   0.712964 0.598061 0.311016 -0.632803
O28   O     O_3   0.417908 0.106633 0.309287 -0.641631
O29   O     O_3   0.867430 0.252237 0.327642 -0.618681
O30   O     O_3   0.538543 0.919257 0.717524 -0.696382
O31   O     O_3   0.050756 0.628315 0.719109 -0.681066
O32   O     O_3   0.364345 0.438473 0.720590 -0.684400
O33   O     O_3   0.671275 0.667831 0.389503 -0.576777
O34   O     O_R   0.179100 0.982980 0.967000 -0.455375
O35   O     O_3   0.340549 0.003049 0.389117 -0.577601
O36   O     O_3   0.990262 0.292449 0.405587 -0.586548
O37   O     O_3   0.758626 0.734827 0.712616 -0.597867
O38   O     O_3   0.273840 0.027272 0.705842 -0.606842
O39   O     O_3   0.960648 0.226656 0.704316 -0.610879
O40   O     O_R   0.017020 0.196120 0.967000 -0.438819
O41   O     O_R   0.803880 0.820900 0.967000 -0.486516
O42   O     O_R   0.173970 0.688730 0.549930 -0.501818
O43   O     O_R   0.311270 0.485240 0.549930 -0.498889
O44   O     O_R   0.514760 0.826030 0.549930 -0.500436

loop_
_geom_bond_atom_site_label_1
_geom_bond_atom_site_label_2
_ccdc_geom_bond_type
C45   F16   S    
C25   C31   A    
C65   C92   S    
C89   O39   S    
C71   F2    S    
C65   O25   S    
C19   F20   S    
C26   C32   A    
H28   O37   S    
C54   O27   S    
C55   C59   A    
H19   O28   S    
C13   O14   A    
C18   C21   A    
H17   O26   S    
C40   H33   S    
C2    C84   T    
C21   C51   A    
Cr4   O16   S    
C6    C9    T    
C13   C41   S    
C66   C90   S    
C29   C76   S    
C27   C33   A    
Cr6   O11   S    
C13   O11   A    
H16   O25   S    
C46   C49   A    
H14   O22   S    
C60   C63   A    
C17   C85   S    
C32   C36   A    
C29   O6    A    
C31   F22   S    
C57   O29   S    
C15   O17   A    
Cr5   O40   S    
C30   C74   S    
C93   O22   S    
C26   C39   A    
C81   H5    S    
C4    C86   T    
H18   O27   S    
H30   O39   S    
C16   O18   A    
C79   H3    S    
C16   C84   S    
C8    C23   S    
C6    C88   S    
C20   C76   A    
Cr5   O10   S    
C58   F5    S    
C7    C10   T    
H25   O33   S    
C35   H34   S    
H24   O32   S    
C20   F21   S    
C60   F7    S    
C28   O5    A    
C66   O32   S    
C4    C96   S    
C43   C73   A    
C40   C43   A    
C20   C24   A    
C34   H1    S    
Cr1   O1    S    
C47   O36   S    
C11   C43   S    
C45   C78   S    
Cr5   O16   S    
C93   F18   S    
C39   C42   A    
C16   O41   A    
C78   H9    S    
C52   C69   A    
C64   C87   S    
C28   O4    A    
C14   C42   S    
Cr3   O4    S    
C61   C71   A    
C34   F15   S    
C11   O10   A    
C18   C74   A    
C89   H10   S    
C67   H8    S    
Cr4   O9    S    
C66   O26   S    
Cr6   O19   S    
C29   O2    A    
C25   C68   A    
C78   O38   S    
C80   C83   S    
C53   C70   A    
C10   C12   S    
C46   C75   A    
C64   O30   S    
C47   C50   A    
C65   O31   S    
Cr4   O34   S    
C26   C69   A    
C48   C51   A    
C50   C53   A    
C80   H4    S    
Cr3   O44   S    
Cr2   O3    S    
C55   O28   S    
C2    C94   S    
C19   C22   A    
C1    C9    S    
C30   O3    A    
C38   C41   A    
C23   O12   A    
C46   O35   S    
H11   O20   S    
C63   C73   A    
C24   C53   A    
C49   C55   A    
C7    C90   S    
C92   C95   S    
C33   C37   A    
Cr1   O8    S    
C62   C69   A    
C5    C87   S    
C32   F23   S    
C48   C54   A    
Cr6   O41   S    
C30   O7    A    
Cr5   O14   S    
C41   C71   A    
C25   C38   A    
C79   C82   S    
C63   C70   A    
C77   C81   S    
C27   C40   A    
C49   C52   A    
C80   F10   S    
Cr4   O13   S    
C42   C72   A    
C24   C37   A    
C62   C72   A    
Cr2   O43   S    
C44   C74   A    
C77   H2    S    
C1    O42   A    
C27   C70   A    
C79   C88   S    
C15   C86   S    
Cr3   O7    S    
C56   C89   S    
C93   C96   S    
C66   C93   S    
C39   H32   S    
C36   H35   S    
Cr6   O16   S    
C56   F17   S    
C31   C35   A    
C3    C85   T    
Cr1   O42   S    
C82   H6    S    
C45   C95   S    
Cr3   O23   S    
C15   O40   A    
H13   O21   S    
C44   O33   S    
C65   C88   S    
C22   C52   A    
C54   C58   A    
C78   C88   S    
C56   C96   S    
C59   C62   A    
C82   C95   S    
C50   C57   A    
C67   C87   S    
C83   F14   S    
C34   C94   S    
C38   H31   S    
C91   F1    S    
C14   O9    A    
C57   C60   A    
C92   O21   S    
C34   C67   S    
C47   C76   A    
C5    C8    T    
C3    C95   S    
H27   O36   S    
C1    O23   A    
C22   C36   A    
C11   O13   A    
C59   F6    S    
C79   F9    S    
C82   F13   S    
Cr1   O2    S    
Cr3   O8    S    
C12   O43   A    
C19   C75   A    
C21   C35   A    
C89   C90   S    
C23   O44   A    
Cr5   O18   S    
Cr1   O5    S    
C12   O1    A    
C81   C94   S    
C28   C75   S    
C61   C68   A    
C73   F4    S    
C58   C61   A    
Cr2   O12   S    
C83   C96   S    
C33   F24   S    
H26   O35   S    
C67   O37   S    
C51   C68   A    
H21   O30   S    
C80   C90   S    
C77   F8    S    
H20   O29   S    
C64   O24   S    
C83   H7    S    
C14   O15   A    
C18   F19   S    
Cr2   O8    S    
C17   O19   A    
H22   O31   S    
C72   F3    S    
C77   C87   S    
C91   O20   S    
C81   F11   S    
Cr6   O15   S    
C17   O34   A    
C45   H12   S    
H15   O24   S    
C64   C91   S    
C56   H23   S    
Cr4   O17   S    
C92   F12   S    
Cr2   O6    S    
H29   O38   S    
C44   C48   A    
C37   H36   S    
C91   C94   S    
