data_mof_unit_66660.cif
_audit_creation_date              2012-12-11T15:52:25-0500
_audit_creation_method            fapswitch 2.2
_symmetry_space_group_name_H-M    P1
_symmetry_Int_Tables_number       1
_space_group_crystal_system       triclinic
_cell_length_a                    11.232852
_cell_length_b                    11.218488
_cell_length_c                    18.738656
_cell_angle_alpha                 90.172942
_cell_angle_beta                  90.195934
_cell_angle_gamma                 120.162123
_cell_volume                      2041.6089857

loop_
_atom_site_label
_atom_site_type_symbol
_atom_type_description
_atom_site_fract_x
_atom_site_fract_y
_atom_site_fract_z
_atom_type_partial_charge
C1    C     C_R   0.519926 0.454981 0.146668 0.524470
C2    C     C_3   0.017743 0.760618 0.457139 -0.027266
C3    C     C_3   0.753345 0.052338 0.468431 -0.020615
C4    C     C_3   0.273404 0.238138 0.463021 -0.023626
C5    C     C_R   0.516710 0.456490 0.352925 0.562721
C6    C     C_R   0.543559 0.060611 0.352367 0.555273
C7    C     C_R   0.945301 0.486351 0.350708 0.557848
C8    C     C_R   0.455796 0.518671 0.646186 0.546520
C9    C     C_R   0.071474 0.548600 0.643565 0.538552
C10   C     C_R   0.479798 0.934170 0.645819 0.553108
C11   C     C_R   0.463131 0.906080 0.936325 0.025355
C12   C     C_R   0.543899 0.063249 0.147238 0.525290
C13   C     C_R   0.022909 0.514540 0.928130 0.032639
C14   C     C_R   0.444746 0.538291 0.936139 0.024023
C15   C     C_R   0.003262 0.509103 0.078057 -0.029681
C16   C     C_R   0.499678 0.981694 0.081543 -0.032552
C17   C     C_R   0.484570 0.499307 0.080647 -0.032291
C18   C     C_R   0.353978 0.897973 0.976411 0.008214
C19   C     C_R   0.043009 0.420167 0.968172 0.001410
C20   C     C_R   0.556392 0.641726 0.975038 0.004248
C21   C     C_R   0.033134 0.417948 0.042342 0.011214
C22   C     C_R   0.372605 0.936501 0.048185 -0.004639
C23   C     C_R   0.935505 0.479914 0.147129 0.519051
C24   C     C_R   0.572754 0.623719 0.046935 0.004941
C25   C     C_R   0.599364 0.967037 0.044021 -0.119901
C26   C     C_R   0.005034 0.615440 0.038623 -0.141649
C27   C     C_R   0.364862 0.404305 0.043872 -0.136981
C28   C     C_R   0.007308 0.613466 0.965332 -0.124193
C29   C     C_R   0.583017 0.935199 0.972467 -0.116272
C30   C     C_R   0.342363 0.427154 0.974038 -0.143465
C31   C     C_3   0.271860 0.967247 0.964238 0.195404
C32   C     C_3   0.965048 0.264831 0.965742 0.156702
C33   C     C_3   0.709839 0.716896 0.963604 0.175024
C34   C     C_R   0.423892 0.545458 0.859824 0.553656
C35   C     C_3   0.963889 0.265872 0.047053 0.196787
C36   C     C_3   0.288009 0.004280 0.043529 0.175908
C37   C     C_3   0.725299 0.702336 0.043856 0.183357
C38   C     C_R   0.494977 0.978247 0.572666 0.007857
C39   C     C_R   0.042518 0.530033 0.567463 -0.009233
C40   C     C_R   0.480882 0.499570 0.572284 0.000308
C41   C     C_R   0.026743 0.527677 0.416551 -0.001372
C42   C     C_R   0.522038 0.015974 0.425269 0.024976
C43   C     C_R   0.482434 0.491689 0.421886 0.011199
C44   C     C_R   0.625095 0.068305 0.543749 -0.009204
C45   C     C_R   0.068046 0.545471 0.854151 0.512045
C46   C     C_R   0.029405 0.629376 0.529613 0.047771
C47   C     C_R   0.369067 0.398908 0.534026 0.076356
C48   C     C_R   0.036905 0.637120 0.457472 0.023364
C49   C     C_R   0.636972 0.080773 0.470042 0.100779
C50   C     C_R   0.368892 0.392666 0.461200 0.044604
C51   C     C_R   0.396544 0.917362 0.452479 -0.204591
C52   C     C_R   0.064777 0.441678 0.451150 -0.139610
C53   C     C_R   0.578578 0.609545 0.458722 -0.194067
C54   C     C_R   0.069567 0.440744 0.526440 -0.158981
C55   C     C_R   0.384317 0.897124 0.525982 -0.147317
C56   C     C_R   0.454843 0.877893 0.859747 0.548139
C57   C     C_R   0.587117 0.606118 0.533489 -0.184214
C58   C     C_3   0.252820 0.118312 0.888103 -0.013403
C59   C     C_3   0.194496 0.041766 0.817214 -0.253385
C60   C     C_3   0.086355 0.072105 0.786655 -0.503848
C61   C     C_3   0.829610 0.194760 0.863120 0.000285
C62   C     C_3   0.731331 0.236036 0.829487 -0.216482
C63   C     C_3   0.745498 0.247294 0.748506 -0.473892
C64   C     C_3   0.808345 0.711159 0.855575 0.020966
C65   C     C_3   0.782024 0.608251 0.795472 -0.220646
C66   C     C_3   0.836656 0.682132 0.724761 -0.457589
C67   C     C_3   0.758410 0.064570 0.548407 -0.017023
C68   C     C_3   0.040967 0.207658 0.150614 0.014873
C69   C     C_3   0.142872 0.338114 0.192402 -0.256233
C70   C     C_3   0.148308 0.305145 0.270816 -0.460362
C71   C     C_3   0.171074 0.951104 0.152664 0.018787
C72   C     C_3   0.199018 0.849291 0.194086 -0.256646
C73   C     C_3   0.156890 0.840620 0.271952 -0.448551
C74   C     C_3   0.795072 0.826913 0.152377 0.019517
C75   C     C_3   0.669320 0.805259 0.195484 -0.259190
C76   C     C_3   0.707607 0.845256 0.273708 -0.459507
C77   C     C_3   0.003046 0.746661 0.538832 -0.032853
C78   C     C_3   0.284876 0.247166 0.544336 -0.018695
Cr1   Cr    Cr6+3 0.769160 0.541570 0.250690 0.974803
Cr2   Cr    Cr6+3 0.458430 0.227590 0.250690 0.964899
Cr3   Cr    Cr6+3 0.772410 0.230840 0.250690 0.964771
Cr4   Cr    Cr6+3 0.541570 0.769160 0.749310 0.962929
Cr5   Cr    Cr6+3 0.227590 0.458430 0.749310 0.959173
Cr6   Cr    Cr6+3 0.230840 0.772410 0.749310 0.963934
H1    H     H_    0.698579 0.997074 0.066816 0.193438
H2    H     H_    0.858845 0.216109 0.069702 0.163838
H3    H     H_    0.343608 0.117134 0.054644 0.148990
H4    H     H_    0.774494 0.641434 0.058059 0.147567
H5    H     H_    0.310695 0.856200 0.417197 0.104287
H6    H     H_    0.087095 0.374297 0.420111 0.132201
H7    H     H_    0.652774 0.697479 0.429271 0.115944
H8    H     H_    0.095645 0.372545 0.552422 0.196468
H9    H     H_    0.292022 0.810840 0.546272 0.190903
H10   H     H_    0.676693 0.683623 0.561226 0.116148
H11   H     H_    0.844757 0.162129 0.570569 0.173331
H12   H     H_    0.987934 0.692032 0.063329 0.197462
H13   H     H_    0.898559 0.713616 0.559694 0.115438
H14   H     H_    0.345117 0.203559 0.569110 0.143289
H15   H     H_    0.109490 0.855107 0.437598 0.136882
H16   H     H_    0.721417 0.947345 0.447122 0.109000
H17   H     H_    0.170331 0.207538 0.440919 0.101546
H18   H     H_    0.314739 0.228074 0.875972 0.207923
H19   H     H_    0.169102 0.104808 0.924989 0.123518
H20   H     H_    0.279432 0.074143 0.778155 0.185463
H21   H     H_    0.146351 0.929095 0.825039 0.178313
H22   H     H_    0.999573 0.038765 0.824520 0.110296
H23   H     H_    0.294718 0.304901 0.066073 0.194463
H24   H     H_    0.045327 0.014868 0.735715 0.119662
H25   H     H_    0.132281 0.183992 0.776128 0.184824
H26   H     H_    0.797634 0.086522 0.851033 0.154181
H27   H     H_    0.931436 0.252940 0.837851 0.144061
H28   H     H_    0.623559 0.160503 0.843717 0.224218
H29   H     H_    0.753638 0.336711 0.851893 0.178189
H30   H     H_    0.847982 0.334754 0.733961 0.159661
H31   H     H_    0.664954 0.265831 0.725587 0.136867
H32   H     H_    0.733956 0.150951 0.725373 0.191005
H33   H     H_    0.920414 0.780694 0.862673 0.110371
H34   H     H_    0.997001 0.690863 0.937911 0.158328
H35   H     H_    0.768172 0.779239 0.838184 0.143085
H36   H     H_    0.833892 0.549452 0.808079 0.172265
H37   H     H_    0.670265 0.533253 0.790041 0.198851
H38   H     H_    0.785405 0.741196 0.709970 0.163298
H39   H     H_    0.817248 0.605502 0.682077 0.143363
H40   H     H_    0.948837 0.754971 0.729543 0.163439
H41   H     H_    0.069500 0.129685 0.163468 0.124349
H42   H     H_    0.933743 0.165347 0.169840 0.155632
H43   H     H_    0.246000 0.383272 0.169860 0.186514
H44   H     H_    0.118710 0.421260 0.189006 0.161696
H45   H     H_    0.670349 0.946804 0.944094 0.153625
H46   H     H_    0.044644 0.260308 0.294637 0.142284
H47   H     H_    0.220146 0.400807 0.300391 0.145006
H48   H     H_    0.183877 0.229427 0.276111 0.150243
H49   H     H_    0.069673 0.931025 0.169914 0.114126
H50   H     H_    0.241888 0.060308 0.167503 0.162784
H51   H     H_    0.143424 0.746798 0.169171 0.188850
H52   H     H_    0.307464 0.876506 0.192817 0.157194
H53   H     H_    0.215948 0.943057 0.297807 0.135204
H54   H     H_    0.177900 0.766639 0.300619 0.143004
H55   H     H_    0.045695 0.806311 0.275660 0.179702
H56   H     H_    0.249902 0.350367 0.947958 0.123642
H57   H     H_    0.878197 0.929802 0.167787 0.117965
H58   H     H_    0.831647 0.755467 0.167886 0.170963
H59   H     H_    0.628208 0.867110 0.172971 0.189189
H60   H     H_    0.582403 0.699052 0.192941 0.162313
H61   H     H_    0.755029 0.787865 0.296760 0.169048
H62   H     H_    0.614058 0.821099 0.304679 0.145881
H63   H     H_    0.782618 0.957323 0.278325 0.139603
H64   H     H_    0.660051 0.858902 0.562213 0.257139
H65   H     H_    0.833647 0.933775 0.562708 0.197691
H66   H     H_    0.130360 0.953790 0.551262 0.207741
H67   H     H_    0.165250 0.893873 0.947233 0.118217
H68   H     H_    0.076996 0.869666 0.627446 0.238864
H69   H     H_    0.075712 0.116917 0.555165 0.201573
H70   H     H_    0.161444 0.176472 0.632084 0.246352
H71   H     H_    0.813613 0.641884 0.438487 0.269719
H72   H     H_    0.875285 0.815900 0.439432 0.194667
H73   H     H_    0.957214 0.150818 0.457883 0.194912
H74   H     H_    0.875798 0.129751 0.381897 0.243195
H75   H     H_    0.297900 0.072240 0.466919 0.216484
H76   H     H_    0.278488 0.114846 0.386243 0.238274
H77   H     H_    0.021917 0.215906 0.943239 0.106670
H78   H     H_    0.759628 0.827428 0.950029 0.109390
N1    N     N_3   0.750810 0.943371 0.580724 -0.612244
N2    N     N_3   0.112997 0.864519 0.576910 -0.622019
N3    N     N_3   0.154201 0.204980 0.579933 -0.654737
N4    N     N_3   0.893146 0.737680 0.421979 -0.620846
N5    N     N_3   0.876598 0.158221 0.435006 -0.610385
N6    N     N_3   0.330606 0.157506 0.434169 -0.573735
O1    O     O_R   0.911480 0.572650 0.170990 -0.559719
O2    O     O_R   0.528970 0.640340 0.824320 -0.520439
O3    O     O_R   0.111370 0.471030 0.824320 -0.538915
O4    O     O_R   0.359660 0.888630 0.824320 -0.484212
O5    O     O_R   0.909980 0.572450 0.331530 -0.499962
O6    O     O_R   0.427550 0.337530 0.331530 -0.513610
O7    O     O_R   0.662470 0.090020 0.331530 -0.531717
O8    O     O_R   0.572450 0.909980 0.668470 -0.490593
O9    O     O_R   0.337530 0.427550 0.668470 -0.502165
O10   O     O_R   0.090020 0.662470 0.668470 -0.512946
O11   O     O_R   0.638950 0.528780 0.324500 -0.502638
O12   O     O_R   0.427350 0.338830 0.170990 -0.557452
O13   O     O_R   0.471220 0.110170 0.324500 -0.497256
O14   O     O_R   0.889830 0.361050 0.324500 -0.491496
O15   O     O_R   0.528780 0.638950 0.675500 -0.506316
O16   O     O_R   0.110170 0.471220 0.675500 -0.504180
O17   O     O_R   0.361050 0.889830 0.675500 -0.495729
O18   O     O_3   0.666667 0.333333 0.250560 -0.231895
O19   O     O_3   0.333333 0.666667 0.749440 -0.284232
O20   O     O_3   0.344546 0.082768 0.919794 -0.578150
O21   O     O_3   0.830937 0.212839 0.937873 -0.596408
O22   O     O_3   0.749941 0.639558 0.920258 -0.584717
O23   O     O_R   0.661170 0.088520 0.170990 -0.562048
O24   O     O_3   0.054069 0.224697 0.075646 -0.610397
O25   O     O_3   0.160350 0.926768 0.078255 -0.611347
O26   O     O_3   0.778083 0.832313 0.077880 -0.607037
O27   O     O_R   0.572650 0.911480 0.829010 -0.570027
O28   O     O_R   0.338830 0.427350 0.829010 -0.559730
O29   O     O_R   0.088520 0.661170 0.829010 -0.561561
O30   O     O_R   0.640340 0.528970 0.175680 -0.524887
O31   O     O_R   0.471030 0.111370 0.175680 -0.523282
O32   O     O_R   0.888630 0.359660 0.175680 -0.527088

loop_
_geom_bond_atom_site_label_1
_geom_bond_atom_site_label_2
_ccdc_geom_bond_type
C44   C49   A    
C40   C47   A    
C67   H11   S    
C74   O26   S    
C11   C18   A    
C35   O24   S    
Cr1   O18   S    
C5    O6    A    
Cr1   O5    S    
C37   H4    S    
C52   H6    S    
C1    O30   A    
C70   H46   S    
C78   H14   S    
C55   H9    S    
H73   N5    S    
Cr3   O32   S    
Cr4   O2    S    
C3    C49   S    
C3    N5    S    
Cr3   O23   S    
C4    C78   S    
C59   H21   S    
C64   H35   S    
C59   H20   S    
Cr2   O12   S    
C19   C21   A    
C31   C36   S    
C1    O12   A    
C71   O25   S    
C39   C54   A    
C6    O7    A    
C19   C32   S    
H71   N4    S    
C45   O29   A    
C65   H36   S    
C9    C39   S    
C10   O17   A    
H75   N6    S    
C25   C29   A    
Cr5   O28   S    
C36   O25   S    
C5    O11   A    
C60   H25   S    
C76   H61   S    
C63   H30   S    
C3    H16   S    
C43   C53   A    
C29   H45   S    
C38   C55   A    
C12   C16   S    
C69   H44   S    
C68   C69   S    
Cr5   O3    S    
C31   O20   S    
C53   H7    S    
C66   H38   S    
H70   N3    S    
C77   H13   S    
H65   N1    S    
H72   N4    S    
C2    N4    S    
C41   C52   A    
C60   H24   S    
C42   C51   A    
C63   H31   S    
C77   N2    S    
C15   C23   S    
C74   H58   S    
C76   H62   S    
C59   C60   S    
Cr1   O30   S    
C56   O4    A    
C27   C30   A    
C61   O21   S    
Cr5   O19   S    
Cr6   O17   S    
C61   C62   S    
Cr3   O14   S    
C14   C30   A    
C61   H26   S    
C45   O3    A    
C70   H48   S    
C18   C31   S    
C52   C54   A    
C38   C44   A    
C47   C50   A    
C36   H3    S    
C26   H12   S    
C46   C48   A    
C10   O8    A    
C30   H56   S    
C74   C75   S    
Cr5   O9    S    
C6    O13   A    
C58   O20   S    
C17   C24   A    
C32   C35   S    
C20   C24   A    
C76   H63   S    
C62   H29   S    
C13   C19   A    
C72   H51   S    
C73   H55   S    
C2    C48   S    
C58   C59   S    
Cr2   O31   S    
Cr4   O15   S    
C23   O32   A    
C33   C37   S    
C64   H33   S    
C4    N6    S    
C4    C50   S    
C33   O22   S    
C17   C27   A    
C75   C76   S    
C54   H8    S    
C62   C63   S    
C14   C20   A    
C56   O27   A    
C31   H67   S    
C23   O1    A    
C27   H23   S    
C32   H77   S    
C25   H1    S    
C24   C37   S    
Cr2   O18   S    
C13   C28   A    
Cr2   O13   S    
Cr6   O10   S    
C11   C29   A    
Cr4   O27   S    
H68   N2    S    
C75   H59   S    
C4    H17   S    
C58   H18   S    
C63   H32   S    
C8    O15   A    
C74   H57   S    
Cr4   O8    S    
C2    H15   S    
Cr6   O19   S    
C65   H37   S    
C57   H10   S    
C39   C46   A    
C41   C48   A    
C66   H40   S    
H74   N5    S    
C20   C33   S    
C61   H27   S    
C68   H42   S    
Cr3   O18   S    
C60   H22   S    
C34   O28   A    
C16   C25   A    
C12   O23   A    
C78   N3    S    
C16   C22   A    
C40   C57   A    
C7    O14   A    
H69   N3    S    
C18   C22   A    
H64   N1    S    
C26   C28   A    
C3    C67   S    
C72   C73   S    
Cr6   O4    S    
C34   O2    A    
C14   C34   S    
C71   H49   S    
C46   C77   S    
C64   O22   S    
C15   C26   A    
C43   C50   A    
C21   C35   S    
Cr6   O29   S    
C22   C36   S    
C73   H54   S    
C1    C17   S    
Cr4   O19   S    
C10   C38   S    
C64   C65   S    
Cr1   O1    S    
C33   H78   S    
Cr2   O6    S    
C71   C72   S    
C9    O16   A    
C28   H34   S    
C37   O26   S    
C71   H50   S    
C13   C45   S    
C73   H53   S    
C7    O5    A    
C70   H47   S    
C35   H2    S    
C12   O31   A    
C53   C57   A    
Cr5   O16   S    
C8    O9    A    
C51   C55   A    
H76   N6    S    
C5    C43   S    
C69   C70   S    
C7    C41   S    
C72   H52   S    
C75   H60   S    
C9    O10   A    
C42   C49   A    
C67   N1    S    
C32   O21   S    
C15   C21   A    
Cr1   O11   S    
C62   H28   S    
C69   H43   S    
C65   C66   S    
C6    C42   S    
H66   N2    S    
C2    C77   S    
C68   O24   S    
C66   H39   S    
C44   C67   S    
C58   H19   S    
C8    C40   S    
C47   C78   S    
C68   H41   S    
C51   H5    S    
C11   C56   S    
Cr3   O7    S    
