data_mof_unit_12176.cif
_audit_creation_date              2012-12-11T17:47:26-0500
_audit_creation_method            fapswitch 2.2
_symmetry_space_group_name_H-M    P1
_symmetry_Int_Tables_number       1
_space_group_crystal_system       triclinic
_cell_length_a                    14.847918
_cell_length_b                    14.873367
_cell_length_c                    15.140026
_cell_angle_alpha                 110.464808
_cell_angle_beta                  108.996755
_cell_angle_gamma                 108.642414
_cell_volume                      2583.06457939

loop_
_atom_site_label
_atom_site_type_symbol
_atom_type_description
_atom_site_fract_x
_atom_site_fract_y
_atom_site_fract_z
_atom_type_partial_charge
C1    C     C_R   0.972785 0.246677 0.060239 -0.126371
C2    C     C_R   0.064987 0.140470 0.162848 -0.235014
C3    C     C_R   0.147314 0.021447 0.791739 -0.142414
C4    C     C_R   0.930470 0.941205 0.313633 -0.115879
C5    C     C_R   0.117281 0.032263 0.871441 -0.175843
C6    C     C_R   0.007368 0.000930 0.293439 -0.196480
C7    C     C_R   0.609570 0.310640 0.114569 -0.128940
C8    C     C_R   0.328062 0.678084 0.803675 -0.123694
C9    C     C_R   0.698176 0.388143 0.218199 -0.133473
C10   C     C_R   0.222984 0.610438 0.713914 -0.117929
C11   C     C_R   0.742636 0.354161 0.289133 0.116992
C12   C     C_R   0.094259 0.806803 0.009718 -0.145123
C13   C     C_R   0.155432 0.655228 0.686949 0.117576
C14   C     C_R   0.692411 0.241916 0.256924 -0.167132
C15   C     C_R   0.194362 0.768320 0.750798 -0.188977
C16   C     C_R   0.315376 0.759005 0.225123 -0.131838
C17   C     C_R   0.704708 0.194620 0.794069 -0.146198
C18   C     C_R   0.601818 0.164770 0.153871 -0.109821
C19   C     C_R   0.299181 0.835482 0.840996 -0.100947
C20   C     C_R   0.561390 0.198906 0.082179 -0.101437
C21   C     C_R   0.366114 0.790370 0.867368 -0.113312
C22   C     C_R   0.854219 0.437136 0.487961 -0.252432
C23   C     C_R   0.323617 0.787306 0.327123 0.053980
C24   C     C_R   0.036212 0.581656 0.496567 -0.256721
C25   C     C_R   0.952792 0.510438 0.585219 0.075404
C26   C     C_R   0.939540 0.506821 0.398862 0.067982
C27   C     C_R   0.044951 0.584116 0.590109 0.012023
C28   C     C_R   0.846188 0.434340 0.392889 0.021152
C29   C     C_R   0.188695 0.121209 0.977920 0.113964
C30   C     C_R   0.973383 0.996927 0.193735 0.120621
C31   C     C_R   0.321005 0.185792 0.924005 -0.144853
C32   C     C_R   0.784510 0.886339 0.141540 -0.146773
C33   C     C_R   0.221014 0.014694 0.524199 -0.174444
C34   C     C_R   0.703138 0.130185 0.700952 0.059051
C35   C     C_R   0.915030 0.030696 0.596622 -0.220519
C36   C     C_R   0.309943 0.004510 0.518184 0.261045
C37   C     C_R   0.814187 0.979843 0.591428 0.253311
C38   C     C_R   0.331524 0.924209 0.536134 0.034622
C39   C     C_R   0.721743 0.975772 0.518858 0.072024
C40   C     C_R   0.214056 0.409296 0.908347 -0.152668
C41   C     C_R   0.775696 0.592539 0.024944 -0.150507
C42   C     C_R   0.268283 0.862068 0.566635 -0.210298
C43   C     C_R   0.730598 0.013854 0.447403 -0.239318
C44   C     C_R   0.176810 0.869586 0.566167 -0.130553
C45   C     C_R   0.306832 0.501827 0.942213 0.029871
C46   C     C_R   0.831595 0.064588 0.454474 -0.106600
C47   C     C_R   0.152619 0.944856 0.543901 -0.174895
C48   C     C_R   0.924029 0.075106 0.530610 -0.152151
C49   C     C_R   0.522280 0.979371 0.624480 -0.204951
C50   C     C_R   0.522024 0.864761 0.435249 -0.255583
C51   C     C_R   0.618960 0.014804 0.619993 0.039335
C52   C     C_R   0.423146 0.851444 0.432534 0.054466
C53   C     C_R   0.621023 0.949376 0.527283 0.054513
C54   C     C_R   0.423922 0.909342 0.530133 0.026487
C55   C     C_R   0.249232 0.098723 0.818028 -0.093446
C56   C     C_R   0.674677 0.500390 0.949730 0.030360
C57   C     C_R   0.819104 0.884374 0.238071 -0.094934
C58   C     C_R   0.054146 0.044975 0.164376 0.022474
C59   C     C_R   0.161982 0.119899 0.062749 0.024768
C60   C     C_R   0.291562 0.197661 0.004432 -0.158466
C61   C     C_R   0.861381 0.941647 0.118815 -0.151085
C62   C     C_R   0.103777 0.989943 0.118631 0.050208
C63   C     C_R   0.099322 0.165308 0.094219 0.061234
C64   C     C_R   0.999957 0.592160 0.300899 -0.175336
C65   C     C_R   0.943272 0.409169 0.686069 -0.140555
C66   C     C_3   0.464163 0.397651 0.880322 -0.169294
C67   C     C_R   0.947187 0.501353 0.305674 0.060386
C68   C     C_3   0.507546 0.607571 0.978941 -0.179322
C69   C     C_3   0.404897 0.448235 0.826532 -0.152874
C70   C     C_3   0.565801 0.556962 0.032311 -0.144603
C71   C     C_3   0.399170 0.503935 0.929234 0.192684
C72   C     C_3   0.573057 0.500932 0.930362 0.198620
C73   C     C_3   0.457145 0.453970 0.982721 -0.152554
C74   C     C_3   0.516325 0.551960 0.876701 -0.161488
C75   C     C_R   0.303663 0.592684 0.001383 -0.126619
C76   C     C_R   0.685005 0.407970 0.933648 -0.128452
C77   C     C_R   0.913437 0.408749 0.212096 -0.126407
C78   C     C_R   0.962180 0.503469 0.679228 0.043729
C79   C     C_R   0.025923 0.593600 0.781747 -0.102966
C80   C     C_R   0.219245 0.749388 0.312106 -0.135395
C81   C     C_R   0.792843 0.196839 0.700539 -0.143761
C82   C     C_R   0.067809 0.249839 0.971706 -0.145221
C83   C     C_R   0.002603 0.803770 0.099540 -0.143887
C84   C     C_R   0.051084 0.220251 0.045055 0.058053
C85   C     C_R   0.065859 0.871204 0.075826 0.065569
C86   C     C_3   0.380741 0.081989 0.495402 -0.401651
C87   C     C_3   0.454307 0.197084 0.595456 -0.890539
C88   C     C_3   0.808268 0.934309 0.665649 -0.401619
C89   C     C_R   0.175558 0.043637 0.090467 -0.227176
C90   C     C_3   0.744477 0.808810 0.602172 -0.889812
H1    H     H_    0.936997 0.233399 0.108986 0.092465
H2    H     H_    0.380086 0.643488 0.823535 0.117541
H3    H     H_    0.734880 0.474230 0.241510 0.110951
H4    H     H_    0.194409 0.523538 0.665273 0.105622
H5    H     H_    0.725510 0.213683 0.309976 0.106860
H6    H     H_    0.142300 0.803561 0.732727 0.113615
H7    H     H_    0.564466 0.078246 0.128706 0.100207
H8    H     H_    0.328273 0.922309 0.890578 0.115092
H9    H     H_    0.784625 0.381431 0.486341 0.133045
H10   H     H_    0.108708 0.633006 0.498726 0.135828
H11   H     H_    0.040254 0.969195 0.851633 0.117480
H12   H     H_    0.153784 0.834648 0.985709 0.096345
H13   H     H_    0.093356 0.043656 0.351117 0.112678
H14   H     H_    0.432899 0.418623 0.030049 0.116004
H15   H     H_    0.543394 0.591849 0.833484 0.113584
H16   H     H_    0.380975 0.775862 0.206359 0.091371
H17   H     H_    0.658084 0.167776 0.830354 0.088560
H18   H     H_    0.349563 0.263801 0.087171 0.121126
H19   H     H_    0.834065 0.939097 0.041908 0.114869
H20   H     H_    0.082905 0.951834 0.545821 0.116217
H21   H     H_    0.002762 0.116451 0.537489 0.119696
H22   H     H_    0.205131 0.077584 0.514429 0.112775
H23   H     H_    0.092238 0.951838 0.710505 0.108781
H24   H     H_    0.987578 0.038292 0.653478 0.125390
H25   H     H_    0.286400 0.803516 0.584641 0.138342
H26   H     H_    0.660877 0.011505 0.391587 0.127960
H27   H     H_    0.123911 0.816856 0.582496 0.121525
H28   H     H_    0.838651 0.097943 0.402434 0.128069
H29   H     H_    0.518884 0.022295 0.696339 0.121977
H30   H     H_    0.522671 0.817024 0.362821 0.129925
H31   H     H_    0.224123 0.010364 0.066459 0.126572
H32   H     H_    0.028152 0.182046 0.199688 0.126121
H33   H     H_    0.335988 0.404127 0.742657 0.106339
H34   H     H_    0.957172 0.937497 0.387003 0.122432
H35   H     H_    0.632945 0.601451 0.117266 0.109524
H36   H     H_    0.446577 0.311323 0.837415 0.104357
H37   H     H_    0.522983 0.693334 0.019375 0.097076
H38   H     H_    0.187397 0.325320 0.851167 0.109135
H39   H     H_    0.794465 0.677527 0.059555 0.122424
H40   H     H_    0.023843 0.676237 0.354722 0.116082
H41   H     H_    0.899723 0.324955 0.620376 0.107679
H42   H     H_    0.357879 0.677407 0.029645 0.089666
H43   H     H_    0.621318 0.322923 0.884174 0.091864
H44   H     H_    0.860397 0.324303 0.185503 0.107380
H45   H     H_    0.400765 0.241687 0.943834 0.106002
H46   H     H_    0.054188 0.678976 0.805292 0.108370
H47   H     H_    0.192654 0.746768 0.368854 0.126718
H48   H     H_    0.824852 0.175976 0.647326 0.126316
H49   H     H_    0.123044 0.244200 0.941588 0.126128
H50   H     H_    0.981518 0.825884 0.161821 0.130171
H51   H     H_    0.274361 0.090589 0.757583 0.132065
H52   H     H_    0.759750 0.838857 0.254324 0.114033
H53   H     H_    0.404615 0.232718 0.618392 0.249885
H54   H     H_    0.506623 0.193813 0.664621 0.259059
H55   H     H_    0.507773 0.251657 0.578037 0.258204
H56   H     H_    0.698473 0.843027 0.083205 0.108976
H57   H     H_    0.432885 0.052828 0.469888 0.203731
H58   H     H_    0.327836 0.086295 0.427260 0.188721
H59   H     H_    0.658525 0.778562 0.543896 0.265084
H60   H     H_    0.783143 0.775646 0.557339 0.255948
H61   H     H_    0.744541 0.777840 0.659106 0.251503
H62   H     H_    0.891434 0.960524 0.726625 0.188545
H63   H     H_    0.770728 0.967100 0.711926 0.196982
H64   H     H_    0.493337 0.138568 0.001412 0.107326
H65   H     H_    0.447383 0.842324 0.937098 0.093556
H66   H     H_    0.580290 0.337860 0.059278 0.108902
N1    N     N_R   0.947560 0.293820 0.002910 -0.041604
N2    N     N_R   0.789450 0.443190 0.997090 -0.037839
N3    N     N_R   0.945970 0.443180 0.152110 -0.039130
N4    N     N_R   0.054030 0.556820 0.847890 -0.040604
N5    N     N_R   0.151530 0.706170 0.208880 -0.042437
N6    N     N_R   0.848470 0.293830 0.791120 -0.039650
N7    N     N_R   0.004980 0.293810 0.946140 -0.042011
N8    N     N_R   0.995020 0.706190 0.053860 -0.041688
N9    N     N_R   0.052440 0.706180 0.997090 -0.040736
N10   N     N_R   0.208960 0.706170 0.152110 -0.039589
N11   N     N_R   0.791040 0.293830 0.847890 -0.036417
N12   N     N_R   0.154330 0.443160 0.946140 -0.038833
N13   N     N_R   0.845670 0.556840 0.053860 -0.039903
N14   N     N_R   0.002190 0.556820 0.208880 -0.037657
N15   N     N_R   0.997810 0.443180 0.791120 -0.040692
N16   N     N_R   0.210550 0.556810 0.002910 -0.036638
Ni1   Ni    Ni4+2 0.869690 0.369690 0.000000 0.213184
Ni2   Ni    Ni4+2 0.130310 0.630310 0.000000 0.217418
Ni3   Ni    Ni4+2 0.001390 0.369680 0.869810 0.214182
Ni4   Ni    Ni4+2 0.998610 0.630320 0.130190 0.212919

loop_
_geom_bond_atom_site_label_1
_geom_bond_atom_site_label_2
_ccdc_geom_bond_type
C58   C62   A    
N12   Ni3   S    
C83   N8    A    
C56   C76   A    
N3    N14   A    
C45   C71   S    
C81   N6    A    
C14   C18   A    
C37   C88   S    
C67   C77   A    
C24   C27   A    
C90   H60   S    
N7    Ni3   S    
C86   H57   S    
N3    Ni1   S    
N14   Ni4   S    
C26   C28   A    
C2    C63   A    
C1    C84   A    
C15   C19   A    
C79   H46   S    
C76   N2    A    
C34   C51   S    
C20   H64   S    
C12   C85   A    
C65   N15   A    
C50   H30   S    
C26   C67   S    
C11   C28   S    
N8    N9    A    
C19   C21   A    
C24   C26   A    
C32   C61   A    
C38   C42   A    
C17   H17   S    
C11   C14   A    
C66   C69   S    
C32   H56   S    
C82   N7    A    
C69   H33   S    
C68   C74   S    
C80   H47   S    
C40   H38   S    
C62   C89   A    
C33   C36   A    
C46   H28   S    
C35   H24   S    
C59   C89   A    
C69   C71   S    
C3    C55   A    
N4    N15   A    
C73   H14   S    
C66   C72   S    
C7    H66   S    
C29   C59   S    
N16   Ni2   S    
C49   C51   A    
C22   C25   A    
C4    C57   A    
C50   C52   A    
C8    H2    S    
C18   H7    S    
C87   H54   S    
N1    N7    A    
N5    N10   A    
C60   H18   S    
C44   C47   A    
C16   H16   S    
N11   Ni1   S    
C61   H19   S    
C1    H1    S    
C22   C28   A    
C89   H31   S    
C88   H62   S    
C40   C45   A    
C42   C44   A    
C32   C57   A    
C90   H59   S    
C35   C48   A    
C83   H50   S    
C65   H41   S    
C19   H8    S    
C52   C54   A    
C5    C29   A    
C2    H32   S    
C81   H48   S    
C62   C85   S    
C46   C48   A    
N10   Ni2   S    
C50   C53   A    
C25   C78   S    
C64   C67   A    
C72   C74   S    
C17   N11   A    
C16   N10   A    
C12   N9    A    
C71   C73   S    
N5    Ni4   S    
C78   C79   A    
C39   C43   A    
N6    Ni3   S    
C56   C72   S    
N9    Ni2   S    
C66   C73   S    
C41   N13   A    
C66   H36   S    
C51   C53   A    
C31   C60   A    
C41   C56   A    
C12   H12   S    
C82   H49   S    
C43   H26   S    
N2    Ni1   S    
C24   H10   S    
C38   C54   S    
C29   C60   A    
C70   C73   S    
C8    C21   A    
C21   H65   S    
C69   C74   S    
C33   H22   S    
C6    H13   S    
C9    C11   A    
C68   H37   S    
C77   N3    A    
C31   C55   A    
C57   H52   S    
C70   H35   S    
C31   H45   S    
C83   C85   A    
C4    H34   S    
C88   C90   S    
C16   C23   A    
C82   C84   A    
C13   C15   A    
C3    H23   S    
C23   C80   A    
C4    C6    A    
C77   H44   S    
C9    H3    S    
C14   H5    S    
C15   H6    S    
C75   H42   S    
C35   C37   A    
C7    C9    A    
C79   N4    A    
C22   H9    S    
C87   H55   S    
C6    C30   A    
C86   C87   S    
N4    Ni2   S    
C55   H51   S    
C64   H40   S    
C90   H61   S    
C3    C5    A    
C10   C13   A    
C86   H58   S    
C76   H43   S    
C2    C58   A    
N2    N13   A    
C25   C27   A    
C47   H20   S    
C49   H29   S    
C59   C63   A    
C5    H11   S    
C45   C75   A    
C63   C84   S    
C65   C78   A    
C36   C86   S    
C88   H63   S    
C1    N1    A    
C37   C39   A    
C74   H15   S    
C41   H39   S    
C23   C52   S    
C39   C53   S    
N15   Ni3   S    
C44   H27   S    
C68   C71   S    
C33   C47   A    
C30   C58   S    
C36   C38   A    
N13   Ni4   S    
N8    Ni4   S    
C18   C20   A    
C64   N14   A    
C43   C46   A    
C80   N5    A    
C40   N12   A    
N6    N11   A    
C42   H25   S    
N12   N16   A    
C48   H21   S    
C8    C10   A    
C7    C20   A    
C17   C34   A    
C30   C61   A    
C75   N16   A    
C68   C70   S    
C10   H4    S    
C13   C27   S    
C70   C72   S    
C87   H53   S    
C34   C81   A    
C49   C54   A    
N1    Ni1   S    
