data_mof_unit_16049.cif
_audit_creation_date              2012-12-10T17:37:16-0500
_audit_creation_method            fapswitch 2.2
_symmetry_space_group_name_H-M    P1
_symmetry_Int_Tables_number       1
_space_group_crystal_system       triclinic
_cell_length_a                    12.326582
_cell_length_b                    13.153755
_cell_length_c                    15.841667
_cell_angle_alpha                 77.939677
_cell_angle_beta                  101.069907
_cell_angle_gamma                 116.488162
_cell_volume                      2233.83270598

loop_
_atom_site_label
_atom_site_type_symbol
_atom_type_description
_atom_site_fract_x
_atom_site_fract_y
_atom_site_fract_z
_atom_type_partial_charge
C1    C     C_R   0.854927 0.286593 0.506497 0.774072
C2    C     C_3   0.998105 0.499552 0.917008 0.120949
C3    C     C_3   0.114473 0.561200 0.034248 -0.238629
C4    C     C_3   0.000189 0.499042 0.083076 0.123541
C5    C     C_3   0.040113 0.608092 0.959404 -0.219507
C6    C     C_3   0.926396 0.546660 0.009869 -0.122539
C7    C     C_1   0.998053 0.499512 0.825231 -0.015982
C8    C     C_1   0.000803 0.499238 0.174847 -0.048531
C9    C     C_R   0.270780 0.028650 0.400774 0.492533
C10   C     C_R   0.227732 0.835435 0.473069 -0.124324
C11   C     C_R   0.816804 0.083517 0.554474 -0.194895
C12   C     C_R   0.999390 0.499737 0.659959 0.820345
C13   C     C_R   0.738542 0.968074 0.568738 -0.148451
C14   C     C_R   0.614483 0.931325 0.541635 -0.179320
C15   C     C_R   0.566208 0.009799 0.496021 0.108065
C16   C     C_R   0.648891 0.125011 0.472125 0.087335
C17   C     C_R   0.438874 0.977764 0.472815 0.012802
C18   C     C_R   0.397026 0.058280 0.420998 0.054336
C19   C     C_R   0.481678 0.166038 0.388556 -0.210363
C20   C     C_R   0.605394 0.197758 0.411903 -0.217522
C21   C     C_R   0.351667 0.868178 0.500420 -0.262531
C22   C     C_R   0.186981 0.916278 0.424966 -0.275470
C23   C     C_R   0.145048 0.713580 0.488131 0.827673
C24   C     C_R   0.773019 0.163583 0.508395 -0.104199
C25   C     C_R   0.344304 0.325475 0.635597 -0.310205
C26   C     C_R   0.760396 0.646415 0.384077 0.077881
C27   C     C_R   0.664250 0.678514 0.358823 -0.254785
C28   C     C_R   0.560279 0.623029 0.402206 -0.194315
C29   C     C_R   0.551317 0.534308 0.471986 -0.005426
C30   C     C_R   0.652606 0.504695 0.495773 0.285164
C31   C     C_R   0.446503 0.474387 0.519249 -0.040046
C32   C     C_R   0.445061 0.385916 0.588355 0.165081
C33   C     C_R   0.544502 0.358685 0.610557 -0.283526
C34   C     C_R   0.000464 0.500049 0.340061 0.818774
C35   C     C_R   0.646246 0.417423 0.565936 -0.175898
C36   C     C_R   0.342360 0.498157 0.501546 0.013577
C37   C     C_R   0.245257 0.353195 0.615014 0.074010
C38   C     C_3   0.957470 0.389850 0.040879 -0.239946
C39   C     C_3   0.884367 0.438119 0.965964 -0.220925
C40   C     C_1   0.998416 0.499612 0.749629 -0.169446
C41   C     C_1   0.000956 0.499553 0.250445 -0.184206
C42   C     C_3   0.070373 0.452917 0.990970 0.566215
Cu1   Cu    Cu3+1 0.098270 0.475420 0.519690 0.934840
Cu2   Cu    Cu3+1 0.901730 0.524580 0.480310 0.922719
H1    H     H_    0.790329 0.388625 0.936423 0.149785
H2    H     H_    0.377667 0.805275 0.542571 0.164449
H3    H     H_    0.911549 0.110358 0.581301 0.151090
H4    H     H_    0.773636 0.906919 0.603637 0.144716
H5    H     H_    0.665986 0.279344 0.380223 0.179730
H6    H     H_    0.167065 0.306841 0.651149 0.128849
H7    H     H_    0.544302 0.291659 0.663777 0.152990
H8    H     H_    0.342377 0.257456 0.688307 0.140416
H9    H     H_    0.335405 0.563750 0.450209 0.125922
H10   H     H_    0.840768 0.690022 0.350064 0.129048
H11   H     H_    0.924224 0.300728 0.075512 0.138774
H12   H     H_    0.718314 0.391634 0.589455 0.207185
H13   H     H_    0.866798 0.585476 0.019380 0.139622
H14   H     H_    0.090768 0.891956 0.404014 0.169067
N1    N     N_R   0.246280 0.438200 0.549540 -0.181425
N2    N     N_R   0.754330 0.561180 0.450980 -0.207832
O1    O     O_R   0.972510 0.318130 0.524770 -0.584969
O2    O     O_R   0.806530 0.359650 0.491510 -0.605745
O3    O     O_R   0.082970 0.479240 0.637550 -0.565296
O4    O     O_R   0.916990 0.520750 0.604290 -0.595168
O5    O     O_R   0.193470 0.640350 0.508490 -0.586705
O6    O     O_R   0.027490 0.681870 0.475230 -0.588717
O7    O     O_R   0.083010 0.479250 0.395710 -0.580885
O8    O     O_R   0.917030 0.520760 0.362450 -0.585950
H15   H     H_    0.559736 0.840575 0.556068 0.130551
H16   H     H_    0.488658 0.651346 0.379836 0.136540
H17   H     H_    0.670326 0.746639 0.305421 0.146683
H18   H     H_    0.072950 0.697080 0.924525 0.149427
H19   H     H_    0.208570 0.611077 0.063491 0.136466
O9    O     O_3   0.144652 0.404496 0.974681 -0.580162
C43   C     C_3   0.200222 0.368829 0.054182 -0.309467
H20   H     H_    0.131154 0.301414 0.095460 0.164465
H21   H     H_    0.260464 0.442514 0.089898 0.155529
H22   H     H_    0.258218 0.330959 0.040373 0.196441
H23   H     H_    0.452679 0.226597 0.344595 0.187760
O10   O     O_3   0.228836 0.106676 0.351655 -0.593561
C44   C     C_3   0.206445 0.162415 0.408876 -0.333152
H24   H     H_    0.174583 0.226500 0.369902 0.198339
H25   H     H_    0.291062 0.209492 0.450730 0.171067
H26   H     H_    0.133432 0.100709 0.449703 0.165197

loop_
_geom_bond_atom_site_label_1
_geom_bond_atom_site_label_2
_ccdc_geom_bond_type
C3    C42   S    
Cu2   O6    S    
C19   C20   A    
C4    C8    S    
C36   N1    A    
C1    O2    A    
C44   H24   S    
Cu1   O3    S    
C10   C22   A    
C26   C27   A    
C20   H5    S    
C30   C35   A    
C23   O6    A    
C16   C20   A    
Cu2   N2    S    
C38   C42   S    
C5    H18   S    
C38   C39   S    
C12   O4    A    
C9    C22   A    
C15   C16   A    
C11   C24   A    
C18   C19   A    
C43   H20   S    
C36   H9    S    
C25   C37   A    
C11   H3    S    
C2    C39   S    
C38   H11   S    
C2    C7    S    
C30   N2    A    
C7    C40   T    
Cu1   N1    S    
C39   H1    S    
C25   C32   A    
C16   C24   A    
C13   C14   A    
C6    H13   S    
C34   C41   S    
C26   H10   S    
C44   H25   S    
C10   C21   A    
C42   O9    S    
O9    C43   S    
C8    C41   T    
C4    C6    S    
C34   O8    A    
C12   O3    A    
Cu2   O2    S    
Cu2   O4    S    
C9    O10   S    
C12   C40   S    
Cu1   Cu2   S    
C29   C30   A    
C31   C32   A    
C14   C15   A    
Cu1   O5    S    
C17   C18   A    
C19   H23   S    
C43   H21   S    
C37   N1    A    
C4    C38   S    
C14   H15   S    
Cu2   O8    S    
C2    C5    S    
C3    C4    S    
C44   H26   S    
C27   H17   S    
Cu1   O1    S    
C21   H2    S    
C15   C17   A    
C28   C29   A    
C35   H12   S    
C6    C39   S    
C28   H16   S    
O10   C44   S    
C3    C5    S    
C1    O1    A    
C34   O7    A    
C22   H14   S    
C13   H4    S    
C10   C23   S    
C33   H7    S    
C32   C33   A    
C23   O5    A    
C25   H8    S    
C29   C31   A    
C37   H6    S    
C11   C13   A    
C5    C6    S    
C2    C42   S    
C33   C35   A    
C3    H19   S    
C43   H22   S    
C17   C21   A    
C9    C18   A    
C1    C24   S    
Cu1   O7    S    
C27   C28   A    
C31   C36   A    
C26   N2    A    
