data_mof_unit_21955.cif
_audit_creation_date              2012-12-11T16:56:14-0500
_audit_creation_method            fapswitch 2.2
_symmetry_space_group_name_H-M    P1
_symmetry_Int_Tables_number       1
_space_group_crystal_system       triclinic
_cell_length_a                    6.997423
_cell_length_b                    14.542207
_cell_length_c                    16.203225
_cell_angle_alpha                 90.516503
_cell_angle_beta                  90.062046
_cell_angle_gamma                 90.060806
_cell_volume                      1648.73843726

loop_
_atom_site_label
_atom_site_type_symbol
_atom_type_description
_atom_site_fract_x
_atom_site_fract_y
_atom_site_fract_z
_atom_type_partial_charge
O1    O     O_R   0.505830 0.583360 0.413880 -0.509059
O2    O     O_R   0.175830 0.595460 0.585520 -0.527321
O3    O     O_R   0.005520 0.416640 0.586120 -0.535950
C1    C     C_R   0.344717 0.617287 0.614385 0.736573
O4    O     O_R   0.176120 0.594390 0.414490 -0.518142
O5    O     O_R   0.005810 0.415570 0.413870 -0.544373
C2    C     C_R   0.345237 0.617131 0.386751 0.760336
O6    O     O_R   0.505540 0.584430 0.586130 -0.530334
O7    O     O_3   0.339200 0.441330 0.500000 -0.398336
V1    V     V_3+5 0.064350 0.510880 0.500000 1.592322
O8    O     O_R   0.676100 0.404540 0.414480 -0.547666
C3    C     C_R   0.844917 0.382527 0.385996 0.729927
O9    O     O_R   0.675810 0.405610 0.585510 -0.547521
C4    C     C_R   0.845040 0.382499 0.612197 0.774857
V2    V     V_3+5 0.564340 0.489120 0.500000 1.547182
O10   O     O_3   0.839360 0.558670 0.500000 -0.327235
C5    C     C_2   0.732798 0.205533 0.782221 -0.194306
C6    C     C_2   0.885220 0.192082 0.832245 0.242225
H1    H     H_    0.609963 0.160248 0.787530 0.123743
C7    C     C_2   0.714847 0.280973 0.721163 -0.036005
C8    C     C_2   0.861258 0.309090 0.673970 -0.233536
H2    H     H_    0.573449 0.309666 0.711458 0.158547
H3    H     H_    0.999609 0.276153 0.679331 0.171452
C9    C     C_R   0.717683 0.239020 0.196333 0.041978
C10   C     C_R   0.880771 0.185057 0.183888 -0.061090
C11   C     C_R   0.034433 0.199457 0.238035 -0.128916
C12   C     C_R   0.023699 0.264053 0.303076 -0.160029
H4    H     H_    0.141501 0.269489 0.346019 0.134770
C13   C     C_R   0.857180 0.316344 0.316154 -0.065271
C14   C     C_R   0.707492 0.304924 0.259549 0.093773
C15   C     C_3   0.504091 0.282904 0.277168 -0.456250
C16   C     C_3   0.517331 0.208534 0.211079 0.220933
H5    H     H_    0.408196 0.340495 0.259823 0.157806
C17   C     C_R   0.506118 0.681169 0.741859 0.133059
C18   C     C_R   0.353179 0.682067 0.685831 -0.137342
C19   C     C_R   0.202444 0.743543 0.702898 -0.099658
H6    H     H_    0.080226 0.746340 0.662188 0.142279
C20   C     C_R   0.213416 0.806327 0.769664 -0.165788
H7    H     H_    0.098757 0.855268 0.778276 0.123809
C21   C     C_R   0.376165 0.810175 0.821167 -0.102097
C22   C     C_R   0.517886 0.743907 0.807327 0.068306
C23   C     C_3   0.728135 0.755350 0.797101 -0.446250
C24   C     C_3   0.715525 0.686367 0.726060 0.218555
H8    H     H_    0.809021 0.730498 0.851598 0.221026
H9    H     H_    0.765937 0.825826 0.776745 0.133105
C25   C     C_R   0.518158 0.689995 0.267790 0.018969
C26   C     C_R   0.356187 0.684292 0.318055 -0.067186
C27   C     C_R   0.208122 0.746638 0.302163 -0.067540
C28   C     C_R   0.218745 0.808957 0.236342 -0.118095
C29   C     C_R   0.380364 0.813403 0.185512 -0.043195
C30   C     C_R   0.531385 0.753747 0.203677 -0.057289
C31   C     C_3   0.732767 0.777712 0.226012 0.148366
C32   C     C_3   0.719217 0.705842 0.294075 0.566071
O11   O     O_R   0.229930 0.912420 0.917160 -0.547597
O12   O     O_R   0.559420 0.902500 0.088780 -0.516111
O13   O     O_R   0.729660 0.081330 0.089380 -0.511913
C33   C     C_R   0.390973 0.881350 0.117701 0.784140
O14   O     O_R   0.559650 0.901420 0.917750 -0.548289
O15   O     O_R   0.729880 0.080250 0.917130 -0.557640
C34   C     C_R   0.390505 0.879669 0.888803 0.681320
O16   O     O_R   0.229700 0.913500 0.089410 -0.549014
O17   O     O_3   0.396250 0.055540 0.003280 -0.364740
V3    V     V_3+5 0.671130 0.986010 0.003260 1.513232
O18   O     O_R   0.059600 0.091310 0.917720 -0.518907
C35   C     C_R   0.890881 0.115115 0.891409 0.657932
O19   O     O_R   0.059370 0.092380 0.088750 -0.545726
C36   C     C_R   0.890513 0.114326 0.117404 0.774416
V4    V     V_3+5 0.171120 0.007820 0.003230 1.511573
O20   O     O_3   0.896130 0.938240 0.003240 -0.378964
Cl1   Cl    Cl    0.506375 0.095429 0.254153 -0.573536
Cl2   Cl    Cl    0.830711 0.579837 0.747836 -0.598269
H10   H     H_    0.749600 0.715524 0.664632 0.096315
H11   H     H_    0.088849 0.750325 0.343349 0.207468
H12   H     H_    0.106056 0.857907 0.227653 0.186785
Cl3   Cl    Cl    0.751291 0.894791 0.262055 -0.531878
Cl4   Cl    Cl    0.077581 0.271186 0.838095 -0.615635
H13   H     H_    0.834049 0.759812 0.175616 0.097761
Cl5   Cl    Cl    0.740037 0.748495 0.398644 -0.583424
Cl6   Cl    Cl    0.856038 0.604354 0.274563 -0.688052
H14   H     H_    0.157156 0.155948 0.233117 0.186413
H15   H     H_    0.483200 0.256715 0.340809 0.204153
H16   H     H_    0.423160 0.220061 0.156879 0.094001

loop_
_geom_bond_atom_site_label_1
_geom_bond_atom_site_label_2
_ccdc_geom_bond_type
O19   V4    S    
C24   H10   S    
C21   C34   S    
C3    C13   S    
C12   C13   A    
C22   C23   S    
C18   C19   A    
C10   C36   S    
C1    O6    A    
C31   Cl3   S    
O11   C34   A    
C6    C35   S    
C11   C12   A    
C13   C14   A    
O18   V4    S    
C4    C8    S    
C19   H6    S    
C32   Cl6   S    
O5    C3    A    
C20   H7    S    
O11   V4    S    
O14   C34   A    
V2    O10   S    
C5    C7    S    
C17   C18   A    
O8    V2    S    
C15   C16   S    
V4    O20   S    
O12   V3    S    
C6    Cl4   S    
C15   H5    S    
O1    V2    S    
O7    V1    S    
O19   C36   A    
C1    C18   S    
O9    C4    A    
C17   C22   A    
C23   H8    S    
C5    C6    D    
C8    H3    S    
C30   C31   S    
V3    O20   S    
C9    C10   A    
O4    C2    A    
C16   Cl1   S    
C10   C11   A    
C25   C30   A    
C11   H14   S    
C23   H9    S    
C2    C26   S    
O2    C1    A    
C9    C16   S    
O17   V3    S    
C26   C27   A    
C29   C30   A    
O13   V3    S    
O3    C4    A    
C27   C28   A    
C7    H2    S    
O6    V2    S    
O9    V2    S    
C23   C24   S    
C31   H13   S    
O2    V1    S    
C31   C32   S    
O14   V3    S    
C25   C26   A    
C21   C22   A    
C24   Cl2   S    
O1    C2    A    
C29   C33   S    
C27   H11   S    
C17   C24   S    
O5    V1    S    
O8    C3    A    
C33   O16   A    
O13   C36   A    
C16   H16   S    
O15   V3    S    
C15   H15   S    
O17   V4    S    
O18   C35   A    
O12   C33   A    
C32   Cl5   S    
O7    V2    S    
O4    V1    S    
O3    V1    S    
V1    O10   S    
O15   C35   A    
C20   C21   A    
O16   V4    S    
C14   C15   S    
C25   C32   S    
C19   C20   A    
C5    H1    S    
C9    C14   A    
C7    C8    D    
C28   C29   A    
C12   H4    S    
C28   H12   S    
