data_mof_unit_68033.cif
_audit_creation_date              2012-12-11T14:33:05-0500
_audit_creation_method            fapswitch 2.2
_symmetry_space_group_name_H-M    P1
_symmetry_Int_Tables_number       1
_space_group_crystal_system       triclinic
_cell_length_a                    7.041479
_cell_length_b                    14.436373
_cell_length_c                    17.886095
_cell_angle_alpha                 114.636172
_cell_angle_beta                  95.265067
_cell_angle_gamma                 91.028792
_cell_volume                      1642.53017535

loop_
_atom_site_label
_atom_site_type_symbol
_atom_type_description
_atom_site_fract_x
_atom_site_fract_y
_atom_site_fract_z
_atom_type_partial_charge
O1    O     O_R   0.484560 0.544530 0.414330 -0.544893
O2    O     O_R   0.197040 0.638810 0.585080 -0.527083
O3    O     O_R   0.026800 0.455470 0.585670 -0.499657
C1    C     C_R   0.375004 0.680935 0.610943 0.756975
O4    O     O_R   0.155000 0.556150 0.414940 -0.517484
O5    O     O_R   0.984450 0.372220 0.414320 -0.559652
C2    C     C_R   0.319120 0.561381 0.385481 0.750058
O6    O     O_R   0.526900 0.627780 0.585680 -0.520519
O7    O     O_3   0.339170 0.439750 0.499990 -0.319653
V1    V     V_3+5 0.064350 0.511180 0.500000 1.652728
O8    O     O_R   0.654880 0.361190 0.414920 -0.499434
C3    C     C_R   0.818322 0.324387 0.386452 0.765390
O9    O     O_R   0.696930 0.443850 0.585060 -0.514313
C4    C     C_R   0.873642 0.435735 0.613932 0.871759
V2    V     V_3+5 0.564340 0.488820 0.500000 1.674804
O10   O     O_3   0.839390 0.560250 0.500010 -0.377372
C5    C     C_R   0.040820 0.877928 0.826505 -0.116992
C6    C     C_R   0.908236 0.401842 0.684046 -0.174849
C7    C     C_R   0.950359 0.848078 0.680732 -0.062758
C8    C     C_R   0.000349 0.812295 0.741975 -0.270698
C9    C     C_R   0.019159 0.985470 0.847606 0.348986
C10   C     C_R   0.978645 0.026073 0.784056 -0.001990
C11   C     C_R   0.959877 0.952896 0.699030 -0.044841
C12   C     C_R   0.960163 0.133924 0.797574 0.056752
C13   C     C_R   0.937536 0.162226 0.728747 0.055887
C14   C     C_R   0.953493 0.087836 0.651472 -0.146424
C15   C     C_R   0.957783 0.986531 0.633514 -0.044340
C16   C     C_R   0.964571 0.215927 0.875696 -0.166189
C17   C     C_R   0.982645 0.318414 0.887868 -0.070753
C18   C     C_R   0.974277 0.343625 0.818928 -0.043254
C19   C     C_R   0.925107 0.266588 0.738406 -0.009055
C20   C     C_R   0.020928 0.443236 0.828251 -0.135540
C21   C     C_R   0.997934 0.470257 0.761590 0.242838
C22   C     C_R   0.875344 0.298929 0.671791 0.296998
H1    H     H_    0.005866 0.731344 0.722576 0.208383
H2    H     H_    0.977154 0.108237 0.602675 0.211329
H3    H     H_    0.947704 0.204228 0.929467 0.245947
H4    H     H_    0.085665 0.500268 0.886977 0.186639
C23   C     C_2   0.128661 0.036598 0.180407 -0.260272
C24   C     C_2   0.001254 0.065312 0.237870 -0.041451
C25   C     C_2   0.823778 0.218691 0.319926 0.216922
C26   C     C_2   0.992425 0.174907 0.294351 -0.130247
H5    H     H_    0.222342 0.093466 0.174998 0.194879
C27   C     C_R   0.412894 0.792653 0.680674 -0.168207
C28   C     C_R   0.531851 0.465301 0.834565 -0.141874
C29   C     C_R   0.525865 0.908940 0.825259 0.303237
C30   C     C_R   0.504789 0.809811 0.758504 -0.087422
C31   C     C_R   0.378798 0.884063 0.669943 -0.094254
C32   C     C_R   0.427962 0.987365 0.735053 0.041520
C33   C     C_R   0.476941 0.997858 0.816631 -0.038113
C34   C     C_R   0.431495 0.080867 0.723063 -0.023590
C35   C     C_R   0.453790 0.180069 0.792460 0.021885
C36   C     C_R   0.466257 0.184167 0.871186 -0.214568
C37   C     C_R   0.488850 0.097885 0.885572 -0.010404
C38   C     C_R   0.426069 0.079289 0.644374 0.317752
C39   C     C_R   0.383590 0.165908 0.631565 -0.136340
C40   C     C_R   0.414911 0.265258 0.700947 -0.057086
C41   C     C_R   0.464724 0.273511 0.781973 0.047000
C42   C     C_R   0.412741 0.356929 0.691854 0.374770
C43   C     C_R   0.469122 0.452454 0.755238 -0.158619
C44   C     C_R   0.523478 0.374674 0.848703 -0.201740
H6    H     H_    0.567353 0.384667 0.911042 0.144179
H7    H     H_    0.459032 0.518412 0.741795 0.181328
H8    H     H_    0.311478 0.872210 0.610455 0.205899
H9    H     H_    0.462544 0.256346 0.924155 0.153158
C45   C     C_2   0.328179 0.606774 0.324842 -0.283872
C46   C     C_2   0.440422 0.576720 0.260920 -0.079313
C47   C     C_2   0.621444 0.657834 0.184235 -0.196252
C48   C     C_2   0.452419 0.637205 0.209903 -0.108324
H10   H     H_    0.251713 0.675158 0.338582 0.144492
O11   O     O_R   0.421600 0.630430 0.917010 -0.500115
O12   O     O_R   0.793840 0.702190 0.087630 -0.521779
O13   O     O_R   0.964010 0.886170 0.088190 -0.527263
C49   C     C_R   0.628754 0.694616 0.116517 0.676656
O14   O     O_R   0.751460 0.619510 0.917500 -0.516643
O15   O     O_R   0.921330 0.802900 0.916840 -0.494717
C50   C     C_R   0.573627 0.575587 0.900594 0.772352
O16   O     O_R   0.464290 0.713700 0.088350 -0.554535
O17   O     O_3   0.609200 0.818520 0.002630 -0.297248
V3    V     V_3+5 0.884140 0.747190 0.002530 1.687918
O18   O     O_R   0.251150 0.814630 0.917340 -0.493847
C51   C     C_R   0.074763 0.830699 0.891711 0.895152
O19   O     O_R   0.293530 0.897310 0.087470 -0.515345
C52   C     C_R   0.131452 0.932077 0.116588 0.748043
V4    V     V_3+5 0.384070 0.769710 0.002370 1.715350
O20   O     O_3   0.109180 0.698190 0.002460 -0.381544
C53   C     C_2   0.975406 0.924139 0.543245 0.884579
O21   O     O_2   0.127911 0.923015 0.516159 -0.544475
O22   O     O_R   0.814951 0.876697 0.487322 -0.581116
H11   H     H_    0.845370 0.840642 0.428320 0.339115
C54   C     C_2   0.179069 0.233373 0.322102 0.853025
O23   O     O_2   0.284708 0.226630 0.377474 -0.489792
O24   O     O_R   0.229808 0.298083 0.286035 -0.650626
H12   H     H_    0.358110 0.335886 0.311275 0.324756
C55   C     C_2   0.897450 0.989960 0.258193 0.899303
O25   O     O_2   0.948735 0.982080 0.322351 -0.506176
O26   O     O_R   0.734264 0.934177 0.207944 -0.622191
H13   H     H_    0.666667 0.893516 0.233231 0.310276
Cl1   Cl    Cl    0.603547 0.151779 0.271234 -0.611970
C56   C     C_2   0.532338 0.123310 0.975723 0.957793
O27   O     O_2   0.663108 0.186225 0.016130 -0.544503
O28   O     O_R   0.426473 0.077415 0.014885 -0.601932
H14   H     H_    0.472398 0.102074 0.075859 0.340631
C57   C     C_2   0.311732 0.145218 0.543557 1.067190
O29   O     O_2   0.152203 0.168000 0.527282 -0.522980
O30   O     O_R   0.422422 0.096214 0.478614 -0.542840
H15   H     H_    0.352183 0.080625 0.422256 0.364681
Cl2   Cl    Cl    0.649291 0.924903 0.917200 -0.569450
Cl3   Cl    Cl    0.761059 0.219213 0.572819 -0.557237
C58   C     C_2   0.572063 0.723292 0.772942 0.784910
O31   O     O_2   0.520343 0.711122 0.830644 -0.512892
O32   O     O_R   0.696141 0.657110 0.723469 -0.669908
H16   H     H_    0.726140 0.600607 0.740973 0.282291
Cl4   Cl    Cl    0.515392 0.977431 0.563716 -0.521827
Cl5   Cl    Cl    0.346639 0.357851 0.600222 -0.563817
C59   C     C_2   0.271863 0.675498 0.188812 0.826250
O33   O     O_2   0.141785 0.615484 0.144378 -0.533671
O34   O     O_R   0.255526 0.780764 0.216939 -0.650927
H17   H     H_    0.131423 0.797945 0.193742 0.293160
C60   C     C_2   0.526419 0.475636 0.228124 0.876202
O35   O     O_2   0.596767 0.439234 0.273993 -0.559456
O36   O     O_R   0.534397 0.424045 0.142862 -0.639328
H18   H     H_    0.601220 0.358156 0.127605 0.343463
C61   C     C_2   0.802398 0.664673 0.235041 0.815025
O37   O     O_2   0.866507 0.589359 0.240442 -0.537621
O38   O     O_R   0.897043 0.760575 0.278761 -0.662964
H19   H     H_    0.013782 0.759644 0.315650 0.308119
Cl6   Cl    Cl    0.093717 0.590374 0.777417 -0.735935
C62   C     C_2   0.996765 0.396357 0.975037 0.781550
O39   O     O_2   0.922173 0.477533 0.992607 -0.551673
O40   O     O_R   0.085976 0.373271 0.037889 -0.624192
H20   H     H_    0.072909 0.427262 0.095358 0.358706
C63   C     C_2   0.875931 0.776703 0.596076 0.816155
O41   O     O_2   0.985498 0.739451 0.544008 -0.559111
O42   O     O_R   0.683806 0.776368 0.570089 -0.629914
H21   H     H_    0.649830 0.732939 0.508696 0.321967
Cl7   Cl    Cl    0.041253 0.060653 0.954944 -0.615865

loop_
_geom_bond_atom_site_label_1
_geom_bond_atom_site_label_2
_ccdc_geom_bond_type
C13   C19   A    
C38   C39   A    
C48   C59   S    
O38   H19   S    
O11   C50   A    
C25   C26   D    
C4    C6    S    
O2    C1    A    
C7    C8    A    
C9    Cl7   S    
C1    O6    A    
C47   C61   S    
C57   O30   S    
O18   C51   A    
O42   H21   S    
C28   C43   A    
C36   C37   A    
C39   C40   A    
C46   C60   S    
C14   C15   A    
O24   H12   S    
C43   H7    S    
C9    C10   A    
C16   C17   A    
C23   C52   S    
C5    C51   S    
O5    C3    A    
C18   C19   A    
C40   C42   A    
O30   H15   S    
C47   C49   S    
V2    O10   S    
C5    C8    A    
C59   O33   D    
C26   C54   S    
O34   H17   S    
C57   O29   D    
V3    O20   S    
C58   O31   D    
C8    H1    S    
O8    V2    S    
C17   C62   S    
C55   O25   D    
C47   C48   D    
C32   C34   A    
C29   Cl2   S    
C25   Cl1   S    
O1    V2    S    
C11   C15   A    
C36   H9    S    
O7    V1    S    
O13   C52   A    
C27   C30   A    
C41   C44   A    
C24   C26   S    
C45   C46   D    
C42   C43   A    
O11   V4    S    
O9    C4    A    
C37   C56   S    
C44   H6    S    
O32   H16   S    
C60   O36   S    
O26   H13   S    
C34   C35   A    
O15   V3    S    
C12   C13   A    
C39   C57   S    
O12   C49   A    
O17   V4    S    
O15   C51   A    
C23   C24   D    
O4    C2    A    
C23   H5    S    
C1    C27   S    
C13   C14   A    
V4    O20   S    
C21   Cl6   S    
C5    C9    A    
C46   C48   S    
C7    C11   A    
C17   C18   A    
C54   O24   S    
O14   C50   A    
O19   C52   A    
C56   O28   S    
C19   C22   A    
C33   C37   A    
C35   C36   A    
C15   C53   S    
C6    C22   A    
O3    C4    A    
C35   C41   A    
O16   V4    S    
C14   H2    S    
C31   C32   A    
O19   V4    S    
O6    V2    S    
C20   H4    S    
C53   O22   S    
C63   O41   D    
C10   C12   A    
C24   C55   S    
O40   H20   S    
O2    V1    S    
C54   O23   D    
C60   O35   D    
C3    C25   S    
C61   O38   S    
C62   O39   D    
O14   V3    S    
C29   C30   A    
O1    C2    A    
C12   C16   A    
O5    V1    S    
O8    C3    A    
C55   O26   S    
C38   Cl4   S    
C7    C63   S    
C30   C58   S    
C29   C33   A    
C20   C21   A    
O9    V2    S    
O7    V2    S    
O4    V1    S    
O12   V3    S    
O3    V1    S    
V1    O10   S    
C2    C45   S    
C18   C20   A    
C40   C41   A    
C45   H10   S    
C16   H3    S    
C28   C44   A    
C56   O27   D    
O13   V3    S    
C59   O34   S    
C34   C38   A    
O28   H14   S    
C6    C21   A    
C58   O32   S    
C31   H8    S    
O17   V3    S    
C53   O21   D    
C42   Cl5   S    
C32   C33   A    
C49   O16   A    
C63   O42   S    
C22   Cl3   S    
C10   C11   A    
C28   C50   S    
O36   H18   S    
O22   H11   S    
O18   V4    S    
C27   C31   A    
C61   O37   D    
C62   O40   S    
