data_mof_unit_9174.cif
_audit_creation_date              2012-12-10T18:01:45-0500
_audit_creation_method            fapswitch 2.2
_symmetry_space_group_name_H-M    P1
_symmetry_Int_Tables_number       1
_space_group_crystal_system       triclinic
_cell_length_a                    10.926519
_cell_length_b                    9.524009
_cell_length_c                    19.358694
_cell_angle_alpha                 90.012047
_cell_angle_beta                  90.220522
_cell_angle_gamma                 89.802204
_cell_volume                      2014.52130361

loop_
_atom_site_label
_atom_site_type_symbol
_atom_type_description
_atom_site_fract_x
_atom_site_fract_y
_atom_site_fract_z
_atom_type_partial_charge
C1    C     C_R   0.261666 0.500297 0.499838 0.916602
C2    C     C_R   0.737635 0.499879 0.499980 0.974233
C3    C     C_R   0.502747 0.500034 0.929933 0.420908
C4    C     C_R   0.502269 0.500033 0.070070 0.420144
C5    C     C_R   0.499923 0.499992 0.367421 0.803300
C6    C     C_R   0.500250 0.500010 0.632577 0.815102
C7    C     C_R   0.060806 0.372803 0.501049 0.224983
C8    C     C_R   0.935758 0.621927 0.480337 0.285188
C9    C     C_R   0.937514 0.378699 0.518740 0.316609
C10   C     C_R   0.059598 0.628821 0.497825 0.288869
C11   C     C_R   0.871067 0.500057 0.499712 -0.383918
C12   C     C_R   0.126967 0.500847 0.499620 -0.395613
C13   C     C_R   0.460120 0.074311 0.443662 0.086383
C14   C     C_R   0.540929 0.925559 0.556126 0.024140
C15   C     C_R   0.540174 0.074057 0.556281 0.067480
C16   C     C_R   0.459801 0.925857 0.443727 0.064615
C17   C     C_R   0.502192 0.627217 0.254904 -0.163476
C18   C     C_R   0.505075 0.372848 0.745107 -0.160356
C19   C     C_R   0.497987 0.627200 0.745129 -0.156910
C20   C     C_R   0.499110 0.372806 0.254852 -0.160703
C21   C     C_R   0.502863 0.627240 0.182944 -0.138655
C22   C     C_R   0.505788 0.372846 0.817070 -0.140983
C23   C     C_R   0.498742 0.627217 0.817093 -0.139758
C24   C     C_R   0.499820 0.372808 0.182891 -0.142645
C25   C     C_R   0.501695 0.500028 0.146204 0.050244
C26   C     C_R   0.502533 0.500033 0.853796 0.051173
C27   C     C_R   0.500329 0.500003 0.291482 -0.011981
C28   C     C_R   0.501050 0.500017 0.708515 -0.007729
Cu1   Cu    Cu3+1 0.500000 0.640660 0.500000 1.041361
Cu2   Cu    Cu3+1 0.500000 0.359340 0.500000 1.056889
H1    H     H_    0.503259 0.726937 0.281797 0.142685
H2    H     H_    0.507748 0.273154 0.718221 0.143123
H3    H     H_    0.494804 0.726891 0.718258 0.147822
H4    H     H_    0.497605 0.273080 0.281704 0.151709
H5    H     H_    0.504378 0.727068 0.156214 0.158787
H6    H     H_    0.508886 0.273052 0.843813 0.158403
H7    H     H_    0.496127 0.727016 0.843856 0.158732
H8    H     H_    0.498795 0.272988 0.156118 0.159556
H9    H     H_    0.427980 0.129433 0.398338 0.151838
H10   H     H_    0.574909 0.870203 0.601023 0.124358
H11   H     H_    0.573189 0.129073 0.601393 0.125262
H12   H     H_    0.426460 0.870764 0.398670 0.127227
N1    N     N_R   0.500000 0.852070 0.500000 -0.167765
N2    N     N_R   0.500000 0.147930 0.500000 -0.168322
N3    N     N_R   0.503377 0.377427 0.034337 -0.229523
N4    N     N_R   0.501698 0.622640 0.965667 -0.229300
N5    N     N_R   0.503627 0.377427 0.965645 -0.229354
N6    N     N_R   0.501491 0.622641 0.034359 -0.229351
O1    O     O_R   0.319640 0.618740 0.500000 -0.525357
O2    O     O_R   0.680360 0.381260 0.500000 -0.529022
O3    O     O_R   0.680360 0.618740 0.500000 -0.530628
O4    O     O_R   0.319640 0.381260 0.500000 -0.515942
O5    O     O_R   0.499980 0.618820 0.400140 -0.597151
O6    O     O_R   0.500020 0.381180 0.599860 -0.592686
O7    O     O_R   0.500020 0.618820 0.599860 -0.601984
O8    O     O_R   0.499980 0.381180 0.400140 -0.599053
S1    S     S_3+6 0.118857 0.211209 0.468291 0.117020
O9    O     O_2   0.194235 0.139990 0.523200 -0.195713
O10   O     O_2   0.016085 0.116036 0.446998 -0.141079
O11   O     O_3   0.206241 0.241018 0.398503 -0.543996
H13   H     H_    0.153634 0.296422 0.366810 0.334137
S2    S     S_3+6 0.871977 0.752426 0.424557 0.085313
O12   O     O_2   0.803498 0.859936 0.466229 -0.206735
O13   O     O_2   0.971605 0.823993 0.384649 -0.205978
O14   O     O_3   0.775329 0.676373 0.368101 -0.559804
H14   H     H_    0.734349 0.755443 0.343991 0.362709
S3    S     S_3+6 0.877108 0.246639 0.573931 0.079679
O15   O     O_2   0.810578 0.138648 0.531704 -0.210318
O16   O     O_2   0.979167 0.176449 0.613292 -0.214222
O17   O     O_3   0.779797 0.319926 0.630741 -0.568428
H15   H     H_    0.756287 0.242577 0.662137 0.355060
S4    S     S_3+6 0.118366 0.793081 0.526423 0.124188
O18   O     O_2   0.188547 0.859496 0.468480 -0.224386
O19   O     O_2   0.015528 0.888704 0.547542 -0.138162
O20   O     O_3   0.210725 0.770235 0.595342 -0.530648
H16   H     H_    0.254554 0.860467 0.600649 0.371802

loop_
_geom_bond_atom_site_label_1
_geom_bond_atom_site_label_2
_ccdc_geom_bond_type
C5    O8    A    
C6    O7    A    
C4    C25   S    
Cu1   O1    S    
Cu2   O6    S    
S2    O12   D    
C5    O5    A    
C15   N2    A    
C4    N6    A    
S1    O10   D    
C23   C26   A    
Cu2   O4    S    
C2    O2    A    
C5    C27   S    
C6    C28   S    
C20   C24   A    
C24   H8    S    
O17   H15   S    
S2    O13   D    
C20   H4    S    
Cu2   O2    S    
Cu1   N1    S    
Cu2   N2    S    
C1    C12   S    
C6    O6    A    
S4    O20   S    
C2    C11   S    
C4    N3    A    
N3    N5    A    
C7    C12   A    
N4    N6    A    
S3    O15   D    
C17   C27   A    
C18   C28   A    
C24   C25   A    
C15   H11   S    
S4    O19   D    
C19   H3    S    
S1    O11   S    
Cu1   O7    S    
C23   H7    S    
Cu2   O8    S    
C17   C21   A    
O11   H13   S    
S3    O16   D    
C19   C23   A    
O20   H16   S    
C9    S3    S    
Cu1   Cu2   S    
C19   C28   A    
C9    C11   A    
C16   N1    A    
C10   C12   A    
C17   H1    S    
C18   H2    S    
C16   H12   S    
Cu1   O3    S    
C7    C9    A    
C21   C25   A    
S2    O14   S    
C18   C22   A    
C3    C26   S    
S4    O18   D    
C21   H5    S    
C20   C27   A    
C22   H6    S    
C3    N4    A    
S3    O17   S    
S1    O9    D    
Cu1   O5    S    
C8    C11   A    
C3    N5    A    
C1    O4    A    
C13   H9    S    
C2    O3    A    
C14   H10   S    
C8    C10   A    
O14   H14   S    
C22   C26   A    
C13   C16   A    
C14   C15   A    
C1    O1    A    
C7    S1    S    
C13   N2    A    
C8    S2    S    
C14   N1    A    
C10   S4    S    
