data_mof_unit_34662.cif
_audit_creation_date              2013-03-05T15:44:12-0500
_audit_creation_method            fapswitch 2.2
_symmetry_space_group_name_H-M    P1
_symmetry_Int_Tables_number       1
_space_group_crystal_system       triclinic
_cell_length_a                    26.388841
_cell_length_b                    27.785788
_cell_length_c                    8.613509
_cell_angle_alpha                 89.99997
_cell_angle_beta                  96.362092
_cell_angle_gamma                 90.063404
_cell_volume                      6276.82446335

loop_
_atom_site_label
_atom_site_type_symbol
_atom_site_description
_atom_site_fract_x
_atom_site_fract_y
_atom_site_fract_z
_atom_type_partial_charge
P1    P     P_3+3 0.893960 0.447890 0.040050 0.565327
P2    P     P_3+3 0.893960 0.552110 0.540050 0.584148
P3    P     P_3+3 0.393960 0.947890 0.040050 0.564526
P4    P     P_3+3 0.393960 0.052110 0.540050 0.601330
O1    O     O_2   0.898940 0.431940 0.867860 -0.349402
O2    O     O_2   0.898940 0.568060 0.367860 -0.362601
O3    O     O_2   0.398940 0.931940 0.867860 -0.326320
O4    O     O_2   0.398940 0.068060 0.367860 -0.353482
O5    O     O_3   0.941140 0.476130 0.123050 -0.247677
O6    O     O_3   0.941140 0.523870 0.623050 -0.251128
O7    O     O_3   0.441140 0.976130 0.123050 -0.266656
O8    O     O_3   0.441140 0.023870 0.623050 -0.250756
O9    O     O_3   0.982430 0.389880 0.635700 -0.368134
O10   O     O_3   0.982430 0.610120 0.135700 -0.366940
O11   O     O_3   0.482430 0.889880 0.635700 -0.369787
O12   O     O_3   0.482430 0.110120 0.135700 -0.369374
O13   O     O_2   0.901889 0.349862 0.746533 -0.345787
O14   O     O_2   0.901879 0.649875 0.247876 -0.362745
O15   O     O_2   0.402095 0.849926 0.747447 -0.336412
O16   O     O_2   0.402197 0.149944 0.249791 -0.352043
O17   O     O_3   0.847508 0.492637 0.001819 -0.619757
O18   O     O_3   0.845932 0.508625 0.505395 -0.541404
O19   O     O_3   0.345370 0.990858 0.001255 -0.611639
O20   O     O_3   0.348165 0.006329 0.506128 -0.544002
O21   O     O_3   0.965152 0.290646 0.636585 -0.423216
O22   O     O_3   0.963862 0.709237 0.133250 -0.416504
O23   O     O_3   0.464957 0.790615 0.636008 -0.427103
O24   O     O_3   0.463846 0.209202 0.133030 -0.416241
H1    H     H_    0.029188 0.321553 0.759821 0.116038
H2    H     H_    0.028306 0.679275 0.257153 0.112731
H3    H     H_    0.528446 0.821866 0.760981 0.112126
H4    H     H_    0.527788 0.179085 0.259185 0.112693
C1    C     C_3   0.047478 0.252031 0.675598 -0.628117
C2    C     C_3   0.045673 0.748946 0.171969 -0.652682
C3    C     C_3   0.547164 0.751967 0.681847 -0.739195
C4    C     C_3   0.545877 0.248568 0.174382 -0.645802
H5    H     H_    0.088111 0.258986 0.661818 0.187054
H6    H     H_    0.086337 0.742533 0.157864 0.184169
H7    H     H_    0.541577 0.735762 0.794865 0.251526
H8    H     H_    0.586594 0.241793 0.161937 0.184602
H9    H     H_    0.045980 0.237064 0.793240 0.232708
H10   H     H_    0.044151 0.763809 0.289618 0.233591
H11   H     H_    0.534252 0.725511 0.589615 0.305542
H12   H     H_    0.544050 0.263592 0.291660 0.235053
P5    P     P_3+3 0.105800 0.447360 0.649510 0.525330
P6    P     P_3+3 0.105800 0.552640 0.149510 0.523998
P7    P     P_3+3 0.605800 0.947360 0.649510 0.524681
P8    P     P_3+3 0.605800 0.052640 0.149510 0.523767
P9    P     P_3+3 0.068351 0.348481 0.087155 0.503203
P10   P     P_3+3 0.067926 0.652048 0.587140 0.502500
P11   P     P_3+3 0.567894 0.848064 0.087403 0.509784
P12   P     P_3+3 0.568061 0.151908 0.586798 0.503184
O25   O     O_2   0.100770 0.431440 0.821660 -0.311872
O26   O     O_2   0.100770 0.568560 0.321660 -0.326996
O27   O     O_2   0.600770 0.931440 0.821660 -0.313189
O28   O     O_2   0.600770 0.068560 0.321660 -0.326309
O29   O     O_3   0.017130 0.389790 0.053700 -0.357178
O30   O     O_3   0.017130 0.610210 0.553700 -0.356598
O31   O     O_3   0.517130 0.889790 0.053700 -0.358005
O32   O     O_3   0.517130 0.110210 0.553700 -0.358148
O33   O     O_2   0.106042 0.358334 0.966633 -0.354144
O34   O     O_2   0.106249 0.641805 0.468774 -0.353543
O35   O     O_2   0.605660 0.857806 0.966881 -0.353384
O36   O     O_2   0.606252 0.141736 0.468011 -0.353851
O37   O     O_3   0.154422 0.490181 0.687236 -0.588216
O38   O     O_3   0.154223 0.509491 0.182776 -0.595991
O39   O     O_3   0.654392 0.990214 0.687150 -0.588555
O40   O     O_3   0.654123 0.009400 0.183115 -0.595711
O41   O     O_3   0.048657 0.289650 0.032990 -0.619468
O42   O     O_3   0.047636 0.710493 0.530126 -0.619289
O43   O     O_3   0.547201 0.789536 0.032393 -0.610189
O44   O     O_3   0.548035 0.210499 0.530717 -0.620711
C5    C     C_3   0.001542 0.278216 0.086261 0.583437
C6    C     C_3   0.000181 0.721352 0.582165 0.584893
C7    C     C_3   0.499963 0.778797 0.086304 0.591438
C8    C     C_3   0.500584 0.221419 0.582513 0.584879
H13   H     H_    0.971986 0.304845 0.041211 0.073218
H14   H     H_    0.971100 0.694270 0.536645 0.076352
H15   H     H_    0.470821 0.805937 0.042273 0.067395
H16   H     H_    0.471365 0.194646 0.535586 0.078435
C9    C     C_3   0.985150 0.226798 0.031605 -0.130264
C10   C     C_3   0.982957 0.772489 0.527065 -0.139542
C11   C     C_3   0.482417 0.727655 0.031732 -0.131917
C12   C     C_3   0.483760 0.272821 0.529202 -0.141154
H17   H     H_    0.019151 0.204890 0.012745 0.148960
H18   H     H_    0.016352 0.794665 0.503875 0.147150
H19   H     H_    0.515810 0.705070 0.011811 0.154346
H20   H     H_    0.517444 0.295050 0.509036 0.150470
C13   C     C_3   0.183740 0.506554 0.056497 0.742322
C14   C     C_3   0.178678 0.499873 0.553216 0.745281
C15   C     C_3   0.683460 0.006024 0.056528 0.742020
C16   C     C_3   0.678963 0.999566 0.553502 0.744938
H21   H     H_    0.162336 0.519168 0.946328 0.044464
H22   H     H_    0.152957 0.492455 0.445952 0.051007
H23   H     H_    0.662066 0.018686 0.946427 0.044383
H24   H     H_    0.653486 0.991870 0.445962 0.050246
C17   C     C_3   0.231990 0.537056 0.090201 -0.836871
C18   C     C_3   0.226788 0.469163 0.553539 -0.839260
C19   C     C_3   0.732022 0.036125 0.089453 -0.836566
C20   C     C_3   0.727134 0.968858 0.555694 -0.838873
H25   H     H_    0.256212 0.522719 0.193469 0.270729
H26   H     H_    0.255010 0.479259 0.653583 0.282540
H27   H     H_    0.756203 0.021690 0.192655 0.271016
H28   H     H_    0.755108 0.979167 0.656124 0.281811
H29   H     H_    0.254170 0.536540 0.987892 0.254133
H30   H     H_    0.244218 0.474807 0.443401 0.243385
H31   H     H_    0.754074 0.035279 0.986883 0.253419
H32   H     H_    0.744861 0.974267 0.445950 0.243553
H33   H     H_    0.222268 0.574879 0.113587 0.228641
H34   H     H_    0.217848 0.430454 0.562678 0.223372
H35   H     H_    0.722710 0.074060 0.112601 0.228642
H36   H     H_    0.718182 0.930171 0.565485 0.223974
Ba1   Ba    Ba6+2 0.999910 0.465960 0.844870 1.763107
Ba2   Ba    Ba6+2 0.999910 0.534040 0.344870 1.762613
Ba3   Ba    Ba6+2 0.499910 0.965960 0.844870 1.765548
Ba4   Ba    Ba6+2 0.499910 0.034040 0.344870 1.766029
C21   C     C_3   0.817310 0.499167 0.124291 -0.001621
C22   C     C_3   0.818821 0.502856 0.636080 0.030845
C23   C     C_3   0.324422 0.003698 0.138443 0.028788
C24   C     C_3   0.316651 0.003009 0.627137 0.073087
H37   H     H_    0.837838 0.488361 0.237715 0.147842
H38   H     H_    0.842321 0.513527 0.744356 0.095331
H39   H     H_    0.352931 0.998503 0.240437 0.151748
H40   H     H_    0.334410 0.019508 0.737101 0.099517
C25   C     C_3   0.768873 0.468473 0.090011 0.022083
C26   C     C_3   0.770790 0.534962 0.616583 -0.138595
C27   C     C_3   0.277724 0.971548 0.160324 -0.098411
C28   C     C_3   0.266189 0.028052 0.574815 -0.142614
H41   H     H_    0.751934 0.474025 0.968148 0.166996
H42   H     H_    0.756612 0.539163 0.491255 0.242406
H43   H     H_    0.281998 0.937300 0.098005 0.161260
H44   H     H_    0.247955 0.011585 0.465598 0.189272
H45   H     H_    0.780022 0.430455 0.100489 0.114152
H46   H     H_    0.782155 0.571151 0.661275 0.124345
H47   H     H_    0.277822 0.962047 0.285312 0.134071
H48   H     H_    0.274190 0.066010 0.550347 0.187266
O45   O     O_3   0.058810 0.523750 0.066650 -0.326515
O46   O     O_3   0.058810 0.476250 0.566650 -0.337536
O47   O     O_3   0.558810 0.023750 0.066650 -0.327804
O48   O     O_3   0.558810 0.976250 0.566650 -0.337785
P13   P     P_3+3 0.933164 0.653220 0.106671 0.607979
P14   P     P_3+3 0.933814 0.346201 0.606818 0.629120
P15   P     P_3+3 0.433072 0.153160 0.107630 0.610058
P16   P     P_3+3 0.433771 0.846298 0.607173 0.635738
C29   C     C_3   0.018226 0.299086 0.655267 0.423749
C30   C     C_3   0.017032 0.701488 0.152218 0.442304
C31   C     C_3   0.518034 0.798973 0.657103 0.481741
C32   C     C_3   0.516987 0.201279 0.153927 0.438833
H49   H     H_    0.030359 0.317765 0.551337 0.099020
H50   H     H_    0.029404 0.682853 0.048604 0.098316
H51   H     H_    0.530825 0.817099 0.553142 0.092600
H52   H     H_    0.529687 0.182539 0.050970 0.101563
H53   H     H_    0.031459 0.224887 0.589374 0.319004
H54   H     H_    0.029253 0.775960 0.086044 0.317720
H55   H     H_    0.588524 0.759398 0.683710 0.177852
H56   H     H_    0.529960 0.275609 0.087816 0.317727
H57   H     H_    0.967117 0.207519 0.124145 0.207423
H58   H     H_    0.965923 0.791984 0.621087 0.206387
H59   H     H_    0.464484 0.708608 0.124888 0.207587
H60   H     H_    0.466103 0.291812 0.623060 0.206792
C33   C     C_R   0.905369 0.385911 0.306881 0.070025
C34   C     C_R   0.905281 0.613453 0.807139 0.045408
C35   C     C_R   0.405564 0.886031 0.306991 0.062223
C36   C     C_R   0.404131 0.113164 0.808658 0.046097
C37   C     C_R   0.879161 0.392204 0.157707 0.030404
C38   C     C_R   0.880300 0.607922 0.656354 0.019620
C39   C     C_R   0.379289 0.892309 0.157887 0.019423
C40   C     C_R   0.378171 0.107004 0.659236 0.029313
C41   C     C_R   0.841172 0.358144 0.106520 -0.221279
C42   C     C_R   0.843509 0.642450 0.602563 -0.209287
C43   C     C_R   0.340678 0.858794 0.107883 -0.213854
C44   C     C_R   0.339675 0.140506 0.608715 -0.210352
C45   C     C_R   0.826314 0.321382 0.208027 0.115390
C46   C     C_R   0.827036 0.678285 0.704120 0.084491
C47   C     C_R   0.325575 0.822299 0.210027 0.104700
C48   C     C_R   0.324514 0.177037 0.710330 0.098117
C49   C     C_R   0.850796 0.319089 0.364774 -0.183723
C50   C     C_R   0.849537 0.679285 0.863782 -0.214715
C51   C     C_R   0.350109 0.820111 0.366684 -0.196109
C52   C     C_R   0.348579 0.178957 0.867849 -0.207522
C53   C     C_R   0.892560 0.350319 0.411956 0.220714
C54   C     C_R   0.891515 0.648419 0.912461 0.157279
C55   C     C_R   0.392360 0.850816 0.412824 0.234979
C56   C     C_R   0.390752 0.148168 0.914685 0.157100
C57   C     C_R   0.792575 0.234805 0.156131 0.317402
C58   C     C_R   0.792340 0.765015 0.666793 0.314387
C59   C     C_R   0.290909 0.735832 0.163043 0.315394
C60   C     C_R   0.292253 0.264250 0.662220 0.321032
C61   C     C_R   0.250459 0.704356 0.113258 -0.184864
C62   C     C_R   0.252668 0.296607 0.611698 -0.189602
C63   C     C_R   0.752223 0.203191 0.106307 -0.183770
C64   C     C_R   0.751711 0.796754 0.621523 -0.187342
C65   C     C_R   0.202724 0.720957 0.047704 -0.012072
C66   C     C_R   0.204905 0.280948 0.542741 -0.010325
C67   C     C_R   0.704091 0.219734 0.044131 -0.013919
C68   C     C_R   0.705124 0.780823 0.544714 -0.013756
C69   C     C_R   0.195205 0.771517 0.035492 -0.258851
C70   C     C_R   0.196474 0.230680 0.527069 -0.257513
C71   C     C_R   0.695978 0.270192 0.035219 -0.254310
C72   C     C_R   0.699634 0.730949 0.512228 -0.250357
C73   C     C_R   0.735771 0.302453 0.090258 0.334122
C74   C     C_R   0.739353 0.698257 0.562336 0.337389
C75   C     C_R   0.235277 0.803703 0.089267 0.341700
C76   C     C_R   0.235407 0.197682 0.581997 0.326390
C77   C     C_R   0.784802 0.285593 0.148792 -0.230118
C78   C     C_R   0.786278 0.714441 0.641540 -0.203774
C79   C     C_R   0.283796 0.786657 0.151792 -0.224858
C80   C     C_R   0.283948 0.213565 0.649341 -0.217664
C81   C     C_R   0.138871 0.684747 0.838080 -0.177669
C82   C     C_R   0.141436 0.317598 0.334021 -0.183126
C83   C     C_R   0.639713 0.183911 0.836180 -0.181772
C84   C     C_R   0.639968 0.816278 0.336843 -0.170153
C85   C     C_R   0.104312 0.648599 0.783339 0.320697
C86   C     C_R   0.105721 0.352843 0.281379 0.327168
C87   C     C_R   0.604582 0.148173 0.782486 0.324698
C88   C     C_R   0.605089 0.852126 0.282507 0.315571
C89   C     C_R   0.118759 0.607314 0.033177 0.144189
C90   C     C_R   0.119598 0.393405 0.532283 0.142604
C91   C     C_R   0.619001 0.107035 0.032569 0.143227
C92   C     C_R   0.619619 0.893343 0.532371 0.141883
C93   C     C_R   0.151038 0.645352 0.091852 -0.294334
C94   C     C_R   0.153028 0.356112 0.589283 -0.288298
C95   C     C_R   0.652035 0.144629 0.090110 -0.292801
C96   C     C_R   0.652927 0.856066 0.590017 -0.289538
C97   C     C_R   0.162537 0.684103 0.993360 0.048620
C98   C     C_R   0.165201 0.318114 0.489124 0.048022
C99   C     C_R   0.663757 0.183053 0.990872 0.048895
C100  C     C_R   0.664772 0.817622 0.491058 0.040167
C101  C     C_R   0.098002 0.608629 0.877048 -0.298035
C102  C     C_R   0.098581 0.392219 0.376410 -0.315287
C103  C     C_R   0.597823 0.108446 0.876827 -0.297717
C104  C     C_R   0.598725 0.892016 0.376344 -0.304800
H61   H     H_    0.168627 0.643883 0.211407 0.204426
H62   H     H_    0.170760 0.357562 0.708712 0.201624
H63   H     H_    0.669928 0.143098 0.209327 0.203876
H64   H     H_    0.670744 0.857853 0.709291 0.201120
H65   H     H_    0.256900 0.665884 0.121224 0.184816
H66   H     H_    0.259793 0.334954 0.621963 0.187770
H67   H     H_    0.758936 0.164732 0.111910 0.185356
H68   H     H_    0.757343 0.834995 0.641165 0.187055
H69   H     H_    0.822125 0.361027 0.988918 0.166279
H70   H     H_    0.827008 0.640635 0.482204 0.199181
H71   H     H_    0.321628 0.861752 0.990360 0.175997
H72   H     H_    0.321262 0.138054 0.490388 0.203408
H73   H     H_    0.148183 0.712391 0.757605 0.138809
H74   H     H_    0.151276 0.290578 0.252309 0.137829
H75   H     H_    0.649078 0.211507 0.755546 0.139831
H76   H     H_    0.648182 0.787953 0.257261 0.162733
H77   H     H_    0.077937 0.577538 0.826387 0.187831
H78   H     H_    0.077637 0.422939 0.327002 0.192070
H79   H     H_    0.577092 0.077605 0.826959 0.187809
H80   H     H_    0.578102 0.922857 0.326314 0.190458
C105  C     C_2   0.806263 0.552495 0.130095 0.628358
H81   H     H_    0.837393 0.577751 0.126660 0.025039
O49   O     O_2   0.763316 0.568308 0.134341 -0.489796
C106  C     C_2   0.806310 0.450182 0.652205 0.862208
H82   H     H_    0.789118 0.437705 0.753590 -0.062833
O50   O     O_2   0.816348 0.420810 0.554550 -0.584011
C107  C     C_2   0.312366 0.056701 0.130731 0.792961
H83   H     H_    0.318558 0.077316 0.027516 -0.027178
O51   O     O_2   0.296645 0.077309 0.240934 -0.584839
C108  C     C_2   0.306279 0.950767 0.658505 0.678396
H84   H     H_    0.286539 0.940947 0.757977 0.039811
O52   O     O_2   0.319556 0.919104 0.573543 -0.604667
N1    N     N_R   0.730829 0.477989 0.196801 0.304004
O53   O     O_R   0.685569 0.492958 0.142181 -0.182319
O54   O     O_R   0.739030 0.464122 0.341517 -0.316138
N2    N     N_R   0.729271 0.517475 0.700903 0.248714
O55   O     O_R   0.714426 0.543060 0.813967 -0.267626
O56   O     O_R   0.700705 0.481998 0.644408 -0.266592
N3    N     N_R   0.228395 0.992832 0.103284 0.302560
O57   O     O_R   0.208319 0.025709 0.184786 -0.268432
O58   O     O_R   0.199731 0.972077 0.990175 -0.194191
N4    N     N_R   0.231426 0.025490 0.694464 0.277344
O59   O     O_R   0.243846 0.045448 0.829631 -0.357065
O60   O     O_R   0.186557 0.006124 0.663120 -0.220486
N5    N     N_R   0.840992 0.214214 0.213658 0.253207
O61   O     O_R   0.883121 0.236101 0.192823 -0.344255
O62   O     O_R   0.843402 0.171521 0.276247 -0.316738
N6    N     N_R   0.839581 0.785308 0.736581 0.252551
O63   O     O_R   0.882764 0.766708 0.709181 -0.328912
O64   O     O_R   0.839859 0.825241 0.815682 -0.311935
N7    N     N_R   0.338943 0.715024 0.223146 0.252887
O65   O     O_R   0.381417 0.735788 0.199378 -0.341890
O66   O     O_R   0.340617 0.673013 0.290377 -0.315806
N8    N     N_R   0.340588 0.283988 0.725135 0.252935
O67   O     O_R   0.382765 0.262574 0.702144 -0.336702
O68   O     O_R   0.342936 0.325783 0.793819 -0.314129
C109  C     C_2   0.145390 0.791955 0.972066 0.681217
H85   H     H_    0.127246 0.780821 0.859697 0.052346
O69   O     O_2   0.124883 0.822956 0.043748 -0.475334
C110  C     C_2   0.146648 0.211211 0.458949 0.709459
H86   H     H_    0.131291 0.220522 0.341598 0.045971
O70   O     O_2   0.123432 0.182421 0.531580 -0.478195
C111  C     C_2   0.645708 0.290259 0.974387 0.684494
H87   H     H_    0.627522 0.279589 0.861520 0.051758
O71   O     O_2   0.624846 0.320362 0.048674 -0.474047
C112  C     C_2   0.651050 0.711514 0.435895 0.708677
H88   H     H_    0.615938 0.720725 0.480962 0.040654
O72   O     O_2   0.650093 0.685506 0.321137 -0.463657
N9    N     N_R   0.725058 0.352719 0.096357 0.231711
O73   O     O_R   0.719346 0.372003 0.230830 -0.303050
O74   O     O_R   0.710273 0.376089 0.968350 -0.376004
N10   N     N_R   0.729225 0.647881 0.546588 0.215420
O75   O     O_R   0.701140 0.627743 0.643262 -0.327209
O76   O     O_R   0.733557 0.627061 0.413416 -0.338910
N11   N     N_R   0.226007 0.854345 0.082837 0.236582
O77   O     O_R   0.215340 0.875281 0.948123 -0.361264
O78   O     O_R   0.219772 0.877482 0.210595 -0.352779
N12   N     N_R   0.223885 0.147520 0.578214 0.227061
O79   O     O_R   0.211925 0.126508 0.444081 -0.337126
O80   O     O_R   0.209801 0.128060 0.703613 -0.289301
C113  C     C_2   0.830600 0.285347 0.476772 0.712888
H89   H     H_    0.790258 0.276643 0.464514 -0.026180
O81   O     O_2   0.858495 0.265348 0.579086 -0.440974
C114  C     C_2   0.826862 0.710748 0.977150 0.700116
H90   H     H_    0.786456 0.719022 0.959510 -0.020384
O82   O     O_2   0.852720 0.729221 0.087274 -0.434959
C115  C     C_2   0.329419 0.787139 0.479932 0.721567
H91   H     H_    0.288841 0.779521 0.469260 -0.031894
O83   O     O_2   0.357128 0.766494 0.581235 -0.439649
C116  C     C_2   0.327622 0.211927 0.980497 0.700227
H92   H     H_    0.287326 0.220741 0.965823 -0.026161
O84   O     O_2   0.354802 0.231114 0.086343 -0.436010
N13   N     N_R   0.944899 0.418125 0.356326 0.237580
O85   O     O_R   0.991402 0.407501 0.336493 -0.432978
O86   O     O_R   0.935173 0.454789 0.439903 -0.310137
N14   N     N_R   0.945085 0.581631 0.856710 0.241288
O87   O     O_R   0.935838 0.545171 0.941754 -0.328631
O88   O     O_R   0.991431 0.592499 0.835489 -0.423433
N15   N     N_R   0.445880 0.917585 0.354949 0.238372
O89   O     O_R   0.492091 0.905386 0.336936 -0.437010
O90   O     O_R   0.437260 0.954498 0.439020 -0.309028
N16   N     N_R   0.444854 0.082107 0.855895 0.240001
O91   O     O_R   0.436777 0.045017 0.939777 -0.335185
O92   O     O_R   0.490839 0.094577 0.835548 -0.424257
N17   N     N_R   0.006815 0.278278 0.255489 0.194878
O93   O     O_R   0.045368 0.256075 0.329739 -0.478501
O94   O     O_R   0.966286 0.284747 0.324804 -0.410968
N18   N     N_R   0.005092 0.721405 0.751281 0.196603
O95   O     O_R   0.964965 0.712277 0.819890 -0.403251
O96   O     O_R   0.042133 0.745606 0.826076 -0.479662
N19   N     N_R   0.505646 0.778625 0.255376 0.194843
O97   O     O_R   0.544202 0.755959 0.327577 -0.474086
O98   O     O_R   0.465263 0.784619 0.325742 -0.410319
N20   N     N_R   0.505324 0.220838 0.751551 0.199545
O99   O     O_R   0.465601 0.209842 0.819728 -0.403768
O100  O     O_R   0.541901 0.245217 0.828014 -0.479187
N21   N     N_R   0.948792 0.227101 0.891022 0.272333
O101  O     O_R   0.953770 0.196133 0.780480 -0.269334
O102  O     O_R   0.906033 0.250376 0.890262 -0.280028
N22   N     N_R   0.945023 0.771402 0.390339 0.273044
O103  O     O_R   0.948947 0.801284 0.276016 -0.266344
O104  O     O_R   0.902192 0.748680 0.396945 -0.281842
N23   N     N_R   0.445466 0.728621 0.892565 0.271544
O105  O     O_R   0.449570 0.697916 0.780641 -0.266676
O106  O     O_R   0.403038 0.752274 0.894533 -0.284623
N24   N     N_R   0.446623 0.272423 0.390454 0.271867
O107  O     O_R   0.451241 0.302963 0.278408 -0.269068
O108  O     O_R   0.403696 0.249555 0.393078 -0.278878
N25   N     N_R   0.198480 0.456332 0.036285 0.253035
O109  O     O_R   0.224847 0.444389 0.923323 -0.382557
O110  O     O_R   0.187456 0.423465 0.134863 -0.383232
N26   N     N_R   0.193216 0.550753 0.553537 0.252105
O111  O     O_R   0.213622 0.568890 0.435890 -0.390456
O112  O     O_R   0.188610 0.577726 0.674657 -0.402062
N27   N     N_R   0.697708 0.955646 0.036765 0.253313
O113  O     O_R   0.723817 0.943305 0.923613 -0.383124
O114  O     O_R   0.686612 0.923045 0.136127 -0.382652
N28   N     N_R   0.693468 0.050442 0.552794 0.252092
O115  O     O_R   0.714090 0.068296 0.435127 -0.391057
O116  O     O_R   0.688669 0.077685 0.673155 -0.401954

loop_
_geom_bond_atom_site_label_1
_geom_bond_atom_site_label_2
_geom_bond_distance
_ccdc_geom_bond_type
C116  O84   1.218234 D    
C68   C100  1.512050 S    
C74   N10   1.428375 S    
C19   H27   1.110463 S    
C2    H10   1.099151 S    
C47   C79   1.524114 S    
C61   H65   1.083573 S    
N17   O93   1.296867 A    
N9    O73   1.300120 A    
O5    Ba2   2.825363 S    
N3    O57   1.300563 A    
C93   C97   1.423894 A    
C20   H28   1.110549 S    
N4    O59   1.298260 A    
Ba2   O45   3.011155 S    
O17   C21   1.402656 S    
C30   H50   1.111828 S    
C4    C32   1.518801 S    
C76   C80   1.416384 A    
C6    N18   1.448064 S    
P2    O18   1.751580 S    
H2    C30   1.107785 S    
C104  H80   1.079482 S    
P4    O8    1.575375 S    
O8    Ba3   2.827316 S    
H3    C31   1.107177 S    
C14   N26   1.464368 S    
P6    C89   1.871806 S    
P9    O41   1.761917 S    
C73   N9    1.427421 S    
P11   O43   1.762982 S    
C76   N12   1.425844 S    
C96   C100  1.423066 A    
C5    C9    1.550283 S    
O25   Ba1   2.857889 S    
O38   C13   1.408689 S    
C37   C41   1.412414 A    
N12   O80   1.298353 A    
O20   C24   1.406568 S    
C35   C55   1.406943 A    
C36   C40   1.399793 A    
N18   O95   1.293421 A    
C13   N25   1.464599 S    
C59   N7    1.437077 S    
C39   C43   1.411220 A    
O10   Ba2   2.783089 S    
P12   C87   1.849563 S    
C81   C85   1.401958 A    
P4    C40   1.910539 S    
C8    N20   1.447585 S    
O13   P14   1.547007 D    
P12   O44   1.763055 S    
N23   O105  1.300927 A    
C33   N13   1.403665 S    
N22   O103  1.300848 A    
O28   Ba4   2.855911 S    
O9    P14   1.762550 S    
C50   C54   1.427451 A    
O6    Ba1   2.827316 S    
N2    O56   1.301463 A    
C70   C76   1.419289 A    
Ba1   O45   2.824880 S    
C4    H12   1.099034 S    
C112  H88   1.074681 S    
C85   C101  1.393574 A    
C42   C46   1.425058 A    
O18   C22   1.408141 S    
C94   H62   1.082627 S    
O1    Ba1   2.853698 S    
C12   H20   1.111211 S    
P6    Ba2   3.456264 S    
N18   O96   1.296814 A    
C107  O51   1.220173 D    
C57   N5    1.437570 S    
C108  O52   1.220568 D    
C23   H39   1.101081 S    
C18   H30   1.110258 S    
C67   C99   1.507141 S    
P15   C56   1.901770 S    
C48   C80   1.526378 S    
C110  O70   1.220859 D    
P10   O42   1.763134 S    
C65   C97   1.509941 S    
C11   N23   1.459269 S    
N8    O68   1.301626 A    
P2    Ba2   3.455484 S    
C43   C47   1.427580 A    
O26   Ba2   2.855911 S    
O39   C16   1.406491 S    
C27   H43   1.104564 S    
P3    O7    1.574002 S    
O4    Ba4   2.855651 S    
C25   H41   1.105259 S    
C26   H46   1.105883 S    
C72   C74   1.418390 A    
C59   C79   1.426724 A    
C46   C78   1.526611 S    
C5    H13   1.113803 S    
P3    Ba3   3.454584 S    
C7    H15   1.113795 S    
C101  H77   1.079298 S    
C52   C56   1.426810 A    
P8    C91   1.870013 S    
P11   C88   1.853252 S    
C115  O83   1.218447 D    
N21   O101  1.300862 A    
C14   H22   1.103397 S    
C2    C30   1.519329 S    
O21   P14   1.757351 S    
C84   H76   1.081472 S    
C103  H79   1.079356 S    
N28   O115  1.300431 A    
P3    C39   1.910729 S    
C111  O71   1.221146 D    
C3    H55   1.108944 S    
O19   C23   1.405143 S    
C105  H81   1.082736 S    
C10   H58   1.110217 S    
C1    H53   1.108525 S    
C113  O81   1.218380 D    
Ba3   Ba4   4.703879 S    
C16   H24   1.103358 S    
P9    O29   1.773307 S    
N26   O111  1.300443 A    
C60   C62   1.410747 A    
C22   H38   1.101685 S    
C83   H75   1.081208 S    
N13   O86   1.289743 A    
O2    Ba2   2.855651 S    
P12   O32   1.772461 S    
C21   C105  1.512390 S    
C106  O50   1.222142 D    
P7    O48   1.580335 S    
C45   C49   1.432173 A    
C3    H11   1.107734 S    
P8    Ba4   3.456264 S    
N10   O76   1.301049 A    
P5    O25   1.567011 D    
C71   C111  1.480834 S    
N5    O61   1.296421 A    
P5    C90   1.866111 S    
C82   C98   1.411608 A    
C26   N2    1.462595 S    
C58   N6    1.437276 S    
C67   C71   1.419274 A    
C20   H32   1.110317 S    
C58   C78   1.428088 A    
C49   C113  1.485422 S    
N6    O63   1.297030 A    
N16   O91   1.289649 A    
O29   Ba1   2.782505 S    
P10   C85   1.851407 S    
C16   N28   1.464320 S    
C70   C110  1.480935 S    
C31   H51   1.111795 S    
O42   C6    1.409032 S    
C17   H33   1.105879 S    
N20   O100  1.296900 A    
C19   H35   1.105729 S    
C109  H85   1.076445 S    
N2    O55   1.300943 A    
N24   O108  1.300585 A    
N1    O54   1.299806 A    
C1    C29   1.519313 S    
P6    O45   1.578941 S    
N23   O106  1.300602 A    
C60   N8    1.437589 S    
C38   C42   1.407149 A    
N19   O98   1.293919 A    
P5    O37   1.752637 S    
O32   Ba4   2.781742 S    
C82   H74   1.080441 S    
N3    O58   1.299862 A    
C15   N27   1.464623 S    
C46   C50   1.436532 A    
C93   H61   1.082446 S    
O14   P13   1.546579 D    
C32   H52   1.111823 S    
C41   H69   1.082779 S    
N14   O87   1.288998 A    
C11   H19   1.111081 S    
C108  H84   1.085590 S    
P7    C92   1.867213 S    
C17   H29   1.110723 S    
C112  O72   1.222447 D    
C66   C70   1.418189 A    
C49   C53   1.425275 A    
P5    O46   1.580335 S    
N4    O60   1.300826 A    
Ba2   O46   2.826833 S    
C13   H21   1.106368 S    
C63   C67   1.400687 A    
C10   N22   1.458974 S    
C15   H23   1.106196 S    
C34   N14   1.403600 S    
C48   C52   1.433872 A    
C52   C116  1.485456 S    
C44   H72   1.081537 S    
N7    O65   1.296330 A    
O30   Ba2   2.781742 S    
C73   C77   1.415805 A    
C15   C19   1.529463 S    
C21   C25   1.536943 S    
C9    H17   1.111536 S    
C44   C48   1.426513 A    
C23   C27   1.549568 S    
C23   C107  1.506952 S    
O15   P16   1.546846 D    
C18   H34   1.105540 S    
C9    N21   1.459271 S    
C62   H66   1.083659 S    
C50   C114  1.485452 S    
C8    C12   1.550523 S    
C12   H60   1.110486 S    
P7    Ba3   3.457189 S    
N25   O110  1.301446 A    
P1    Ba1   3.454584 S    
P1    O1    1.567411 D    
C64   C68   1.401271 A    
C27   H47   1.108210 S    
P6    O38   1.753463 S    
P3    O3    1.567411 D    
C28   H48   1.100325 S    
H1    C29   1.107374 S    
P4    O20   1.755641 S    
C26   H42   1.108850 S    
C114  O82   1.218443 D    
C90   C102  1.395074 A    
C34   C38   1.398234 A    
N22   O104  1.300759 A    
O41   C5    1.408152 S    
O22   P13   1.757100 S    
P2    C38   1.902560 S    
C25   N1    1.459171 S    
C68   C72   1.417844 A    
Ba4   O47   3.011155 S    
C43   H71   1.082364 S    
C2    H54   1.108415 S    
C116  H92   1.085140 S    
P16   C55   1.899261 S    
C89   C93   1.414459 A    
O16   P15   1.546659 D    
C35   N15   1.404188 S    
C81   C97   1.412149 A    
C6    C10   1.550605 S    
O12   Ba4   2.783089 S    
N17   O94   1.294060 A    
C57   C63   1.409376 A    
N9    O74   1.301866 A    
O37   C14   1.406494 S    
O24   C32   1.411427 S    
C9    H57   1.110091 S    
N11   O77   1.300802 A    
P10   O30   1.772621 S    
C8    H16   1.113989 S    
O12   P15   1.766012 S    
P1    O5    1.574002 S    
P12   O36   1.540021 D    
C91   C103  1.395471 A    
C111  H87   1.076856 S    
C10   H18   1.110848 S    
P9    C86   1.849333 S    
C1    H5    1.108577 S    
C3    H7    1.097176 S    
N15   O89   1.291854 A    
C12   N24   1.459175 S    
P6    O26   1.567095 D    
O23   P16   1.757924 S    
P11   O35   1.540416 D    
N27   O114  1.301432 A    
O24   P15   1.757849 S    
P8    O40   1.753564 S    
O7    Ba4   2.825363 S    
C28   N4    1.455364 S    
C22   C106  1.509802 S    
C20   H36   1.105571 S    
C24   C108  1.506826 S    
C33   C37   1.401147 A    
C86   C102  1.391851 A    
C81   H73   1.080841 S    
C51   C115  1.485224 S    
C4    H56   1.108240 S    
Ba1   Ba2   4.703879 S    
N12   O79   1.301588 A    
C60   C80   1.427446 A    
P4    Ba4   3.455484 S    
N28   O116  1.301224 A    
C24   C28   1.526327 S    
C34   C54   1.404528 A    
H4    C32   1.107547 S    
C19   H31   1.110736 S    
C1    H9    1.100070 S    
C66   C98   1.507532 S    
C96   H64   1.082545 S    
C18   H26   1.110510 S    
P9    O33   1.539518 D    
C7    C11   1.550808 S    
C113  H89   1.085126 S    
O27   Ba3   2.857889 S    
C5    N17   1.448848 S    
N26   O112  1.301228 A    
C95   C99   1.422719 A    
N13   O85   1.292087 A    
C64   H68   1.083411 S    
C91   C95   1.413828 A    
C115  H91   1.085156 S    
C84   C100  1.414753 A    
P5    Ba1   3.457189 S    
C40   C44   1.411395 A    
P14   C53   1.900187 S    
Ba3   O48   3.010829 S    
C6    H14   1.113980 S    
C71   C73   1.420762 A    
Ba1   O46   3.010829 S    
C114  H90   1.085100 S    
C45   C77   1.524125 S    
C29   H49   1.111951 S    
C83   C87   1.400838 A    
N19   O97   1.296082 A    
P1    O17   1.752383 S    
N7    O66   1.301692 A    
P3    O19   1.757718 S    
N27   O113  1.300599 A    
P4    O4    1.567327 D    
C36   N16   1.403627 S    
C87   C103  1.393668 A    
C7    N19   1.447382 S    
C110  H86   1.078122 S    
N6    O64   1.301652 A    
C69   C109  1.480372 S    
N8    O67   1.297027 A    
N16   O92   1.292107 A    
C94   C98   1.422793 A    
O40   C15   1.408620 S    
O22   C30   1.411241 S    
P13   C54   1.901669 S    
O3    Ba3   2.853698 S    
C21   H37   1.105057 S    
C89   C101  1.395236 A    
C84   C88   1.401758 A    
N1    O53   1.302832 A    
O10   P13   1.765854 S    
N21   O102  1.300566 A    
C83   C99   1.411113 A    
C33   C53   1.406584 A    
P2    O2    1.567327 D    
C28   H44   1.106826 S    
P7    O39   1.752622 S    
C90   C94   1.413898 A    
C51   C55   1.424297 A    
C63   H67   1.083593 S    
C92   C104  1.395445 A    
C57   C77   1.426651 A    
C4    H8    1.107888 S    
N14   O88   1.291919 A    
C105  O49   1.220286 D    
C47   C51   1.431830 A    
C82   C86   1.400092 A    
C75   C79   1.415010 A    
C13   C17   1.529527 S    
N11   O78   1.300663 A    
C72   C112  1.476246 S    
C35   C39   1.401264 A    
C36   C56   1.406015 A    
C61   C65   1.400728 A    
P1    C37   1.913120 S    
C106  H82   1.084469 S    
O44   C8    1.408433 S    
C3    C31   1.519262 S    
N15   O90   1.290404 A    
C95   H63   1.082514 S    
O31   Ba3   2.782505 S    
N10   O75   1.300630 A    
N5    O62   1.301708 A    
P10   O34   1.540252 D    
P11   O31   1.772067 S    
C107  H83   1.084989 S    
P2    O6    1.575375 S    
C92   C96   1.413240 A    
C75   N11   1.428501 S    
C16   C20   1.530147 S    
P7    O27   1.567011 D    
C25   H45   1.097930 S    
P8    O28   1.567095 D    
C41   C45   1.427113 A    
P8    O47   1.578941 S    
C2    H6    1.107833 S    
C42   H70   1.080200 S    
Ba3   O47   2.824880 S    
O21   C29   1.411298 S    
N25   O109  1.300593 A    
O43   C7    1.409248 S    
N20   O99   1.293347 A    
C65   C69   1.421259 A    
C109  O69   1.221138 D    
C69   C75   1.421952 A    
O11   Ba3   2.782315 S    
C58   C64   1.410225 A    
N24   O107  1.300845 A    
O9    Ba1   2.782315 S    
C59   C61   1.408794 A    
C62   C66   1.401303 A    
O11   P16   1.761313 S    
C11   H59   1.109719 S    
O23   C31   1.411242 S    
C74   C78   1.418659 A    
C88   C104  1.393007 A    
C27   N3    1.464774 S    
C22   C26   1.544621 S    
C102  H78   1.078909 S    
C14   C18   1.530222 S    
C17   H25   1.110416 S    
C24   H40   1.108184 S    
Ba4   O48   2.826833 S    
