data_mof_unit_13137.cif
_audit_creation_date              2012-12-10T20:36:36-0500
_audit_creation_method            fapswitch 2.2
_symmetry_space_group_name_H-M    P1
_symmetry_Int_Tables_number       1
_space_group_crystal_system       triclinic
_cell_length_a                    10.494575
_cell_length_b                    10.675061
_cell_length_c                    9.895679
_cell_angle_alpha                 89.802989
_cell_angle_beta                  89.835975
_cell_angle_gamma                 90.19135
_cell_volume                      1108.59786198

loop_
_atom_site_label
_atom_site_type_symbol
_atom_type_description
_atom_site_fract_x
_atom_site_fract_y
_atom_site_fract_z
_atom_type_partial_charge
C1    C     C_R   0.504077 0.260021 0.500142 0.872063
C2    C     C_3   0.958119 0.607167 0.444326 -0.180777
C3    C     C_3   0.040941 0.509268 0.371089 -0.135881
C4    C     C_3   0.122237 0.499804 0.498849 0.027279
C5    C     C_R   0.524872 0.063340 0.622518 0.142830
C6    C     C_R   0.524955 0.128628 0.500570 -0.104019
C7    C     C_R   0.549854 0.065350 0.379288 -0.235339
C8    C     C_R   0.550097 0.935755 0.379086 -0.235129
C9    C     C_R   0.525421 0.871327 0.500151 -0.103584
C10   C     C_R   0.525200 0.935526 0.622326 0.127732
C11   C     C_3   0.434277 0.927194 0.738598 -0.476496
C12   C     C_R   0.257362 0.499936 0.499841 0.862323
C13   C     C_3   0.433580 0.069072 0.738468 -0.504425
C14   C     C_R   0.455516 0.398680 0.072612 0.168985
C15   C     C_R   0.556577 0.593891 0.071245 -0.127720
C16   C     C_R   0.557468 0.593387 0.927479 -0.143228
C17   C     C_R   0.449935 0.401020 0.930591 0.190773
C18   C     C_3   0.314446 0.351849 0.936157 -0.079589
C19   C     C_3   0.327562 0.341856 0.088933 -0.499767
C20   C     C_R   0.504380 0.739924 0.499790 0.874073
C21   C     C_R   0.742586 0.499772 0.500020 0.853398
C22   C     C_3   0.041599 0.392053 0.554568 -0.204955
C23   C     C_3   0.957622 0.401562 0.427179 -0.166430
C24   C     C_3   0.877587 0.499492 0.500311 0.040874
C25   C     C_3   0.958865 0.489998 0.627912 -0.147768
C26   C     C_3   0.042102 0.597740 0.571809 -0.179872
H1    H     H_    0.918374 0.321897 0.368469 0.131651
H2    H     H_    0.479284 0.886356 0.830191 0.197678
H3    H     H_    0.339962 0.109382 0.709343 0.194030
H4    H     H_    0.478009 0.110110 0.830131 0.196834
H5    H     H_    0.600216 0.671029 0.124725 0.138161
H6    H     H_    0.602348 0.669777 0.873073 0.144469
H7    H     H_    0.302818 0.258825 0.888104 0.158295
H8    H     H_    0.261931 0.401964 0.148351 0.226070
H9    H     H_    0.333576 0.243535 0.125699 0.172312
H10   H     H_    0.080268 0.304420 0.598903 0.126746
H11   H     H_    0.921655 0.482044 0.732760 0.145803
H12   H     H_    0.081389 0.677294 0.630673 0.131301
H13   H     H_    0.919156 0.694477 0.399561 0.128412
H14   H     H_    0.078045 0.517394 0.266239 0.134466
H15   H     H_    0.560033 0.114770 0.284034 0.168497
H16   H     H_    0.560406 0.887164 0.283766 0.163703
H17   H     H_    0.340985 0.885156 0.710344 0.200714
N1    N     N_R   0.499140 0.499140 0.142800 -0.098637
N2    N     N_R   0.499140 0.499180 0.857150 -0.101226
O1    O     O_R   0.500020 0.316790 0.614690 -0.617580
O2    O     O_R   0.500000 0.316760 0.385350 -0.622664
O3    O     O_R   0.313960 0.499990 0.614650 -0.619034
O4    O     O_R   0.313940 0.499950 0.385310 -0.626297
O5    O     O_R   0.500000 0.683240 0.614650 -0.620635
O6    O     O_R   0.499980 0.683210 0.385310 -0.626190
O7    O     O_R   0.686060 0.500050 0.614690 -0.626453
O8    O     O_R   0.686040 0.500010 0.385350 -0.622073
Zn1   Zn    Zn3+2 0.500010 0.500020 0.653130 0.937868
Zn2   Zn    Zn3+2 0.499990 0.499980 0.346870 0.936058
C27   C     C_3   0.210252 0.445385 0.896431 -0.809735
H18   H     H_    0.180060 0.427403 0.791853 0.255684
H19   H     H_    0.124088 0.431112 0.960204 0.217089
H20   H     H_    0.242803 0.543999 0.907138 0.249332

loop_
_geom_bond_atom_site_label_1
_geom_bond_atom_site_label_2
_ccdc_geom_bond_type
C16   N2    A    
C15   N1    A    
C4    C26   S    
C23   C24   S    
C15   H5    S    
C6    C7    A    
C23   H1    S    
C2    C3    S    
C16   H6    S    
C4    C22   S    
C9    C10   A    
C2    H13   S    
C9    C20   S    
C3    C23   S    
C14   C17   A    
C27   H20   S    
C18   C27   S    
C12   O3    A    
O1    Zn1   S    
C7    H15   S    
C12   O4    A    
O2    Zn2   S    
C7    C8    A    
C2    C26   S    
C19   H9    S    
C24   C25   S    
O3    Zn1   S    
C11   C13   S    
N1    Zn2   S    
O5    Zn1   S    
C11   H2    S    
C21   O8    A    
C13   H3    S    
O7    Zn1   S    
N2    Zn1   S    
C17   C18   S    
C20   O6    A    
O6    Zn2   S    
O8    Zn2   S    
C2    C24   S    
C5    C6    A    
C18   H7    S    
C1    O1    A    
C4    C12   S    
C10   C11   S    
C17   N2    A    
C8    H16   S    
C15   C16   A    
C13   H4    S    
C5    C10   A    
C22   H10   S    
C27   H18   S    
C14   N1    A    
C18   C19   S    
C21   C24   S    
C22   C23   S    
C26   H12   S    
C20   O5    A    
C11   H17   S    
C3    H14   S    
C25   H11   S    
C25   C26   S    
O4    Zn2   S    
C5    C13   S    
C14   C19   S    
C22   C25   S    
C21   O7    A    
C1    O2    A    
C3    C4    S    
C1    C6    S    
C27   H19   S    
C8    C9    A    
C19   H8    S    
