data_mof_unit_42202.cif
_audit_creation_date              2012-12-11T14:06:46-0500
_audit_creation_method            fapswitch 2.2
_symmetry_space_group_name_H-M    P1
_symmetry_Int_Tables_number       1
_space_group_crystal_system       triclinic
_cell_length_a                    6.907385
_cell_length_b                    17.367581
_cell_length_c                    24.119614
_cell_angle_alpha                 104.351011
_cell_angle_beta                  90.369455
_cell_angle_gamma                 90.087155
_cell_volume                      2803.13591556

loop_
_atom_site_label
_atom_site_type_symbol
_atom_type_description
_atom_site_fract_x
_atom_site_fract_y
_atom_site_fract_z
_atom_type_partial_charge
O1    O     O_R   0.494290 0.391990 0.999150 -0.560896
O2    O     O_R   0.827170 0.534410 0.082350 -0.538481
O3    O     O_R   0.994360 0.608010 0.000850 -0.518432
C1    C     C_R   0.658351 0.547719 0.106263 0.735198
O4    O     O_R   0.824210 0.388010 0.004470 -0.520189
O5    O     O_R   0.991370 0.460560 0.922410 -0.520829
C2    C     C_R   0.654567 0.355565 0.002884 0.747799
O6    O     O_R   0.497270 0.539440 0.077590 -0.544470
O7    O     O_3   0.659770 0.523970 0.973170 -0.336109
V1    V     V_3+5 0.935840 0.495550 0.004980 1.614642
O8    O     O_R   0.320910 0.465590 0.917650 -0.516862
C3    C     C_R   0.151341 0.449541 0.893797 0.807481
O9    O     O_R   0.323870 0.611990 0.995530 -0.525463
C4    C     C_R   0.153994 0.644642 0.997630 0.782880
V2    V     V_3+5 0.435470 0.504450 0.995020 1.614502
O10   O     O_3   0.161670 0.476030 0.026830 -0.384299
C5    C     C_2   0.139764 0.726874 0.991274 0.026617
C6    C     C_2   0.977234 0.771867 0.007621 0.146114
C7    C     C_R   0.113119 0.245358 0.626165 0.757784
N1    N     N_R   0.114773 0.326012 0.647730 -0.544893
C8    C     C_R   0.119601 0.375835 0.611919 0.636027
C9    C     C_R   0.133252 0.344818 0.552039 -0.162447
C10   C     C_R   0.101394 0.262491 0.529172 -0.091216
C11   C     C_R   0.084123 0.211812 0.566757 -0.144086
C12   C     C_R   0.173186 0.394000 0.514621 0.340693
C13   C     C_R   0.162037 0.363482 0.455219 0.314258
C14   C     C_R   0.113687 0.282202 0.431583 -0.170361
C15   C     C_R   0.085527 0.231369 0.468997 -0.093617
C16   C     C_R   0.041089 0.149635 0.446311 -0.134124
C17   C     C_R   0.022653 0.098929 0.484310 0.281734
C18   C     C_R   0.039700 0.130198 0.544015 0.321349
C19   C     C_R   0.094664 0.249267 0.371857 0.679430
N2    N     N_R   0.043946 0.171452 0.350939 -0.582446
C20   C     C_R   0.013715 0.122178 0.386240 0.665475
O11   O     O_2   0.143046 0.198630 0.662381 -0.429559
O12   O     O_2   0.106318 0.454938 0.634260 -0.473169
O13   O     O_2   0.123891 0.293951 0.334337 -0.438866
O14   O     O_2   0.954035 0.047379 0.362520 -0.445517
C21   C     C_R   0.164517 0.089562 0.258290 0.451083
C22   C     C_R   0.137283 0.055348 0.199723 0.331352
C23   C     C_R   0.977295 0.077738 0.169799 -0.391964
C24   C     C_R   0.836780 0.129881 0.201319 0.256194
C25   C     C_R   0.854801 0.158721 0.260975 0.399740
C26   C     C_R   0.021470 0.140200 0.289720 0.014938
C27   C     C_R   0.272760 0.406411 0.734792 -0.094989
H1    H     H_    0.386765 0.420117 0.708093 0.196034
C28   C     C_R   0.282376 0.437888 0.793963 0.241809
C29   C     C_R   0.138721 0.418318 0.830112 -0.236133
C30   C     C_R   0.981575 0.368651 0.804118 0.197066
C31   C     C_R   0.967437 0.342263 0.743938 0.311082
C32   C     C_R   0.117366 0.358680 0.709200 0.191839
C33   C     C_R   0.506922 0.879286 0.612027 0.669222
N3    N     N_R   0.527959 0.830333 0.648214 -0.592681
C34   C     C_R   0.569059 0.751386 0.627899 0.672294
C35   C     C_R   0.592262 0.717698 0.568414 -0.127592
C36   C     C_R   0.571121 0.767405 0.530311 -0.121547
C37   C     C_R   0.529645 0.849574 0.552032 -0.090383
C38   C     C_R   0.638805 0.636298 0.546552 0.416609
C39   C     C_R   0.667887 0.605471 0.487125 0.305359
C40   C     C_R   0.636061 0.653789 0.448290 -0.166387
C41   C     C_R   0.590853 0.734956 0.470335 -0.060289
C42   C     C_R   0.564892 0.783957 0.432246 -0.072463
C43   C     C_R   0.527354 0.864959 0.454035 -0.080972
C44   C     C_R   0.512839 0.898336 0.512762 0.354819
C45   C     C_R   0.644454 0.623283 0.387841 0.739053
N4    N     N_R   0.618477 0.672224 0.351690 -0.534016
C46   C     C_R   0.578457 0.751163 0.372808 0.727852
O15   O     O_2   0.462760 0.956118 0.634531 -0.425907
O16   O     O_2   0.588364 0.705974 0.665577 -0.440948
O17   O     O_2   0.674396 0.545165 0.365043 -0.451054
O18   O     O_2   0.549962 0.797791 0.336307 -0.462386
H2    H     H_    0.511419 0.903555 0.425232 0.216527
C47   C     C_R   0.789112 0.655318 0.259099 0.265574
C48   C     C_R   0.797890 0.623726 0.199829 -0.240758
H3    H     H_    0.921014 0.638409 0.176756 0.189078
C49   C     C_R   0.648772 0.575204 0.170045 -0.221965
C50   C     C_R   0.490020 0.556000 0.201662 0.232703
C51   C     C_R   0.478498 0.590127 0.261542 0.422604
C52   C     C_R   0.628676 0.639477 0.290268 0.207318
C53   C     C_R   0.335556 0.850591 0.736290 -0.056570
H4    H     H_    0.217760 0.818741 0.710610 0.176756
C54   C     C_R   0.314875 0.875496 0.795959 0.374100
C55   C     C_R   0.468584 0.917534 0.830175 -0.246508
C56   C     C_R   0.641016 0.930091 0.802601 -0.172592
H5    H     H_    0.761090 0.961535 0.827410 0.187495
C57   C     C_R   0.663824 0.902723 0.743241 0.459621
C58   C     C_R   0.508597 0.862554 0.709403 0.158957
C59   C     C_2   0.646006 0.272734 0.007963 0.104604
C60   C     C_2   0.478294 0.229850 0.997904 -0.342135
H6    H     H_    0.347598 0.257561 0.986801 0.150952
O19   O     O_R   0.618210 0.960470 0.922400 -0.540863
O20   O     O_R   0.291310 0.111960 0.995450 -0.531701
O21   O     O_R   0.124210 0.039530 0.077580 -0.529207
C61   C     C_R   0.461931 0.145351 0.999313 0.845333
O22   O     O_R   0.288310 0.965490 0.917650 -0.539693
O23   O     O_R   0.121180 0.892010 0.999220 -0.537951
C62   C     C_R   0.456597 0.948564 0.893870 0.746560
O24   O     O_R   0.621230 0.107990 0.000760 -0.513541
O25   O     O_3   0.455770 0.976060 0.026840 -0.358403
V3    V     V_3+5 0.179680 0.004440 0.995020 1.583953
O26   O     O_R   0.791670 0.888040 0.004570 -0.539988
C63   C     C_R   0.961774 0.855027 0.001919 0.678574
O27   O     O_R   0.794680 0.034510 0.082370 -0.515679
C64   C     C_R   0.964092 0.049602 0.106129 0.816624
V4    V     V_3+5 0.680070 0.995560 0.005010 1.609708
O28   O     O_3   0.953840 0.023940 0.973160 -0.363936
Br1   Br    Br    0.358035 0.760186 0.952737 -0.515382
O29   O     O_3   0.707167 0.205731 0.289545 -0.569248
H7    H     H_    0.724520 0.214312 0.331362 0.320204
Br2   Br    Br    0.492818 0.510541 0.821002 -0.396950
Br3   Br    Br    0.790139 0.329964 0.848949 -0.431722
Br4   Br    Br    0.738413 0.286650 0.708567 -0.373466
O30   O     O_3   0.661894 0.588504 0.584361 -0.573283
H8    H     H_    0.684202 0.532600 0.563517 0.350381
O31   O     O_3   0.731510 0.528323 0.468454 -0.597449
H9    H     H_    0.850918 0.530324 0.446288 0.357782
Br5   Br    Br    0.477876 0.011818 0.533755 -0.352865
Br6   Br    Br    0.999972 0.720287 0.296406 -0.399709
O32   O     O_3   0.826874 0.740104 0.032797 -0.629501
H10   H     H_    0.727753 0.781309 0.046860 0.316372
O33   O     O_3   0.347264 0.503092 0.175973 -0.626572
H11   H     H_    0.405186 0.462911 0.143984 0.308341
O34   O     O_3   0.324847 0.575104 0.293868 -0.580697
H12   H     H_    0.226418 0.542052 0.268790 0.367767
O35   O     O_3   0.145192 0.855167 0.818647 -0.612795
H13   H     H_    0.174451 0.845393 0.856507 0.317507
O36   O     O_3   0.840279 0.915992 0.720552 -0.598584
H14   H     H_    0.841019 0.891173 0.678953 0.317354
Br7   Br    Br    0.885642 0.233909 0.033219 -0.477619
O37   O     O_3   0.232208 0.471912 0.534731 -0.581008
H15   H     H_    0.331588 0.473140 0.564773 0.338177
Br8   Br    Br    0.226475 0.437931 0.410074 -0.289976
Br9   Br    Br    0.985520 0.984695 0.457289 -0.352860
Br10  Br    Br    0.979358 0.060203 0.593264 -0.239848
O38   O     O_3   0.331686 0.069972 0.283500 -0.562014
H16   H     H_    0.347016 0.104818 0.322487 0.320533
O39   O     O_3   0.271680 0.999789 0.173186 -0.573890
H17   H     H_    0.204733 0.959315 0.142924 0.288387
Br11  Br    Br    0.618252 0.166949 0.164909 -0.365204

loop_
_geom_bond_atom_site_label_1
_geom_bond_atom_site_label_2
_ccdc_geom_bond_type
C35   C36   A    
O26   C63   A    
O23   C63   A    
C23   C24   A    
O19   V4    S    
C7    N1    A    
C1    O6    A    
O34   H12   S    
C8    O12   S    
C21   O38   S    
C50   C51   A    
C36   C37   A    
N4    C52   S    
C13   C14   A    
C16   C17   A    
O24   V4    S    
C48   C49   A    
C42   C46   A    
C15   C16   A    
C56   C57   A    
N1    C32   S    
C5    Br1   S    
C6    C63   S    
C17   C18   A    
C27   C32   A    
C45   O17   S    
O29   H7    S    
C47   C48   A    
C60   C61   S    
C2    C59   S    
O1    C2    A    
O8    V2    S    
C28   C29   A    
C9    C12   A    
C38   O30   S    
C10   C11   A    
O1    V2    S    
O7    V1    S    
C33   O15   S    
C3    C29   S    
C30   Br3   S    
N4    C46   A    
C24   Br11  S    
C39   C40   A    
C20   O14   S    
O9    C4    A    
C4    C5    S    
C59   Br7   S    
N3    C58   S    
C18   Br10  S    
C12   O37   S    
O21   C64   A    
C31   Br4   S    
N2    C20   A    
C49   C50   A    
C27   C28   A    
O26   V4    S    
O25   V4    S    
C48   H3    S    
O38   H16   S    
C56   H5    S    
C53   C54   A    
C21   C22   A    
O4    C2    A    
C57   C58   A    
C31   C32   A    
C12   C13   A    
C27   H1    S    
C16   C20   A    
C54   C55   A    
O19   C62   A    
C44   Br5   S    
C40   C41   A    
O2    C1    A    
C25   C26   A    
C54   O35   S    
C42   C43   A    
C55   C56   A    
O8    C3    A    
C17   Br9   S    
C22   O39   S    
O20   C61   A    
C5    C6    D    
C47   C52   A    
O27   V4    S    
C19   O13   S    
N1    C8    A    
C51   O34   S    
O21   V3    S    
O33   H11   S    
O3    C4    A    
C29   C30   A    
C40   C45   A    
C45   N4    A    
O6    V2    S    
O9    V2    S    
O35   H13   S    
C10   C15   A    
C24   C25   A    
O36   H14   S    
O2    V1    S    
C14   C15   A    
C13   Br8   S    
C33   N3    A    
O20   V3    S    
C37   C44   A    
O30   H8    S    
O39   H17   S    
C34   C35   A    
C22   C23   A    
C47   Br6   S    
C57   O36   S    
O22   V3    S    
N2    C26   S    
C9    C10   A    
C53   H4    S    
O5    V1    S    
O32   H10   S    
O22   C62   A    
N3    C34   A    
C21   C26   A    
C53   C58   A    
C28   Br2   S    
V4    O28   S    
V3    O28   S    
C23   C64   S    
C19   N2    A    
O37   H15   S    
C38   C39   A    
C11   C18   A    
O4    V1    S    
O3    V1    S    
C7    O11   S    
O25   V3    S    
O5    C3    A    
C51   C52   A    
O31   H9    S    
C34   O16   S    
O23   V3    S    
C43   H2    S    
C7    C11   A    
C46   O18   S    
C25   O29   S    
O7    V2    S    
C41   C42   A    
C1    C49   S    
C50   O33   S    
C33   C37   A    
C14   C19   A    
C43   C44   A    
C59   C60   D    
C39   O31   S    
C30   C31   A    
C55   C62   S    
C35   C38   A    
O27   C64   A    
C61   O24   A    
C36   C41   A    
V1    O10   S    
C60   H6    S    
C8    C9    A    
C6    O32   S    
V2    O10   S    
