data_mof_unit_21977.cif
_audit_creation_date              2013-03-05T16:18:54-0500
_audit_creation_method            fapswitch 2.2
_symmetry_space_group_name_H-M    P1
_symmetry_Int_Tables_number       1
_space_group_crystal_system       triclinic
_cell_length_a                    9.679006
_cell_length_b                    10.650163
_cell_length_c                    17.01107
_cell_angle_alpha                 89.780726
_cell_angle_beta                  85.386134
_cell_angle_gamma                 90.064992
_cell_volume                      1747.85486662

loop_
_atom_site_label
_atom_site_type_symbol
_atom_site_description
_atom_site_fract_x
_atom_site_fract_y
_atom_site_fract_z
_atom_type_partial_charge
O1    O     O_R   0.383960 0.685090 0.500020 -0.604900
O2    O     O_R   0.616040 0.685320 0.499960 -0.647923
C1    C     C_R   0.499561 0.742484 0.500682 0.932373
O3    O     O_R   0.370240 0.499890 0.615830 -0.603234
O4    O     O_R   0.602330 0.500120 0.615770 -0.630055
C2    C     C_R   0.481102 0.498452 0.652402 0.950943
Zn1   Zn    Zn3+2 0.345040 0.499850 0.500040 0.944292
Zn2   Zn    Zn3+2 0.654960 0.500150 0.499960 0.909451
O5    O     O_R   0.383960 0.314680 0.500040 -0.644908
O6    O     O_R   0.616040 0.314910 0.499980 -0.640155
O7    O     O_R   0.397670 0.499880 0.384230 -0.621616
O8    O     O_R   0.629760 0.500110 0.384170 -0.644532
C3    C     C_R   0.499638 0.257570 0.500944 0.846254
C4    C     C_R   0.518908 0.504414 0.346905 0.917505
C5    C     C_R   0.469934 0.482676 0.736791 -0.156387
C6    C     C_R   0.562145 0.398749 0.768801 -0.238410
C7    C     C_R   0.558143 0.381323 0.849469 -0.091778
C8    C     C_R   0.462668 0.448547 0.897994 0.145326
C9    C     C_R   0.363254 0.525075 0.866548 -0.109516
C10   C     C_R   0.367029 0.544860 0.785544 0.284638
C11   C     C_R   0.391073 0.525761 0.146729 0.324847
C12   C     C_R   0.401340 0.501276 0.225787 -0.285501
C13   C     C_R   0.646028 0.564621 0.215011 0.150749
C14   C     C_R   0.635109 0.585115 0.134284 -0.152075
C15   C     C_R   0.510251 0.564756 0.100689 -0.053193
C16   C     C_2   0.481705 0.455442 0.981055 -0.300321
C17   C     C_2   0.512339 0.564572 0.015247 0.324125
C18   C     C_R   0.526025 0.520551 0.261044 -0.114345
H1    H     H_    0.639021 0.348374 0.731307 0.157695
H2    H     H_    0.309054 0.469032 0.260264 0.187820
H3    H     H_    0.290460 0.577242 0.905515 0.217855
H4    H     H_    0.466664 0.369838 0.015822 0.158339
H5    H     H_    0.634640 0.321907 0.874180 0.157538
H6    H     H_    0.724058 0.613027 0.095643 0.167079
C19   C     C_3   0.348665 0.929345 0.517793 -0.347335
H7    H     H_    0.312170 0.905755 0.579876 0.210386
H8    H     H_    0.271866 0.886703 0.480871 0.213330
C20   C     C_3   0.348032 0.070931 0.507009 -0.401697
H9    H     H_    0.292984 0.095757 0.454149 0.196834
H10   H     H_    0.288990 0.113269 0.559252 0.176560
H11   H     H_    0.550585 0.887313 0.623124 0.226417
H12   H     H_    0.520397 0.100101 0.625193 0.193759
C21   C     C_3   0.587139 0.928166 0.564748 -0.461166
C22   C     C_3   0.563163 0.926730 0.417254 0.159895
C23   C     C_3   0.498697 0.878688 0.499309 0.022983
H13   H     H_    0.671162 0.889678 0.408928 0.066003
C24   C     C_3   0.499469 0.121435 0.497923 0.106351
C25   C     C_3   0.576925 0.071704 0.568434 -0.449807
C26   C     C_3   0.575918 0.073128 0.418852 -0.152266
H14   H     H_    0.687852 0.095309 0.422852 0.132995
H15   H     H_    0.697647 0.900579 0.552261 0.179037
H16   H     H_    0.683370 0.111769 0.567446 0.180623
C27   C     C_3   0.921290 0.623008 0.474324 -0.240926
H17   H     H_    0.877361 0.699505 0.512961 0.155551
H18   H     H_    0.890835 0.644025 0.414191 0.147502
C28   C     C_3   0.083895 0.625066 0.474345 -0.232994
H19   H     H_    0.131379 0.647977 0.414277 0.170454
H20   H     H_    0.114761 0.701509 0.513701 0.160001
H21   H     H_    0.864302 0.550086 0.623135 0.180075
H22   H     H_    0.102692 0.550491 0.622935 0.203865
C29   C     C_3   0.907884 0.477068 0.581662 -0.221437
C30   C     C_3   0.926578 0.402131 0.449201 -0.233858
N1    N     N_3   0.861190 0.500250 0.501720 -0.041243
H23   H     H_    0.887839 0.307816 0.468797 0.145350
H24   H     H_    0.895293 0.415098 0.388421 0.147967
N2    N     N_3   0.138550 0.503270 0.501080 -0.048663
C31   C     C_3   0.070708 0.477960 0.581155 -0.215823
C32   C     C_3   0.089247 0.404862 0.448089 -0.235098
H25   H     H_    0.134610 0.421183 0.386750 0.153346
H26   H     H_    0.126734 0.311210 0.466014 0.148872
H27   H     H_    0.866511 0.385401 0.604718 0.144036
H28   H     H_    0.107009 0.386250 0.603257 0.146656
N3    N     N_R   0.487707 0.878334 0.351681 0.207934
O9    O     O_R   0.552651 0.809178 0.297907 -0.438578
O10   O     O_R   0.356702 0.900909 0.346448 -0.431432
C33   C     C_3   0.535799 0.141965 0.342755 -0.374766
C34   C     C_3   0.643653 0.121027 0.272541 -0.344240
C35   C     C_3   0.593770 0.173460 0.196162 -0.782852
H29   H     H_    0.496710 0.125629 0.182128 0.288026
H30   H     H_    0.574746 0.275839 0.201526 0.241883
H31   H     H_    0.674215 0.157578 0.146914 0.260622
H32   H     H_    0.742123 0.168746 0.284344 0.205336
H33   H     H_    0.666492 0.019838 0.264181 0.273881
H34   H     H_    0.430705 0.115079 0.327612 0.258077
H35   H     H_    0.531718 0.244627 0.352465 0.179494
C36   C     C_3   0.782017 0.589539 0.251887 -0.411476
C37   C     C_3   0.900236 0.648075 0.197918 -0.339423
C38   C     C_3   0.025970 0.676183 0.243820 -0.753004
H36   H     H_    0.998850 0.746398 0.290627 0.231774
H37   H     H_    0.063319 0.588973 0.271154 0.249769
H38   H     H_    0.111006 0.715277 0.203273 0.297674
H39   H     H_    0.932605 0.582023 0.149491 0.275636
H40   H     H_    0.864832 0.737539 0.172330 0.246190
H41   H     H_    0.760470 0.654912 0.301995 0.243157
H42   H     H_    0.819676 0.498836 0.274197 0.201498
N4    N     N_R   0.551170 0.677321 0.971476 0.225949
O11   O     O_R   0.535352 0.786119 0.005540 -0.340489
O12   O     O_R   0.620223 0.671346 0.902709 -0.363601
N5    N     N_R   0.259838 0.509581 0.113760 0.189797
O13   O     O_R   0.173156 0.423890 0.141741 -0.423406
O14   O     O_R   0.220510 0.588352 0.061359 -0.394709
N6    N     N_R   0.273762 0.634497 0.755011 0.200944
O15   O     O_R   0.319025 0.716095 0.701872 -0.426827
O16   O     O_R   0.149062 0.647369 0.788690 -0.377350

loop_
_geom_bond_atom_site_label_1
_geom_bond_atom_site_label_2
_geom_bond_distance
_ccdc_geom_bond_type
C22   C26   1.564422 S    
N2    C32   1.487964 S    
C37   C38   1.527819 S    
C16   H4    1.088062 S    
N3    O10   1.300862 A    
N3    O9    1.299257 A    
C19   H7    1.113987 S    
C8    C16   1.441682 S    
C9    H3    1.083076 S    
C33   H34   1.106849 S    
C24   C26   1.570823 S    
C34   C35   1.526140 S    
Zn1   O7    1.994779 S    
C16   C17   1.345062 D    
C19   H8    1.108971 S    
C31   H28   1.112667 S    
O4    C2    1.283617 A    
C11   N5    1.439635 S    
O7    C4    1.289288 A    
C35   H30   1.108884 S    
C10   N6    1.438629 S    
C34   H33   1.107774 S    
C5    C6    1.402958 A    
C28   H19   1.112284 S    
C8    C9    1.399133 A    
C29   N1    1.486981 S    
O5    C3    1.275951 A    
C30   H23   1.112275 S    
C36   H41   1.109545 S    
C2    C5    1.440079 S    
C24   C25   1.556280 S    
H22   C31   1.112079 S    
C6    C7    1.381488 A    
C13   C36   1.526342 S    
N4    O12   1.301569 A    
C13   C14   1.402048 A    
C21   C25   1.533204 S    
C29   H27   1.112745 S    
N2    C31   1.487345 S    
C12   C18   1.405383 A    
C11   C12   1.380357 A    
H11   C21   1.113750 S    
C17   N4    1.443845 S    
C22   N3    1.475781 S    
C7    H5    1.083716 S    
O3    Zn1   2.004133 S    
C22   H13   1.116255 S    
C27   H18   1.109183 S    
C5    C10   1.411127 A    
H21   C29   1.112419 S    
C19   C20   1.518410 S    
C14   C15   1.394835 A    
O3    C2    1.282982 A    
C3    C24   1.450970 S    
C35   H29   1.111286 S    
C32   H25   1.111981 S    
C6    H1    1.084191 S    
C27   H17   1.111943 S    
C1    C23   1.450739 S    
C14   H6    1.080979 S    
O1    C1    1.275241 A    
C30   N1    1.486064 S    
C29   C31   1.575321 S    
N5    O13   1.301548 A    
C38   H38   1.110057 S    
Zn2   O8    2.004135 S    
N4    O11   1.301189 A    
C7    C8    1.389682 A    
C26   C33   1.561484 S    
H12   C25   1.113852 S    
C13   C18   1.425566 A    
C33   C34   1.538848 S    
N6    O16   1.301356 A    
C21   C23   1.551257 S    
C20   C24   1.556527 S    
Zn2   O6    2.008054 S    
N5    O14   1.301107 A    
C38   H37   1.110882 S    
C19   C23   1.558312 S    
C22   C23   1.566271 S    
C36   C37   1.538108 S    
C27   C28   1.574009 S    
Zn1   O5    2.008166 S    
C11   C15   1.402707 A    
C12   H2    1.083171 S    
C30   H24   1.108665 S    
O1    Zn1   2.008055 S    
O2    Zn2   2.008168 S    
O8    C4    1.290139 A    
O6    C3    1.279819 A    
O4    Zn2   1.994779 S    
C15   C17   1.451981 S    
C30   C32   1.573297 S    
C9    C10   1.390754 A    
O2    C1    1.281096 A    
Zn1   N2    1.997647 S    
C20   H10   1.114287 S    
C27   N1    1.488241 S    
C35   H31   1.110471 S    
C21   H15   1.113615 S    
C20   H9    1.112620 S    
C34   H32   1.112410 S    
C28   N2    1.484930 S    
C37   H40   1.111885 S    
C28   H20   1.111788 S    
N6    O15   1.301424 A    
C36   H42   1.109197 S    
Zn2   N1    1.998731 S    
C25   H16   1.113555 S    
C38   H36   1.110611 S    
C32   H26   1.111649 S    
C26   H14   1.116062 S    
C4    C18   1.466100 S    
C37   H39   1.111333 S    
C33   H35   1.106678 S    
