data_mof_unit_14839.cif
_audit_creation_date              2012-12-10T16:50:07-0500
_audit_creation_method            fapswitch 2.2
_symmetry_space_group_name_H-M    P1
_symmetry_Int_Tables_number       1
_space_group_crystal_system       triclinic
_cell_length_a                    23.368206
_cell_length_b                    8.706044
_cell_length_c                    7.66088
_cell_angle_alpha                 103.75471
_cell_angle_beta                  97.21939
_cell_angle_gamma                 97.437577
_cell_volume                      1481.196704

loop_
_atom_site_label
_atom_site_type_symbol
_atom_type_description
_atom_site_fract_x
_atom_site_fract_y
_atom_site_fract_z
_atom_type_partial_charge
C1    C     C_R   0.497974 0.199688 0.452417 0.850903
C2    C     C_R   0.502017 0.800310 0.547584 0.851934
C3    C     C_R   0.231131 0.498845 0.347544 0.260362
C4    C     C_R   0.755675 0.514325 0.341773 0.223086
C5    C     C_R   0.292069 0.524326 0.359968 -0.276911
C6    C     C_R   0.695771 0.506800 0.344419 -0.271913
C7    C     C_R   0.326889 0.464644 0.481960 -0.135682
C8    C     C_R   0.673494 0.522434 0.508069 -0.140043
C9    C     C_R   0.300375 0.372632 0.586003 -0.213825
C10   C     C_R   0.712783 0.556480 0.672028 -0.238251
C11   C     C_R   0.239652 0.344033 0.574766 0.392241
C12   C     C_R   0.773215 0.567169 0.672773 0.418224
C13   C     C_R   0.204422 0.408722 0.455250 0.232966
C14   C     C_R   0.794933 0.543115 0.505521 0.229607
C15   C     C_2   0.497313 0.030566 0.427431 -0.354107
C16   C     C_2   0.502670 0.969434 0.572573 -0.355746
C17   C     C_R   0.390796 0.491739 0.495460 0.800920
C18   C     C_R   0.609444 0.506839 0.503564 0.803209
C19   C     C_R   0.898787 0.656522 0.560116 0.521903
C20   C     C_R   0.100385 0.293853 0.372493 0.521180
C21   C     C_R   0.866837 0.376890 0.425695 0.593572
C22   C     C_R   0.131727 0.552416 0.575268 0.575582
C23   C     C_R   0.924002 0.352446 0.400976 -0.112128
C24   C     C_R   0.074487 0.586217 0.557489 -0.082241
C25   C     C_R   0.970133 0.483800 0.473849 -0.093479
C26   C     C_R   0.028442 0.458628 0.472459 -0.099082
C27   C     C_R   0.957965 0.640065 0.548762 -0.113362
C28   C     C_R   0.041181 0.306047 0.387417 -0.112567
C29   C     C_R   0.936338 0.199708 0.312166 0.203512
C30   C     C_R   0.063147 0.745106 0.611152 0.205058
C31   C     C_R   0.994804 0.174883 0.312051 0.238748
C32   C     C_R   0.004710 0.774071 0.607514 0.219248
Cu1   Cu    Cu3+1 0.506340 0.517380 0.684380 0.963343
Cu2   Cu    Cu3+1 0.493660 0.482620 0.315620 0.963065
H1    H     H_    0.312297 0.595490 0.278824 0.168135
H2    H     H_    0.666579 0.485753 0.216741 0.179268
H3    H     H_    0.327030 0.323205 0.677591 0.162073
H4    H     H_    0.696793 0.572207 0.800231 0.164004
H5    H     H_    0.492506 0.956257 0.288946 0.196241
H6    H     H_    0.507477 0.043745 0.711060 0.195187
N1    N     N_R   0.855260 0.526481 0.497176 -0.446623
N2    N     N_R   0.144019 0.414770 0.470925 -0.447197
N3    N     N_2   0.484110 0.456420 0.038520 0.028952
N4    N     N_2   0.515890 0.543580 0.961480 0.030210
O1    O     O_R   0.504120 0.286130 0.619770 -0.594414
O2    O     O_R   0.495880 0.713870 0.380230 -0.594237
O3    O     O_R   0.493410 0.256770 0.308360 -0.574233
O4    O     O_R   0.506590 0.743230 0.691640 -0.571911
O5    O     O_R   0.423230 0.514630 0.655730 -0.595362
O6    O     O_R   0.576770 0.485370 0.344270 -0.602990
O7    O     O_R   0.412530 0.485280 0.344320 -0.585586
O8    O     O_R   0.587470 0.514720 0.655680 -0.589274
O9    O     O_2   0.884566 0.798823 0.639904 -0.553188
O10   O     O_2   0.114200 0.166767 0.256504 -0.582996
O11   O     O_2   0.822748 0.251676 0.386029 -0.570640
O12   O     O_2   0.175275 0.656390 0.694112 -0.566081
N5    N     N_2   0.890705 0.074864 0.205553 -0.407645
H7    H     H_    0.859756 0.111348 0.123001 0.281475
C33   C     C_3   0.867486 0.955490 0.293085 -0.486403
H8    H     H_    0.822750 0.897658 0.221855 0.218122
H9    H     H_    0.894909 0.860312 0.284631 0.216252
H10   H     H_    0.865160 0.010276 0.438034 0.256045
N6    N     N_2   0.109827 0.876338 0.644015 -0.426017
H11   H     H_    0.135350 0.907965 0.771075 0.298245
C34   C     C_3   0.140126 0.890806 0.493183 -0.557484
H12   H     H_    0.141830 0.013496 0.477186 0.251517
H13   H     H_    0.117580 0.805973 0.362751 0.220359
H14   H     H_    0.185806 0.869777 0.521243 0.258467
N7    N     N_2   0.006289 0.014046 0.263192 -0.434955
H15   H     H_    0.040879 0.984721 0.338224 0.284407
C35   C     C_3   0.988115 0.915889 0.078605 -0.535134
H16   H     H_    0.026939 0.878526 0.021440 0.217384
H17   H     H_    0.964713 0.980305 0.991028 0.278077
H18   H     H_    0.958838 0.805098 0.078834 0.217177
N8    N     N_2   0.991176 0.934369 0.645868 -0.398296
H19   H     H_    0.961948 0.956088 0.546587 0.287604
C36   C     C_3   0.031740 0.076771 0.749864 -0.652952
H20   H     H_    0.006589 0.172244 0.804125 0.222894
H21   H     H_    0.060036 0.122545 0.661375 0.224791
H22   H     H_    0.058894 0.054168 0.867262 0.260518
N9    N     N_2   0.196881 0.577861 0.241173 -0.442133
H23   H     H_    0.217280 0.690543 0.242040 0.257606
C37   C     C_3   0.173256 0.482976 0.058546 -0.621881
H24   H     H_    0.142171 0.546567 0.992822 0.233858
H25   H     H_    0.149340 0.364635 0.059860 0.258153
H26   H     H_    0.209287 0.465848 0.978164 0.266595
N10   N     N_2   0.777278 0.495578 0.174215 -0.413345
H27   H     H_    0.775173 0.595009 0.124664 0.285442
C38   C     C_3   0.753788 0.346810 0.037507 -0.588557
H28   H     H_    0.751990 0.243045 0.098516 0.255105
H29   H     H_    0.782431 0.327898 0.931946 0.249122
H30   H     H_    0.709181 0.351165 0.970992 0.197144
O13   O     O_3   0.217117 0.259143 0.688524 -0.752526
H31   H     H_    0.174586 0.260004 0.680030 0.320310
O14   O     O_3   0.809073 0.598423 0.838694 -0.751073
H32   H     H_    0.848732 0.577211 0.820775 0.337875
N11   N     N_2   0.447688 0.321500 0.925924 -0.315969
H33   H     H_    0.436970 0.322797 0.794196 0.285156
C39   C     C_3   0.394998 0.270019 0.991331 -0.562275
H34   H     H_    0.368268 0.165845 0.886927 0.180659
H35   H     H_    0.368449 0.367839 0.014627 0.225344
H36   H     H_    0.404621 0.228211 0.114971 0.253529
N12   N     N_2   0.551870 0.679092 0.074499 -0.306909
H37   H     H_    0.562605 0.677086 0.205950 0.290774
C40   C     C_3   0.604890 0.730242 0.011109 -0.593055
H38   H     H_    0.631287 0.834950 0.115599 0.180061
H39   H     H_    0.595809 0.770289 0.885945 0.256723
H40   H     H_    0.631315 0.632453 0.991572 0.201157

loop_
_geom_bond_atom_site_label_1
_geom_bond_atom_site_label_2
_ccdc_geom_bond_type
N10   H27   S    
N6    C34   S    
O13   H31   S    
Cu1   O1    S    
O14   H32   S    
N8    H19   S    
C17   O7    A    
C32   N8    S    
N9    H23   S    
C18   O8    A    
C4    N10   S    
C36   H20   S    
C2    O2    A    
Cu1   O8    S    
C40   H39   S    
Cu2   O7    S    
C23   C29   A    
C24   C26   A    
N5    C33   S    
Cu1   O5    S    
C15   C16   D    
N7    C35   S    
N9    C37   S    
C39   H34   S    
C34   H13   S    
C3    N9    S    
C12   O14   S    
C1    C15   S    
C38   H29   S    
C2    C16   S    
C3    C13   A    
C19   O9    S    
C33   H8    S    
C30   N6    S    
C13   N2    S    
N11   C39   S    
N4    N12   S    
N11   H33   S    
C36   H21   S    
C40   H40   S    
Cu2   O6    S    
C33   H9    S    
C20   O10   S    
C17   O5    A    
C21   O11   S    
C1    O3    A    
C22   O12   S    
C20   C28   A    
C7    C17   S    
C25   C26   A    
C8    C18   S    
N3    N4    D    
N8    C36   S    
C20   N2    A    
C37   H24   S    
C34   H14   S    
C37   H26   S    
C9    H3    S    
Cu1   Cu2   S    
N12   C40   S    
C38   H30   S    
C9    C11   A    
C15   H5    S    
C10   C12   A    
C16   H6    S    
C14   N1    S    
Cu2   O2    S    
C4    C6    A    
C37   H25   S    
C29   N5    S    
N10   C38   S    
C21   N1    A    
C19   C27   A    
C18   O6    A    
C5    C7    A    
C36   H22   S    
C7    C9    A    
C33   H10   S    
C39   H35   S    
C27   C32   A    
Cu1   N4    S    
C28   C31   A    
Cu2   N3    S    
N3    N11   S    
C12   C14   A    
C3    C5    A    
C35   H18   S    
C6    C8    A    
C25   C27   A    
C40   H38   S    
C26   C28   A    
C10   H4    S    
C2    O4    A    
C21   C23   A    
C35   H16   S    
C29   C31   A    
C30   C32   A    
C11   C13   A    
C1    O1    A    
N5    H7    S    
C22   N2    A    
C5    H1    S    
C6    H2    S    
C22   C24   A    
C23   C25   A    
C4    C14   A    
N7    H15   S    
C24   C30   A    
N6    H11   S    
C31   N7    S    
C39   H36   S    
C8    C10   A    
C34   H12   S    
C35   H17   S    
N12   H37   S    
Cu1   O4    S    
C11   O13   S    
Cu2   O3    S    
C38   H28   S    
C19   N1    A    
