data_mof_unit_38470.cif
_audit_creation_date              2012-10-26T18:41:54-0400
_audit_creation_method            fapswitch 2.2
_symmetry_space_group_name_H-M    P1
_symmetry_Int_Tables_number       1
_space_group_crystal_system       triclinic
_cell_length_a                    15.71165
_cell_length_b                    18.165728
_cell_length_c                    19.338488
_cell_angle_alpha                 90.349878
_cell_angle_beta                  89.806285
_cell_angle_gamma                 69.808215
_cell_volume                      5180.06903488

loop_
_atom_site_label
_atom_site_type_symbol
_atom_type_description
_atom_site_fract_x
_atom_site_fract_y
_atom_site_fract_z
_atom_type_partial_charge
C1    C     C_R   0.498134 0.500918 0.632231 0.573064
C2    C     C_R   0.540608 0.452228 0.819860 0.242562
C3    C     C_3   0.837290 0.369525 0.919248 -0.497908
C4    C     C_3   0.265776 0.547329 0.151875 -0.123211
C5    C     C_3   0.253443 0.618623 0.831830 -0.132361
C6    C     C_3   0.379142 0.380479 0.296189 -0.070486
C7    C     C_3   0.384537 0.694847 0.700904 -0.061110
C8    C     C_R   0.475657 0.509196 0.148580 0.032967
C9    C     C_R   0.468674 0.512922 0.851290 0.057136
C10   C     C_R   0.410871 0.490192 0.188741 0.266215
C11   C     C_R   0.406146 0.570146 0.810094 0.257573
C12   C     C_R   0.422295 0.481384 0.260523 0.247410
C13   C     C_R   0.419840 0.569278 0.738084 0.247183
C14   C     C_R   0.491390 0.501416 0.292737 -0.072165
C15   C     C_R   0.488193 0.505570 0.707181 -0.072298
C16   C     C_R   0.464021 0.448045 0.035294 0.259738
C17   C     C_R   0.498536 0.500186 0.367782 0.577062
C18   C     C_R   0.465606 0.582240 0.963850 0.257590
C19   C     C_R   0.453573 0.451331 0.963615 0.246630
C20   C     C_R   0.463787 0.582893 0.036922 0.233577
C21   C     C_R   0.673096 0.452230 0.499947 0.538277
C22   C     C_R   0.326783 0.547854 0.501982 0.592930
C23   C     C_R   0.459965 0.516465 0.927460 -0.007507
C24   C     C_R   0.466358 0.514168 0.072497 -0.017650
C25   C     C_R   0.458178 0.287858 0.550307 0.434725
C26   C     C_R   0.438021 0.742066 0.463640 0.431617
C27   C     C_R   0.464494 0.207554 0.548985 0.259259
C28   C     C_R   0.099077 0.404250 0.537669 0.257101
C29   C     C_R   0.439854 0.819837 0.465754 0.256860
C30   C     C_R   0.516974 0.156591 0.496788 0.030644
C31   C     C_R   0.513872 0.834599 0.497649 -0.000288
C32   C     C_R   0.560576 0.188068 0.447792 -0.194421
C33   C     C_R   0.578029 0.771601 0.531684 -0.197399
C34   C     C_R   0.551375 0.267430 0.450273 -0.026699
C35   C     C_R   0.568355 0.698000 0.534171 -0.043570
C36   C     C_R   0.508511 0.036707 0.432808 0.224070
C37   C     C_R   0.550555 0.947099 0.554344 0.216043
C38   C     C_R   0.512913 0.957232 0.431868 0.246098
C39   C     C_R   0.905261 0.588097 0.560599 0.258377
C40   C     C_R   0.558035 0.022313 0.552546 0.255805
C41   C     C_R   0.526623 0.913641 0.494303 -0.058358
C42   C     C_R   0.528676 0.070507 0.493876 -0.052368
C43   C     C_R   0.772935 0.422753 0.504437 -0.012232
C44   C     C_R   0.227135 0.577305 0.512162 0.002752
C45   C     C_R   0.918808 0.318155 0.511143 -0.108290
C46   C     C_R   0.085251 0.677201 0.547438 -0.116662
C47   C     C_R   0.824296 0.341987 0.506283 0.247871
C48   C     C_R   0.178070 0.655941 0.530791 0.267812
C49   C     C_R   0.816997 0.477466 0.510442 -0.156091
C50   C     C_R   0.057084 0.348661 0.525016 0.267731
C51   C     C_R   0.181889 0.523351 0.507989 -0.141270
C52   C     C_R   0.910183 0.454358 0.523848 -0.037803
C53   C     C_R   0.091115 0.542886 0.529183 -0.040349
C54   C     C_R   0.962393 0.373417 0.519654 -0.038781
C55   C     C_R   0.041062 0.621972 0.545414 -0.036164
C56   C     C_R   0.953164 0.510179 0.537355 -0.052202
C57   C     C_R   0.048754 0.485539 0.532812 -0.056104
C58   C     C_3   0.161266 0.249663 0.462766 0.005228
C59   C     C_3   0.105952 0.237017 0.401565 -0.285513
C60   C     C_3   0.166070 0.206830 0.338035 -0.473293
C61   C     C_R   0.948213 0.644587 0.561160 0.265823
C62   C     C_3   0.834113 0.761214 0.536140 0.024508
C63   C     C_3   0.868706 0.813325 0.490291 -0.286121
C64   C     C_3   0.793647 0.864765 0.443723 -0.495070
C65   C     C_3   0.561133 0.330024 0.069999 -0.103214
C66   C     C_3   0.421824 0.713909 0.936151 -0.053330
C67   C     C_3   0.363088 0.396307 0.904814 0.009713
C68   C     C_3   0.299652 0.390401 0.963450 -0.248714
C69   C     C_3   0.207036 0.395477 0.935729 -0.504896
C70   C     C_3   0.393344 0.689930 0.106068 0.006097
C71   C     C_3   0.407651 0.758862 0.143712 -0.251368
C72   C     C_R   0.553396 0.523089 0.253360 -0.218444
C73   C     C_3   0.320305 0.811901 0.178123 -0.502943
C74   C     C_3   0.441894 0.319538 0.666216 -0.078013
C75   C     C_3   0.386335 0.728112 0.355835 -0.092115
C76   C     C_3   0.349827 0.166085 0.586743 0.011884
C77   C     C_3   0.309847 0.144471 0.652718 -0.252400
C78   C     C_3   0.234691 0.111787 0.637426 -0.497576
C79   C     C_3   0.312477 0.929578 0.478512 0.024372
C80   C     C_3   0.223441 0.970799 0.440761 -0.254146
C81   C     C_3   0.152816 0.027961 0.487789 -0.501501
C82   C     C_3   0.535077 0.064588 0.320555 -0.101469
C83   C     C_R   0.547408 0.447109 0.747854 -0.218476
C84   C     C_3   0.492975 0.926123 0.657233 -0.099847
C85   C     C_3   0.574528 0.869515 0.344416 0.008016
C86   C     C_3   0.552966 0.836961 0.276246 -0.256116
C87   C     C_3   0.635315 0.770959 0.247873 -0.491247
C88   C     C_3   0.672837 0.056818 0.600492 0.018556
C89   C     C_3   0.746370 0.986252 0.631853 -0.247261
C90   C     C_3   0.840252 0.992220 0.622537 -0.500019
C91   C     C_3   0.176050 0.780743 0.505596 -0.103674
C92   C     C_3   0.780265 0.250301 0.560493 -0.116111
C93   C     C_3   0.187674 0.368089 0.634065 0.038404
C94   C     C_R   0.549131 0.522926 0.181064 0.235426
C95   C     C_3   0.180933 0.443638 0.673146 -0.258048
C96   C     C_3   0.195761 0.428678 0.750449 -0.501753
C97   C     C_3   0.818829 0.606957 0.659755 0.024722
C98   C     C_3   0.824818 0.525741 0.685651 -0.278437
C99   C     C_3   0.815492 0.525176 0.764159 -0.496689
C100  C     C_3   0.699555 0.485430 0.150829 0.009536
C101  C     C_3   0.761494 0.494204 0.092818 -0.244704
C102  C     C_3   0.856781 0.433808 0.098933 -0.498740
C103  C     C_3   0.684539 0.410207 0.861481 0.007533
C104  C     C_3   0.744902 0.359323 0.917305 -0.254538
Cu1   Cu    Cu3+1 0.500030 0.426630 0.500000 1.008804
Cu2   Cu    Cu3+1 0.499970 0.573370 0.500000 1.011951
H1    H     H_    0.604271 0.150860 0.408751 0.119472
H2    H     H_    0.600502 0.398582 0.723762 0.120686
H3    H     H_    0.770105 0.508522 0.661776 0.172039
H4    H     H_    0.891356 0.481826 0.670563 0.160841
H5    H     H_    0.868533 0.543588 0.789220 0.147272
H6    H     H_    0.823983 0.464914 0.781301 0.135771
H7    H     H_    0.747386 0.565252 0.780709 0.152884
H8    H     H_    0.698006 0.424513 0.148896 0.109451
H9    H     H_    0.728013 0.495341 0.201200 0.126308
H10   H     H_    0.732460 0.486611 0.042055 0.176353
H11   H     H_    0.765507 0.554094 0.094981 0.176715
H12   H     H_    0.887334 0.440820 0.149162 0.147405
H13   H     H_    0.217372 0.193577 0.472144 0.139709
H14   H     H_    0.900195 0.442283 0.056487 0.143840
H15   H     H_    0.854545 0.373470 0.094943 0.141541
H16   H     H_    0.673488 0.472962 0.874011 0.142826
H17   H     H_    0.719633 0.394543 0.810556 0.123168
H18   H     H_    0.711099 0.375743 0.968561 0.157569
H19   H     H_    0.754804 0.296631 0.906895 0.171875
H20   H     H_    0.873576 0.350585 0.869273 0.142081
H21   H     H_    0.878807 0.332934 0.961077 0.143871
H22   H     H_    0.829177 0.431853 0.929445 0.148611
H23   H     H_    0.278958 0.583454 0.109851 0.075990
H24   H     H_    0.193852 0.293406 0.449407 0.158549
H25   H     H_    0.250624 0.581063 0.201461 0.126026
H26   H     H_    0.204272 0.534114 0.137473 0.136510
H27   H     H_    0.244510 0.579382 0.872730 0.089114
H28   H     H_    0.245563 0.595412 0.779725 0.149845
H29   H     H_    0.197765 0.675801 0.838235 0.137394
H30   H     H_    0.364026 0.362474 0.243955 0.164302
H31   H     H_    0.335233 0.364320 0.333833 0.130896
H32   H     H_    0.450839 0.347073 0.310007 0.110322
H33   H     H_    0.457734 0.682347 0.689368 0.110863
H34   H     H_    0.366820 0.723882 0.752307 0.139290
H35   H     H_    0.073536 0.193665 0.415821 0.166220
H36   H     H_    0.345040 0.736855 0.661513 0.151627
H37   H     H_    0.051851 0.293228 0.388497 0.158660
H38   H     H_    0.198522 0.249672 0.322272 0.151874
H39   H     H_    0.124253 0.198543 0.294527 0.143662
H40   H     H_    0.219549 0.149606 0.349252 0.168735
H41   H     H_    0.775037 0.799220 0.566401 0.166358
H42   H     H_    0.808879 0.722689 0.503003 0.144823
H43   H     H_    0.636743 0.778369 0.555781 0.165498
H44   H     H_    0.894212 0.851419 0.523272 0.165871
H45   H     H_    0.925683 0.775900 0.457561 0.151549
H46   H     H_    0.768516 0.827615 0.409356 0.134691
H47   H     H_    0.820589 0.901947 0.411176 0.140443
H48   H     H_    0.736327 0.903632 0.475273 0.138941
H49   H     H_    0.604432 0.357875 0.097374 0.083867
H50   H     H_    0.587503 0.312343 0.016703 0.163788
H51   H     H_    0.565869 0.275915 0.098410 0.123667
H52   H     H_    0.417600 0.747005 0.887508 0.124778
H53   H     H_    0.443034 0.746597 0.977301 0.144316
H54   H     H_    0.587287 0.289681 0.412672 0.153059
H55   H     H_    0.352541 0.712939 0.947081 0.124181
H56   H     H_    0.368776 0.349069 0.866448 0.146524
H57   H     H_    0.333824 0.452309 0.876639 0.101867
H58   H     H_    0.330507 0.333736 0.990651 0.202375
H59   H     H_    0.289879 0.438927 0.001306 0.182207
H60   H     H_    0.174149 0.452620 0.909807 0.140276
H61   H     H_    0.162980 0.390645 0.979208 0.149913
H62   H     H_    0.214145 0.346991 0.898378 0.145201
H63   H     H_    0.373151 0.654780 0.145355 0.115593
H64   H     H_    0.337243 0.712700 0.068296 0.095850
H65   H     H_    0.617794 0.651434 0.562239 0.168853
H66   H     H_    0.460417 0.735865 0.183908 0.172619
H67   H     H_    0.431680 0.793869 0.106465 0.162760
H68   H     H_    0.267983 0.838605 0.138435 0.144952
H69   H     H_    0.333896 0.859573 0.207155 0.152359
H70   H     H_    0.294091 0.777869 0.214770 0.131713
H71   H     H_    0.419448 0.373262 0.698867 0.127339
H72   H     H_    0.517531 0.296439 0.666466 0.111821
H73   H     H_    0.414614 0.277571 0.691272 0.146503
H74   H     H_    0.350344 0.693616 0.328675 0.127497
H75   H     H_    0.459393 0.702096 0.341100 0.107316
H76   H     H_    0.218520 0.465666 0.487288 0.197687
H77   H     H_    0.357599 0.789291 0.337069 0.149285
H78   H     H_    0.362969 0.117506 0.548429 0.127214
H79   H     H_    0.300114 0.220304 0.564955 0.170855
H80   H     H_    0.363977 0.099721 0.681632 0.177045
H81   H     H_    0.282835 0.196789 0.686868 0.138158
H82   H     H_    0.179266 0.154979 0.608319 0.202411
H83   H     H_    0.206436 0.099033 0.686779 0.137366
H84   H     H_    0.262348 0.056308 0.607324 0.128139
H85   H     H_    0.298421 0.898323 0.524257 0.096741
H86   H     H_    0.340673 0.974494 0.496881 0.134025
H87   H     H_    0.777840 0.538489 0.502522 0.190292
H88   H     H_    0.236629 0.003399 0.395888 0.184778
H89   H     H_    0.195823 0.926189 0.420739 0.155065
H90   H     H_    0.142002 0.997982 0.535176 0.141412
H91   H     H_    0.087435 0.051816 0.459923 0.144438
H92   H     H_    0.175076 0.077566 0.502216 0.159671
H93   H     H_    0.517030 0.024578 0.284600 0.162289
H94   H     H_    0.607546 0.038297 0.336214 0.071837
H95   H     H_    0.528306 0.118740 0.291453 0.115192
H96   H     H_    0.431043 0.927605 0.628408 0.083316
H97   H     H_    0.482632 0.983424 0.682706 0.162462
H98   H     H_    0.957588 0.255991 0.508865 0.157583
H99   H     H_    0.503839 0.881792 0.698559 0.121874
H100  H     H_    0.627346 0.896313 0.334676 0.101527
H101  H     H_    0.602246 0.819891 0.380779 0.128003
H102  H     H_    0.496739 0.814075 0.284595 0.169802
H103  H     H_    0.530554 0.884797 0.237632 0.155819
H104  H     H_    0.692658 0.792421 0.239241 0.141687
H105  H     H_    0.617849 0.749643 0.197817 0.165285
H106  H     H_    0.656464 0.721183 0.284599 0.147268
H107  H     H_    0.673419 0.110973 0.627208 0.140536
H108  H     H_    0.689385 0.062729 0.545047 0.099892
H109  H     H_    0.048097 0.736672 0.563908 0.152147
H110  H     H_    0.732431 0.982911 0.687919 0.183092
H111  H     H_    0.745278 0.931701 0.606390 0.183886
H112  H     H_    0.855823 0.994876 0.566716 0.140120
H113  H     H_    0.892138 0.939830 0.645136 0.155896
H114  H     H_    0.843614 0.045531 0.649120 0.139811
H115  H     H_    0.146120 0.772547 0.455199 0.105137
H116  H     H_    0.224534 0.811052 0.494622 0.174853
H117  H     H_    0.123356 0.819662 0.540713 0.086658
H118  H     H_    0.744365 0.294277 0.600776 0.114321
H119  H     H_    0.849414 0.214712 0.578285 0.098304
H120  H     H_    0.606045 0.538785 0.278911 0.123428
H121  H     H_    0.741593 0.209948 0.553525 0.127750
H122  H     H_    0.253305 0.323126 0.647505 0.179211
H123  H     H_    0.134150 0.345192 0.652365 0.120706
H124  H     H_    0.232841 0.466959 0.652919 0.209144
H125  H     H_    0.112711 0.488430 0.665782 0.154126
H126  H     H_    0.144389 0.405520 0.771837 0.143633
H127  H     H_    0.189006 0.484374 0.777619 0.133213
H128  H     H_    0.264651 0.385909 0.760075 0.131636
H129  H     H_    0.753950 0.650642 0.678420 0.154043
H130  H     H_    0.874097 0.624425 0.682897 0.152073
N1    N     N_R   0.500010 0.316380 0.499980 -0.242770
N2    N     N_R   0.499990 0.683620 0.500020 -0.243817
O1    O     O_R   0.500040 0.438010 0.599820 -0.483237
O2    O     O_3   0.901647 0.720461 0.584108 -0.584213
O3    O     O_3   0.469615 0.379777 0.069367 -0.517083
O4    O     O_3   0.487962 0.638645 0.927148 -0.540225
O5    O     O_3   0.451458 0.384760 0.929209 -0.514362
O6    O     O_3   0.475049 0.645527 0.072213 -0.507311
O7    O     O_3   0.405117 0.339457 0.599388 -0.527817
O8    O     O_3   0.371207 0.725023 0.427609 -0.520080
O9    O     O_3   0.431110 0.177850 0.604408 -0.562662
O10   O     O_3   0.373175 0.878044 0.431104 -0.538922
O11   O     O_3   0.473589 0.084906 0.376824 -0.548169
O12   O     O_R   0.499960 0.561990 0.400180 -0.495027
O13   O     O_3   0.571008 0.904671 0.614896 -0.565709
O14   O     O_3   0.494199 0.926111 0.370645 -0.504242
O15   O     O_3   0.586447 0.050499 0.611597 -0.509090
O16   O     O_3   0.223524 0.708945 0.538120 -0.519074
O17   O     O_3   0.783465 0.286352 0.496612 -0.557510
O18   O     O_3   0.187510 0.378451 0.561427 -0.572509
O19   O     O_3   0.817657 0.609029 0.586542 -0.606453
O20   O     O_3   0.612337 0.541808 0.141565 -0.516969
O21   O     O_3   0.601867 0.395822 0.859991 -0.532388
O22   O     O_3   0.338669 0.475901 0.157911 -0.528305
O23   O     O_R   0.500000 0.561930 0.599810 -0.486569
O24   O     O_3   0.336647 0.630859 0.840679 -0.576536
O25   O     O_3   0.359556 0.462280 0.300243 -0.551669
O26   O     O_3   0.361115 0.626602 0.697004 -0.537181
O27   O     O_R   0.500000 0.438070 0.400190 -0.498111
O28   O     O_R   0.629870 0.403290 0.500000 -0.462616
O29   O     O_R   0.370130 0.596710 0.500000 -0.388883
O30   O     O_R   0.629830 0.527210 0.500000 -0.541088
O31   O     O_R   0.370170 0.472790 0.500000 -0.474889
O32   O     O_3   0.107880 0.269258 0.523909 -0.603908

loop_
_geom_bond_atom_site_label_1
_geom_bond_atom_site_label_2
_ccdc_geom_bond_type
C3    C104  S    
C7    H33   S    
C6    H32   S    
C101  C102  S    
C98   H4    S    
C35   H65   S    
C87   H106  S    
C82   O11   S    
C36   C42   A    
C95   C96   S    
C78   H84   S    
C86   H103  S    
C51   H76   S    
C103  H17   S    
C97   C98   S    
C93   O18   S    
C97   O19   S    
C4    H26   S    
C28   C57   A    
C1    O1    A    
C5    H27   S    
C100  H9    S    
C85   H101  S    
Cu2   O29   S    
C50   C54   A    
C88   H108  S    
C64   H46   S    
C87   H104  S    
C70   H63   S    
C95   H125  S    
C37   C40   A    
C45   H98   S    
C81   H91   S    
C7    H34   S    
C3    H21   S    
C103  H16   S    
Cu1   O27   S    
C97   H129  S    
C64   H48   S    
C17   O12   A    
C62   O2    S    
C56   C57   A    
C20   O6    S    
C11   O24   S    
C73   H68   S    
C34   N1    A    
C69   H60   S    
C100  C101  S    
C17   O27   A    
C39   O19   S    
C21   O30   A    
C70   O6    S    
C21   C43   S    
C28   C50   A    
C22   O29   A    
C22   C44   S    
C74   H73   S    
C50   O32   S    
C92   H121  S    
C68   C69   S    
C32   H1    S    
C46   C55   A    
C6    H30   S    
C96   H127  S    
C95   H124  S    
C6    O25   S    
C1    C15   S    
C91   H115  S    
C102  H15   S    
C43   C47   A    
C90   H114  S    
C102  H12   S    
C19   O5    S    
C72   C94   A    
C16   O3    S    
C18   O4    S    
C62   H42   S    
C40   C42   A    
C2    O21   S    
C75   H77   S    
C59   C60   S    
C16   C24   A    
C98   H3    S    
C72   H120  S    
C71   H67   S    
C84   O13   S    
C37   C41   A    
C77   H80   S    
C14   C17   S    
C2    C83   A    
C35   N2    A    
C14   C72   A    
C78   H83   S    
C84   H99   S    
C66   H53   S    
C90   H113  S    
C52   C54   A    
C85   H100  S    
C4    H25   S    
C100  O20   S    
C45   C47   A    
Cu1   O31   S    
C5    H28   S    
C39   C61   A    
C38   O14   S    
C3    H20   S    
C90   H112  S    
C88   H107  S    
C104  H19   S    
C52   C56   A    
C67   C68   S    
C20   C24   A    
C92   H118  S    
C8    C94   A    
C76   C77   S    
C38   C41   A    
C65   H51   S    
C86   H102  S    
C81   H92   S    
C71   C73   S    
C74   O7    S    
C53   C57   A    
C3    H22   S    
C9    C23   S    
C15   C83   A    
C66   O4    S    
Cu1   O28   S    
C77   C78   S    
C97   H130  S    
C65   O3    S    
C64   H47   S    
Cu2   O23   S    
C18   C23   A    
C66   H55   S    
C51   C53   A    
C12   O25   S    
C32   C34   A    
C73   H69   S    
C19   C23   A    
C69   H61   S    
C63   H44   S    
C47   O17   S    
C62   C63   S    
C27   O9    S    
C82   H95   S    
C26   N2    A    
C39   C56   A    
C74   H72   S    
C25   N1    A    
C29   C31   A    
C49   C52   A    
C99   H5    S    
C96   H128  S    
C31   C33   A    
C36   O11   S    
Cu1   O1    S    
C100  H8    S    
C7    O26   S    
C88   C89   S    
C91   H116  S    
C75   H74   S    
C9    C11   A    
C63   H45   S    
C83   H2    S    
C70   C71   S    
C75   O8    S    
C10   C12   A    
C21   O28   A    
C85   O14   S    
C89   H110  S    
C1    O23   A    
C40   O15   S    
C44   C51   A    
C8    C10   A    
C12   C14   A    
C92   H119  S    
C98   C99   S    
C88   O15   S    
C62   H41   S    
C13   C15   A    
C5    O24   S    
C77   H81   S    
C29   O10   S    
C10   O22   S    
C79   C80   S    
C76   O9    S    
C78   H82   S    
C60   H39   S    
C53   C55   A    
C91   H117  S    
C75   H75   S    
C66   H52   S    
C102  H14   S    
C67   H56   S    
C84   H97   S    
C93   H123  S    
C5    H29   S    
C80   H89   S    
C25   C27   A    
C92   O17   S    
C67   O5    S    
C31   C41   S    
C86   C87   S    
C61   O2    S    
C87   H105  S    
C43   C49   A    
C28   O18   S    
C80   C81   S    
C85   C86   S    
C45   C54   A    
C22   O31   A    
C4    H23   S    
C104  H18   S    
C91   O16   S    
C65   H50   S    
C80   H88   S    
Cu1   Cu2   S    
C58   O32   S    
Cu2   O30   S    
C73   H70   S    
C79   H86   S    
C101  H11   S    
C79   O10   S    
C103  O21   S    
C6    H31   S    
C36   C38   A    
C58   C59   S    
C68   H58   S    
C82   H93   S    
C65   H49   S    
C44   C48   A    
C37   O13   S    
C68   H59   S    
C81   H90   S    
C30   C32   A    
C11   C13   A    
C93   H122  S    
Cu2   O12   S    
C94   O20   S    
C74   H71   S    
C49   H87   S    
C58   H24   S    
C16   C19   A    
C99   H6    S    
C55   C61   A    
C58   H13   S    
C33   C35   A    
C33   H43   S    
C4    O22   S    
C84   H96   S    
C18   C20   A    
C96   H126  S    
C70   H64   S    
C13   O26   S    
C69   H62   S    
C82   H94   S    
C59   H37   S    
C63   C64   S    
C46   C48   A    
C67   H57   S    
C60   H40   S    
C8    C24   S    
C59   H35   S    
C26   C29   A    
C93   C95   S    
C46   H109  S    
Cu2   N2    S    
C89   H111  S    
C103  C104  S    
C101  H10   S    
Cu1   N1    S    
C71   H66   S    
C30   C42   S    
C79   H85   S    
C89   C90   S    
C76   H78   S    
C2    C9    A    
C48   O16   S    
C7    H36   S    
C60   H38   S    
C76   H79   S    
C26   O8    S    
C25   O7    S    
C27   C30   A    
C99   H7    S    
C34   H54   S    
