data_mof_unit_24595.cif
_audit_creation_date              2012-10-26T19:40:08-0400
_audit_creation_method            fapswitch 2.2
_symmetry_space_group_name_H-M    P1
_symmetry_Int_Tables_number       1
_space_group_crystal_system       triclinic
_cell_length_a                    14.95637
_cell_length_b                    8.671451
_cell_length_c                    7.451121
_cell_angle_alpha                 102.917233
_cell_angle_beta                  93.788539
_cell_angle_gamma                 92.301977
_cell_volume                      938.347756353

loop_
_atom_site_label
_atom_site_type_symbol
_atom_type_description
_atom_site_fract_x
_atom_site_fract_y
_atom_site_fract_z
_atom_type_partial_charge
C1    C     C_R   0.497300 0.199785 0.453315 0.548061
C2    C     C_R   0.181533 0.358908 0.428367 -0.101232
C3    C     C_R   0.766997 0.502522 0.490099 -0.003196
C4    C     C_R   0.233003 0.497478 0.509901 -0.003196
C5    C     C_R   0.806934 0.364882 0.407867 -0.123812
C6    C     C_R   0.193066 0.635118 0.592133 -0.123812
C7    C     C_R   0.900076 0.362478 0.413917 -0.007216
C8    C     C_R   0.099924 0.637522 0.586082 -0.007216
C9    C     C_R   0.953112 0.502112 0.495738 0.038603
C10   C     C_R   0.046888 0.497888 0.504262 0.038603
C11   C     C_R   0.912148 0.645494 0.569096 0.007846
C12   C     C_R   0.502700 0.800215 0.546685 0.548060
C13   C     C_R   0.087852 0.354506 0.430904 0.007846
C14   C     C_R   0.940371 0.220882 0.344584 -0.091457
C15   C     C_R   0.059629 0.779118 0.655416 -0.091457
C16   C     C_2   0.071484 0.054950 0.300715 0.576510
C17   C     C_2   0.928516 0.945050 0.699284 0.576510
C18   C     C_R   0.033829 0.213393 0.356823 0.076104
C19   C     C_R   0.966171 0.786607 0.643177 0.076103
C20   C     C_2   0.495977 0.031844 0.427051 -0.145701
C21   C     C_2   0.504023 0.968156 0.572949 -0.145701
C22   C     C_R   0.329127 0.499505 0.503077 0.543806
C23   C     C_R   0.670873 0.500494 0.496923 0.543806
C24   C     C_R   0.818466 0.641092 0.571633 -0.101232
Cu1   Cu    Cu3+1 0.510010 0.517380 0.684380 0.975469
Cu2   Cu    Cu3+1 0.489990 0.482620 0.315620 0.975469
H1    H     H_    0.784289 0.743152 0.639172 0.161730
H2    H     H_    0.569901 0.622077 0.051111 0.244499
H3    H     H_    0.163660 0.903313 0.351846 0.337989
H4    H     H_    0.836340 0.096687 0.648154 0.337989
H5    H     H_    0.215710 0.256848 0.360828 0.161730
H6    H     H_    0.765374 0.258227 0.346540 0.120965
H7    H     H_    0.234626 0.741773 0.653460 0.120964
H8    H     H_    0.898456 0.113940 0.286902 0.175100
H9    H     H_    0.101544 0.886059 0.713098 0.175100
H10   H     H_    0.488374 0.960285 0.286460 0.136788
H11   H     H_    0.511626 0.039715 0.713540 0.136788
H12   H     H_    0.430099 0.377923 0.948889 0.244499
N1    N     N_2   0.474890 0.456420 0.038520 -0.254789
N2    N     N_2   0.525110 0.543580 0.961480 -0.254790
O1    O     O_R   0.506510 0.286130 0.619770 -0.506080
O2    O     O_R   0.145569 0.015250 0.402323 -0.731885
O3    O     O_2   0.965082 0.044001 0.829426 -0.484085
O4    O     O_R   0.854431 0.984750 0.597677 -0.731885
O5    O     O_R   0.493490 0.713870 0.380230 -0.506080
O6    O     O_R   0.489600 0.256770 0.308360 -0.499632
O7    O     O_R   0.510400 0.743230 0.691640 -0.499632
O8    O     O_R   0.378710 0.514640 0.655720 -0.499034
O9    O     O_R   0.621290 0.485360 0.344280 -0.499034
O10   O     O_R   0.361800 0.485290 0.344300 -0.495349
O11   O     O_R   0.638200 0.514710 0.655700 -0.495349
O12   O     O_2   0.034918 0.955999 0.170574 -0.484085

loop_
_geom_bond_atom_site_label_1
_geom_bond_atom_site_label_2
_ccdc_geom_bond_type
C14   H8    S    
C2    C4    A    
Cu1   O11   S    
H3    O2    S    
C7    C14   A    
C4    C22   S    
C9    C10   A    
Cu1   O7    S    
C23   O11   A    
C6    H7    S    
C22   O10   A    
C5    H6    S    
H4    O4    S    
C17   O3    D    
C17   O4    S    
C15   C19   A    
C9    C11   A    
Cu1   O8    S    
C11   C19   A    
C3    C24   A    
C13   C18   A    
C12   O7    A    
C24   H1    S    
C12   C21   S    
C1    O1    A    
C17   C19   S    
C22   O8    A    
C8    C15   A    
C7    C9    A    
Cu2   O10   S    
Cu1   N2    S    
H12   N1    S    
C1    O6    A    
Cu2   N1    S    
C23   O9    A    
C4    C6    A    
H2    N2    S    
Cu1   O1    S    
C20   H10   S    
C16   O2    S    
C11   C24   A    
C21   H11   S    
C20   C21   D    
C16   C18   S    
Cu2   O9    S    
C15   H9    S    
N1    N2    D    
C5    C7    A    
C2    C13   A    
Cu2   O6    S    
C2    H5    S    
C1    C20   S    
C6    C8    A    
Cu2   O5    S    
Cu1   Cu2   S    
C3    C23   S    
C14   C18   A    
C8    C10   A    
C16   O12   D    
C12   O5    A    
C3    C5    A    
C10   C13   A    
