data_mof_unit_57365.cif
_audit_creation_date              2012-12-10T17:59:46-0500
_audit_creation_method            fapswitch 2.2
_symmetry_space_group_name_H-M    P1
_symmetry_Int_Tables_number       1
_space_group_crystal_system       triclinic
_cell_length_a                    10.825141
_cell_length_b                    9.612562
_cell_length_c                    15.871465
_cell_angle_alpha                 90.732589
_cell_angle_beta                  91.896607
_cell_angle_gamma                 90.020197
_cell_volume                      1650.50224054

loop_
_atom_site_label
_atom_site_type_symbol
_atom_type_description
_atom_site_fract_x
_atom_site_fract_y
_atom_site_fract_z
_atom_type_partial_charge
C1    C     C_R   0.262403 0.500294 0.501100 0.764074
C2    C     C_3   0.625119 0.443332 0.951273 -0.602534
C3    C     C_3   0.634406 0.457135 0.049853 0.852806
C4    C     C_1   0.495551 0.493791 0.824589 0.029787
C5    C     C_1   0.497343 0.489613 0.175363 -0.037914
C6    C     C_1   0.497238 0.494513 0.250852 -0.184244
C7    C     C_R   0.063365 0.376038 0.497157 -0.191416
C8    C     C_R   0.064295 0.627998 0.506735 -0.181484
C9    C     C_R   0.936059 0.376356 0.492019 -0.209566
C10   C     C_R   0.936246 0.627974 0.506011 -0.180631
C11   C     C_R   0.871581 0.501676 0.498675 -0.017177
C12   C     C_R   0.128412 0.501523 0.502192 -0.016485
C13   C     C_R   0.440589 0.073922 0.436803 0.345469
C14   C     C_R   0.453257 0.925611 0.431956 0.326614
C15   C     C_R   0.498666 0.498821 0.340423 0.824900
C16   C     C_R   0.546850 0.928033 0.567956 0.352251
C17   C     C_R   0.560153 0.075507 0.562891 0.341435
C18   C     C_R   0.737604 0.500318 0.499223 0.754131
C19   C     C_R   0.499532 0.500327 0.659611 0.817268
C20   C     C_3   0.459766 0.634955 0.052010 -0.486635
C21   C     C_3   0.396987 0.387610 0.045363 -0.544249
C22   C     C_3   0.402564 0.377926 0.947496 0.316563
C23   C     C_3   0.468153 0.637716 0.954191 0.349060
C24   C     C_1   0.497239 0.498905 0.749179 -0.172883
C25   C     C_3   0.499011 0.488225 0.083302 0.083256
C26   C     C_3   0.494939 0.489109 0.916828 0.060789
Cu1   Cu    Cu3+1 0.500020 0.640660 0.500000 0.996265
Cu2   Cu    Cu3+1 0.500020 0.359340 0.500000 0.996077
H1    H     H_    0.367363 0.661910 0.075069 0.173335
H2    H     H_    0.304466 0.426531 0.063097 0.205182
H3    H     H_    0.400680 0.282452 0.072716 0.133174
H4    H     H_    0.521628 0.716395 0.080517 0.191087
H5    H     H_    0.440731 0.274054 0.929831 0.063622
H6    H     H_    0.554224 0.697646 0.944443 0.134459
H7    H     H_    0.697443 0.508648 0.922730 0.196403
H8    H     H_    0.646443 0.335968 0.929449 0.170738
H9    H     H_    0.110310 0.277476 0.496443 0.151800
H10   H     H_    0.112667 0.726612 0.511361 0.148131
H11   H     H_    0.888768 0.278299 0.482863 0.135270
H12   H     H_    0.888319 0.726509 0.510993 0.152986
N1    N     N_R   0.500030 0.852070 0.500020 -0.263762
N2    N     N_R   0.500030 0.147930 0.500020 -0.268506
O1    O     O_R   0.319660 0.618740 0.500000 -0.572565
O2    O     O_R   0.319660 0.381260 0.500000 -0.569783
O3    O     O_R   0.500020 0.618840 0.379440 -0.538156
O4    O     O_R   0.500020 0.381160 0.379440 -0.521269
O5    O     O_R   0.680370 0.618830 0.500010 -0.569728
O6    O     O_R   0.680370 0.381170 0.500010 -0.596339
O7    O     O_R   0.500010 0.618730 0.620560 -0.538482
O8    O     O_R   0.500010 0.381270 0.620560 -0.531775
O9    O     O_3   0.376363 0.715003 0.908257 -0.593784
C27   C     C_3   0.252276 0.694447 0.930428 0.186257
H13   H     H_    0.237152 0.611645 0.976577 0.172386
H14   H     H_    0.198125 0.664330 0.872390 0.181922
C28   C     C_3   0.200076 0.830748 0.963843 -0.922708
H15   H     H_    0.205315 0.912427 0.915195 0.246445
H16   H     H_    0.101907 0.816173 0.979969 0.218965
H17   H     H_    0.253458 0.865640 0.021221 0.251429
O10   O     O_3   0.284072 0.396065 0.908309 -0.581835
C29   C     C_3   0.218729 0.268707 0.903261 0.047233
H18   H     H_    0.212989 0.220408 0.966428 0.146674
H19   H     H_    0.264239 0.195019 0.859366 0.145898
C30   C     C_3   0.088001 0.295386 0.869242 -0.794821
H20   H     H_    0.090750 0.342257 0.805719 0.248668
H21   H     H_    0.036019 0.195809 0.864312 0.207501
H22   H     H_    0.039535 0.367512 0.912260 0.246828
O11   O     O_3   0.588310 0.861166 0.640152 -0.578210
C31   C     C_3   0.514900 0.900884 0.709192 0.109663
H23   H     H_    0.432102 0.832568 0.710551 0.147476
H24   H     H_    0.479658 0.009641 0.705994 0.150997
C32   C     C_3   0.590244 0.884351 0.791843 -0.292711
H25   H     H_    0.587349 0.774060 0.810863 0.207632
H26   H     H_    0.688471 0.910433 0.783008 0.212922
C33   C     C_3   0.542382 0.978436 0.862006 -0.915951
H27   H     H_    0.559653 0.089217 0.847076 0.245389
H28   H     H_    0.591525 0.954491 0.922599 0.252468
H29   H     H_    0.441673 0.963366 0.869186 0.283062
O12   O     O_3   0.627040 0.145937 0.625888 -0.577268
C34   C     C_3   0.754362 0.146639 0.607657 0.146045
H30   H     H_    0.786759 0.255653 0.614864 0.174240
H31   H     H_    0.774747 0.109706 0.542526 0.091646
C35   C     C_3   0.830166 0.061292 0.671384 -0.379994
H32   H     H_    0.808508 0.095865 0.736323 0.226371
H33   H     H_    0.807347 0.949391 0.663130 0.247121
C36   C     C_3   0.968638 0.079456 0.659311 -0.961910
H34   H     H_    0.993255 0.044567 0.594996 0.250115
H35   H     H_    0.021230 0.016031 0.706187 0.261541
H36   H     H_    0.995683 0.190248 0.668577 0.265212
O13   O     O_3   0.708210 0.579180 0.065739 -0.623625
C37   C     C_3   0.784233 0.575028 0.140054 0.148816
H37   H     H_    0.870129 0.516193 0.127147 0.179455
H38   H     H_    0.737759 0.526201 0.193538 0.154843
C38   C     C_3   0.819470 0.722722 0.166503 -0.889170
H39   H     H_    0.735146 0.782612 0.181460 0.237584
H40   H     H_    0.881930 0.720728 0.223408 0.213272
H41   H     H_    0.867561 0.774873 0.114815 0.261406
O14   O     O_3   0.698359 0.339267 0.085423 -0.611143
C39   C     C_3   0.632344 0.212799 0.086281 0.008366
H42   H     H_    0.580039 0.191392 0.026534 0.137838
H43   H     H_    0.570757 0.212236 0.140837 0.173384
C40   C     C_3   0.723650 0.093928 0.098156 -0.803116
H44   H     H_    0.776045 0.106650 0.159134 0.248655
H45   H     H_    0.673085 0.993417 0.098003 0.200924
H46   H     H_    0.789449 0.092146 0.045909 0.254292
O15   O     O_3   0.378956 0.145413 0.373051 -0.532200
C41   C     C_3   0.251692 0.112326 0.371982 0.105874
H47   H     H_    0.214950 0.112626 0.436509 0.106520
H48   H     H_    0.233723 0.008068 0.343473 0.177112
C42   C     C_3   0.181293 0.218156 0.318472 -0.804979
H49   H     H_    0.210712 0.211064 0.252172 0.234977
H50   H     H_    0.080492 0.197311 0.320054 0.197337
H51   H     H_    0.200006 0.325109 0.342772 0.256987
O16   O     O_3   0.412112 0.856008 0.359584 -0.549141
C43   C     C_3   0.486240 0.891210 0.290565 0.137294
H52   H     H_    0.556311 0.808685 0.281302 0.152746
H53   H     H_    0.537985 0.991210 0.298064 0.129808
C44   C     C_3   0.405253 0.900030 0.210637 -0.844683
H54   H     H_    0.339636 0.988070 0.215166 0.252502
H55   H     H_    0.463683 0.918098 0.155715 0.192789
H56   H     H_    0.352387 0.801918 0.200795 0.251011

loop_
_geom_bond_atom_site_label_1
_geom_bond_atom_site_label_2
_ccdc_geom_bond_type
C2    H7    S    
C28   H15   S    
C30   H21   S    
C11   C18   S    
C38   H39   S    
C18   O5    A    
C43   H52   S    
C36   H34   S    
C21   H3    S    
Cu2   O4    S    
C40   H44   S    
C33   H28   S    
C29   C30   S    
C29   H19   S    
C44   H55   S    
C5    C6    T    
C4    C24   T    
C41   H47   S    
C2    H8    S    
C9    H11   S    
C10   H12   S    
C23   C26   S    
Cu1   N1    S    
C17   N2    A    
C6    C15   S    
Cu2   O8    S    
C1    O1    A    
C23   O9    S    
C16   C17   A    
C33   H29   S    
C13   C14   A    
C21   H2    S    
C27   C28   S    
Cu1   O3    S    
C30   H22   S    
O10   C29   S    
C40   H45   S    
C21   C22   S    
C1    C12   S    
C8    H10   S    
C13   N2    A    
C27   H14   S    
O14   C39   S    
C20   H1    S    
C36   H35   S    
C7    C12   A    
C19   O7    A    
C4    C26   S    
C33   H27   S    
O9    C27   S    
C3    C25   S    
C13   O15   S    
C44   H56   S    
C22   O10   S    
C34   H31   S    
O12   C34   S    
C31   H23   S    
Cu2   O2    S    
O11   C31   S    
C29   H18   S    
C32   C33   S    
C3    O14   S    
C1    O2    A    
C37   H38   S    
C20   C23   S    
C8    C12   A    
C23   H6    S    
C7    H9    S    
C2    C26   S    
C16   O11   S    
C9    C11   A    
C14   N1    A    
C5    C25   S    
C8    C10   A    
C39   H42   S    
C38   H41   S    
C35   H33   S    
C28   H16   S    
C22   C26   S    
C42   H51   S    
C15   O3    A    
C35   C36   S    
C27   H13   S    
C37   C38   S    
C32   H26   S    
O16   C43   S    
C20   H4    S    
C36   H36   S    
Cu1   O5    S    
C7    C9    A    
C22   H5    S    
C21   C25   S    
Cu2   O6    S    
C30   H20   S    
C18   O6    A    
C34   C35   S    
C43   H53   S    
C40   H46   S    
C14   O16   S    
O15   C41   S    
C39   H43   S    
C39   C40   S    
C3    O13   S    
C42   H50   S    
C2    C3    S    
C32   H25   S    
C44   H54   S    
C19   O8    A    
C37   H37   S    
C38   H40   S    
C41   H48   S    
C31   C32   S    
Cu2   N2    S    
C17   O12   S    
C19   C24   S    
C43   C44   S    
C10   C11   A    
C34   H30   S    
Cu1   O1    S    
C31   H24   S    
C35   H32   S    
C20   C25   S    
C28   H17   S    
Cu1   Cu2   S    
C15   O4    A    
O13   C37   S    
C42   H49   S    
C16   N1    A    
Cu1   O7    S    
C41   C42   S    
