data_mof_unit_29769.cif
_audit_creation_date              2012-12-10T17:48:50-0500
_audit_creation_method            fapswitch 2.2
_symmetry_space_group_name_H-M    P1
_symmetry_Int_Tables_number       1
_space_group_crystal_system       triclinic
_cell_length_a                    10.729914
_cell_length_b                    14.687752
_cell_length_c                    14.635897
_cell_angle_alpha                 65.298289
_cell_angle_beta                  103.527892
_cell_angle_gamma                 102.798892
_cell_volume                      2017.28853569

loop_
_atom_site_label
_atom_site_type_symbol
_atom_type_description
_atom_site_fract_x
_atom_site_fract_y
_atom_site_fract_z
_atom_type_partial_charge
C1    C     C_R   0.478176 0.119535 0.311925 0.806759
C2    C     C_3   0.877795 0.001398 0.496812 -0.007049
C3    C     C_3   0.942627 0.929949 0.604403 -0.038621
C4    C     C_3   0.952036 0.111493 0.471103 -0.396339
C5    C     C_R   0.471180 0.186885 0.203864 -0.054515
C6    C     C_R   0.532258 0.812806 0.798221 -0.163024
C7    C     C_R   0.456476 0.217101 0.026048 -0.162502
C8    C     C_R   0.455229 0.149810 0.127211 -0.153696
C9    C     C_R   0.487170 0.291109 0.178317 -0.210944
C10   C     C_R   0.496674 0.360160 0.078405 0.094655
C11   C     C_R   0.476976 0.322023 0.001008 0.148952
C12   C     C_R   0.259901 0.002734 0.496209 0.787908
C13   C     C_R   0.524724 0.466027 0.053663 0.067858
C14   C     C_R   0.511940 0.533054 0.949697 0.092536
C15   C     C_R   0.497310 0.492987 0.874708 -0.143309
C16   C     C_R   0.480425 0.389077 0.900084 -0.211537
C17   C     C_R   0.572421 0.506846 0.129300 -0.174777
C18   C     C_R   0.604723 0.610298 0.103091 -0.134147
C19   C     C_R   0.582677 0.676588 0.001644 0.108297
C20   C     C_R   0.526540 0.638953 0.924488 0.043429
C21   C     C_R   0.615071 0.780391 0.977142 -0.192644
C22   C     C_R   0.595371 0.848456 0.876260 -0.060840
C23   C     C_R   0.518826 0.880322 0.688557 0.843153
C24   C     C_R   0.484660 0.708597 0.825944 0.177891
C25   C     C_R   0.722036 0.289422 0.663321 -0.280690
C26   C     C_R   0.689509 0.207827 0.633146 0.107585
C27   C     C_R   0.515118 0.283385 0.511115 0.002844
C28   C     C_R   0.547414 0.371393 0.534542 -0.001645
C29   C     C_R   0.650099 0.370625 0.615436 0.144548
C30   C     C_R   0.481536 0.458885 0.481850 0.026357
C31   C     C_R   0.513906 0.541033 0.515285 0.096215
C32   C     C_R   0.611293 0.532639 0.601167 -0.201875
C33   C     C_R   0.679715 0.450416 0.648382 -0.181400
C34   C     C_R   0.739500 0.001055 0.497728 0.773130
C35   C     C_R   0.389022 0.468605 0.394024 -0.281067
C36   C     C_R   0.322876 0.552157 0.342678 0.317953
C37   C     C_R   0.344831 0.630747 0.379423 0.004099
C38   C     C_R   0.447522 0.628394 0.462368 -0.096822
C39   C     C_R   0.271150 0.712970 0.336411 0.203291
C40   C     C_R   0.310289 0.794484 0.366792 0.032755
C41   C     C_R   0.481514 0.715167 0.487987 0.050895
C42   C     C_3   0.034485 0.964758 0.413969 -0.397543
C43   C     C_3   0.890401 0.965057 0.412987 -0.173492
C44   C     C_3   0.087752 0.933347 0.601232 -0.423549
C45   C     C_3   0.096057 0.113380 0.470383 -0.165533
C46   C     C_3   0.122110 0.004454 0.494454 0.037544
Cu1   Cu    Cu3+1 0.465900 0.918260 0.475680 0.975264
Cu2   Cu    Cu3+1 0.534100 0.081740 0.524320 0.956104
H1    H     H_    0.049034 0.885741 0.432748 0.193421
H2    H     H_    0.946001 0.141016 0.528443 0.181234
H3    H     H_    0.152774 0.959935 0.659432 0.169223
H4    H     H_    0.469780 0.361180 0.840414 0.156150
H5    H     H_    0.646080 0.638607 0.162876 0.158106
H6    H     H_    0.443142 0.187204 0.967581 0.147707
H7    H     H_    0.442635 0.069214 0.145430 0.166509
H8    H     H_    0.489700 0.317096 0.237619 0.153358
H9    H     H_    0.063545 0.010884 0.337617 0.175253
H10   H     H_    0.505116 0.541746 0.796294 0.178785
H11   H     H_    0.594274 0.460566 0.209200 0.144806
H12   H     H_    0.658880 0.808472 0.036913 0.156314
H13   H     H_    0.755758 0.448760 0.712367 0.164578
H14   H     H_    0.562394 0.722069 0.545103 0.146940
H15   H     H_    0.255748 0.857709 0.333262 0.152992
H16   H     H_    0.802944 0.289037 0.723739 0.160028
H17   H     H_    0.746197 0.145954 0.668664 0.156713
H18   H     H_    0.433262 0.274702 0.455209 0.131968
H19   H     H_    0.637231 0.588387 0.634516 0.157932
H20   H     H_    0.369776 0.413353 0.360168 0.169829
H21   H     H_    0.839744 0.886394 0.429771 0.156027
H22   H     H_    0.110738 0.856356 0.620347 0.203164
H23   H     H_    0.154754 0.139338 0.530853 0.149567
H24   H     H_    0.904828 0.163690 0.396956 0.187352
N1    N     N_R   0.585360 0.204570 0.560800 -0.187031
N2    N     N_R   0.414550 0.795430 0.439160 -0.198966
O1    O     O_R   0.455060 0.022100 0.338110 -0.588804
O2    O     O_R   0.512640 0.160150 0.379180 -0.589581
O3    O     O_R   0.288900 0.930980 0.479450 -0.576206
O4    O     O_R   0.346480 0.069030 0.520520 -0.594921
O5    O     O_R   0.487360 0.839850 0.620820 -0.537591
O6    O     O_R   0.544940 0.977900 0.661890 -0.581047
O7    O     O_R   0.653520 0.930970 0.479480 -0.590635
O8    O     O_R   0.711100 0.069020 0.520550 -0.588587
C47   C     C_1   0.933055 0.961706 0.685871 0.221404
N3    N     N_1   0.925472 0.986504 0.749536 -0.274522
Br1   Br    Br    0.328956 0.667987 0.744732 -0.507240
C48   C     C_1   0.635267 0.954113 0.858570 0.320777
N4    N     N_1   0.667197 0.038336 0.846601 -0.292370
Br2   Br    Br    0.223372 0.556629 0.213325 -0.411077
C49   C     C_1   0.828801 0.027241 0.310120 0.259581
N5    N     N_1   0.780475 0.075885 0.229751 -0.268681
Br3   Br    Br    0.105984 0.717783 0.249026 -0.453300
C50   C     C_1   0.877205 0.824300 0.632542 0.237545
N6    N     N_1   0.826331 0.741582 0.654822 -0.298624
C51   C     C_1   0.134699 0.187795 0.372435 0.242487
N7    N     N_1   0.165224 0.245974 0.295917 -0.253029

loop_
_geom_bond_atom_site_label_1
_geom_bond_atom_site_label_2
_ccdc_geom_bond_type
C45   H23   S    
Cu2   O2    S    
C19   C20   A    
Cu1   O5    S    
C7    C8    A    
C45   C46   S    
C36   Br2   S    
C7    C11   A    
C43   C49   S    
C40   H15   S    
C30   C35   A    
C1    C5    S    
C21   C22   A    
C36   C37   A    
C19   C21   A    
C18   C19   A    
C30   C31   A    
C15   C16   A    
C6    C22   A    
C29   C33   A    
C26   N1    A    
C8    H7    S    
C38   C41   A    
C42   C46   S    
Cu2   O4    S    
C20   C24   A    
C18   H5    S    
C41   N2    A    
Cu1   Cu2   S    
C40   N2    A    
C12   O4    A    
C44   H22   S    
C34   O7    A    
C23   O6    A    
C24   Br1   S    
C2    C34   S    
C22   C48   S    
C43   H21   S    
C13   C14   A    
C26   H17   S    
C41   H14   S    
C45   C51   S    
C42   H9    S    
C39   Br3   S    
C44   C46   S    
C4    C45   S    
C25   C29   A    
C3    C44   S    
C1    O1    A    
C14   C20   A    
C21   H12   S    
C12   C46   S    
C39   C40   A    
C48   N4    T    
C25   C26   A    
C4    H2    S    
C3    C50   S    
C35   C36   A    
C2    C4    S    
C5    C9    A    
C37   C38   A    
C11   C16   A    
C47   N3    T    
C2    C43   S    
C6    C24   A    
C12   O3    A    
C17   C18   A    
C9    H8    S    
C17   H11   S    
C32   H19   S    
C44   H3    S    
C3    C47   S    
C15   H10   S    
C42   C43   S    
Cu1   O3    S    
C4    H24   S    
C9    C10   A    
C28   C29   A    
C1    O2    A    
Cu2   N1    S    
C31   C32   A    
C16   H4    S    
Cu1   N2    S    
C10   C13   A    
C5    C8    A    
C31   C38   A    
C13   C17   A    
C32   C33   A    
Cu2   O6    S    
C28   C30   A    
C2    C3    S    
Cu1   O1    S    
C37   C39   A    
C27   H18   S    
C35   H20   S    
C6    C23   S    
C50   N6    T    
Cu2   O8    S    
Cu1   O7    S    
C51   N7    T    
C10   C11   A    
C42   H1    S    
C33   H13   S    
C27   C28   A    
C14   C15   A    
C34   O8    A    
C7    H6    S    
C23   O5    A    
C49   N5    T    
C27   N1    A    
C25   H16   S    
