data_mof_unit_5187.cif
_audit_creation_date              2013-03-05T16:43:02-0500
_audit_creation_method            fapswitch 2.2
_symmetry_space_group_name_H-M    P1
_symmetry_Int_Tables_number       1
_space_group_crystal_system       triclinic
_cell_length_a                    10.716319
_cell_length_b                    10.694243
_cell_length_c                    9.854063
_cell_angle_alpha                 90.700421
_cell_angle_beta                  90.528949
_cell_angle_gamma                 91.018862
_cell_volume                      1128.99104328

loop_
_atom_site_label
_atom_site_type_symbol
_atom_site_description
_atom_site_fract_x
_atom_site_fract_y
_atom_site_fract_z
_atom_type_partial_charge
O1    O     O_R   0.500020 0.316790 0.614690 -0.605074
O2    O     O_R   0.500000 0.316760 0.385350 -0.622511
C1    C     C_R   0.503447 0.259985 0.499190 0.946006
O3    O     O_R   0.314800 0.500000 0.614670 -0.599721
O4    O     O_R   0.314790 0.499960 0.385330 -0.634787
C2    C     C_R   0.258017 0.497292 0.499337 0.951264
Zn1   Zn    Zn3+2 0.500010 0.500020 0.653130 1.055432
Zn2   Zn    Zn3+2 0.499990 0.499980 0.346870 1.002938
O5    O     O_R   0.500000 0.683240 0.614650 -0.624261
O6    O     O_R   0.499980 0.683210 0.385310 -0.624064
O7    O     O_R   0.685210 0.500040 0.614670 -0.547131
O8    O     O_R   0.685200 0.500000 0.385330 -0.618540
C3    C     C_R   0.505021 0.740386 0.500708 0.949479
C4    C     C_R   0.742542 0.500978 0.501089 0.940218
C5    C     C_3   0.072702 0.392766 0.595345 0.074977
H1    H     H_    0.109784 0.413165 0.698100 0.195621
C6    C     C_3   0.928330 0.393278 0.596267 0.061859
H2    H     H_    0.894480 0.305841 0.544307 0.165135
C7    C     C_3   0.080275 0.631317 0.547431 -0.018155
C8    C     C_3   0.068777 0.475649 0.354109 -0.397450
C9    C     C_3   0.122190 0.497982 0.499879 -0.218193
H3    H     H_    0.098812 0.552801 0.286233 0.228902
H4    H     H_    0.104297 0.388558 0.307774 0.265984
C10   C     C_3   0.879351 0.503355 0.504602 -0.240601
C11   C     C_3   0.933598 0.640715 0.540639 0.409815
C12   C     C_3   0.926501 0.469558 0.358093 -0.426967
H5    H     H_    0.893702 0.373967 0.326792 0.226278
H6    H     H_    0.889102 0.533008 0.279510 0.263329
H7    H     H_    0.122531 0.696647 0.473441 0.176446
C13   C     C_R   0.550996 0.067389 0.616310 0.119023
C14   C     C_R   0.524619 0.129309 0.496761 -0.101904
C15   C     C_R   0.526864 0.063490 0.373292 -0.132570
H8    H     H_    0.518576 0.110228 0.277035 0.218937
C16   C     C_R   0.527136 0.934379 0.374650 -0.100197
H9    H     H_    0.516860 0.884481 0.278732 0.183224
C17   C     C_R   0.528384 0.872202 0.499738 -0.074007
C18   C     C_R   0.558594 0.939943 0.618353 0.132496
C19   C     C_3   0.510352 0.935488 0.760941 -0.266079
C20   C     C_3   0.495292 0.076419 0.753855 -0.397475
H10   H     H_    0.421693 0.881580 0.772675 0.229062
H11   H     H_    0.395920 0.103685 0.749831 0.247896
H12   H     H_    0.554870 0.133072 0.825437 0.237248
C21   C     C_R   0.448771 0.401363 0.069466 0.149509
N1    N     N_R   0.499150 0.499140 0.142800 -0.141541
C22   C     C_R   0.564470 0.588754 0.073798 -0.087672
H13   H     H_    0.614517 0.661908 0.129509 0.179605
C23   C     C_R   0.565394 0.587646 0.929700 -0.023247
H14   H     H_    0.617212 0.657783 0.875911 0.181418
N2    N     N_R   0.499150 0.499180 0.857150 -0.107721
C24   C     C_R   0.446171 0.403171 0.926828 0.174397
C25   C     C_3   0.312642 0.362181 0.920282 -0.496407
C26   C     C_3   0.316913 0.354820 0.074315 0.081267
H15   H     H_    0.251315 0.437338 0.883570 0.233243
H16   H     H_    0.299115 0.270820 0.867565 0.258984
H17   H     H_    0.253085 0.419976 0.126689 0.133473
N3    N     N_R   0.894414 0.726031 0.430494 0.197312
O9    O     O_R   0.780166 0.764787 0.426713 -0.399725
O10   O     O_R   0.968962 0.761628 0.334132 -0.357312
C27   C     C_1   0.608878 0.904290 0.859266 0.295539
N4    N     N_1   0.686847 0.882245 0.936995 -0.110272
N5    N     N_R   0.119263 0.268450 0.556798 0.216559
O11   O     O_R   0.199432 0.213729 0.634914 -0.394279
O12   O     O_R   0.074973 0.207347 0.451418 -0.314431
N6    N     N_R   0.308873 0.226123 0.123015 0.242349
O13   O     O_R   0.373774 0.137903 0.066983 -0.411694
O14   O     O_R   0.236520 0.198965 0.223915 -0.310967
N7    N     N_R   0.876464 0.385142 0.734430 0.261054
O15   O     O_R   0.939214 0.425247 0.840498 -0.299168
O16   O     O_R   0.782478 0.308963 0.754625 -0.369514
N8    N     N_R   0.134608 0.671417 0.679600 0.241856
O17   O     O_R   0.103599 0.618004 0.792469 -0.322398
O18   O     O_R   0.211358 0.767060 0.684876 -0.361022
N9    N     N_R   0.887961 0.696959 0.668617 0.234486
O19   O     O_R   0.833243 0.632566 0.762248 -0.331512
O20   O     O_R   0.908261 0.815793 0.691794 -0.274049

loop_
_geom_bond_atom_site_label_1
_geom_bond_atom_site_label_2
_geom_bond_distance
_ccdc_geom_bond_type
N9    O19   1.296340 A    
C11   N3    1.488707 S    
C23   N2    1.363935 A    
C22   H13   1.081750 S    
Zn1   O7    2.023953 S    
C12   H5    1.114106 S    
O4    C2    1.282904 A    
C17   C18   1.399920 A    
C7    C9    1.570000 S    
C10   C12   1.573988 S    
O1    C1    1.284688 A    
C13   C14   1.387715 A    
O7    C4    1.281798 A    
C21   C26   1.491140 S    
C5    H1    1.102208 S    
N3    O9    1.299878 A    
C5    C6    1.547351 S    
C16   H9    1.083466 S    
C4    C10   1.465933 S    
N5    O12   1.301494 A    
O5    C3    1.285983 A    
C23   H14   1.073416 S    
N8    O17   1.299754 A    
C16   C17   1.407734 A    
C26   H17   1.111045 S    
C27   N4    1.157573 T    
N9    O20   1.302563 A    
O3    Zn1   2.017186 S    
C6    H2    1.113964 S    
C20   H12   1.113428 S    
C22   C23   1.419982 A    
C6    N7    1.478251 S    
C6    C10   1.586313 S    
C25   C26   1.521159 S    
C10   C11   1.604671 S    
Zn1   N2    2.010661 S    
C3    C17   1.427506 S    
C20   H11   1.109577 S    
C26   N6    1.464468 S    
C2    C9    1.455779 S    
N7    O15   1.301676 A    
C13   C18   1.367197 A    
C25   H15   1.109178 S    
C15   C16   1.381035 A    
C21   N1    1.364297 A    
C18   C19   1.502638 S    
C14   C15   1.398758 A    
C8    H4    1.107344 S    
Zn2   O8    2.017184 S    
C24   C25   1.489697 S    
C5    N5    1.474939 S    
C1    C14   1.419699 S    
O3    C2    1.283957 A    
C8    H3    1.113440 S    
C7    H7    1.109988 S    
N1    C22   1.368076 A    
Zn1   O5    2.000298 S    
O1    Zn1   1.991233 S    
O2    Zn2   2.000298 S    
Zn2   N1    2.010765 S    
O8    C4    1.290524 A    
O6    C3    1.284750 A    
O4    Zn2   2.023955 S    
C21   C24   1.405963 A    
C12   H6    1.112416 S    
C25   H16   1.107543 S    
C15   H8    1.081210 S    
O2    C1    1.282621 A    
N6    O13   1.302442 A    
C19   H10   1.110219 S    
C19   C20   1.521001 S    
C8    C12   1.525800 S    
N3    O10   1.302624 A    
C13   C20   1.488791 S    
C11   N9    1.481439 S    
N5    O11   1.299903 A    
C7    C11   1.577680 S    
C19   C27   1.471883 S    
C5    C9    1.564026 S    
C8    C9    1.555494 S    
Zn2   O6    1.991233 S    
N2    C24   1.360761 A    
C7    N8    1.477370 S    
N8    O18   1.301286 A    
N7    O16   1.302391 A    
N6    O14   1.298996 A    
