data_mof_unit_51562.cif
_audit_creation_date              2012-12-10T17:46:31-0500
_audit_creation_method            fapswitch 2.2
_symmetry_space_group_name_H-M    P1
_symmetry_Int_Tables_number       1
_space_group_crystal_system       triclinic
_cell_length_a                    20.778242
_cell_length_b                    21.14524
_cell_length_c                    14.741231
_cell_angle_alpha                 90.619154
_cell_angle_beta                  128.032722
_cell_angle_gamma                 89.715592
_cell_volume                      5101.13782015

loop_
_atom_site_label
_atom_site_type_symbol
_atom_type_description
_atom_site_fract_x
_atom_site_fract_y
_atom_site_fract_z
_atom_type_partial_charge
C1    C     C_R   0.602820 0.913710 0.631213 0.803213
C2    C     C_R   0.397180 0.086290 0.368787 0.803213
C3    C     C_R   0.397705 0.913062 0.368865 0.801214
C4    C     C_R   0.602295 0.086938 0.631135 0.801212
C5    C     C_R   0.103380 0.414178 0.631917 0.803826
C6    C     C_R   0.896620 0.585822 0.368083 0.803827
C7    C     C_R   0.895756 0.414611 0.366467 0.803671
C8    C     C_R   0.104244 0.585389 0.633533 0.803670
C9    C     C_R   0.374003 0.733532 0.982576 -0.314621
C10   C     C_R   0.625998 0.266467 0.017426 -0.314622
C11   C     C_R   0.673056 0.776123 0.078517 -0.319912
C12   C     C_R   0.326948 0.223880 0.921489 -0.319912
C13   C     C_R   0.788004 0.306457 0.871769 -0.312872
C14   C     C_R   0.211994 0.693544 0.128229 -0.312872
C15   C     C_R   0.181795 0.283029 0.090117 -0.318375
C16   C     C_R   0.818204 0.716970 0.909882 -0.318376
C17   C     C_R   0.322081 0.005260 0.665492 -0.315926
C18   C     C_R   0.677919 0.994740 0.334508 -0.315927
C19   C     C_R   0.823611 0.516377 0.666704 -0.315934
C20   C     C_R   0.176389 0.483623 0.333296 -0.315934
C21   C     C_R   0.351746 0.003054 0.602768 0.074954
C22   C     C_R   0.648254 0.996946 0.397232 0.074954
C23   C     C_R   0.852529 0.509395 0.603444 0.067837
C24   C     C_R   0.147471 0.490605 0.396556 0.067838
C25   C     C_R   0.488153 0.998484 0.775355 0.046362
C26   C     C_R   0.511847 0.001516 0.224645 0.046360
C27   C     C_R   0.987678 0.495071 0.775098 0.047427
C28   C     C_R   0.012322 0.504929 0.224902 0.047427
C29   C     C_R   0.461833 0.000158 0.844736 -0.025337
C30   C     C_R   0.538166 0.999842 0.155264 -0.025337
C31   C     C_R   0.961739 0.500296 0.844738 -0.024636
C32   C     C_R   0.038261 0.499704 0.155262 -0.024636
C33   C     C_R   0.376627 0.004095 0.786201 0.159783
C34   C     C_R   0.623373 0.995904 0.213799 0.159783
C35   C     C_R   0.877941 0.512916 0.787207 0.152893
C36   C     C_R   0.122059 0.487084 0.212793 0.152893
C37   C     C_R   0.516176 0.998503 0.968696 0.070017
C38   C     C_R   0.483824 0.001497 0.031304 0.070018
C39   C     C_R   0.015440 0.494921 0.968242 0.058938
C40   C     C_R   0.984560 0.505079 0.031758 0.058938
C41   C     C_R   0.398364 0.006186 0.967845 -0.226064
C42   C     C_R   0.601636 0.993814 0.032155 -0.226064
C43   C     C_R   0.901281 0.520701 0.969709 -0.239618
C44   C     C_R   0.098719 0.479299 0.030291 -0.239617
C45   C     C_R   0.346194 0.007186 0.848131 -0.197926
C46   C     C_R   0.653806 0.992814 0.151869 -0.197927
C47   C     C_R   0.849025 0.523264 0.850084 -0.198707
C48   C     C_R   0.150974 0.476736 0.149916 -0.198706
C49   C     C_R   0.654223 0.141927 0.696949 -0.091988
C50   C     C_R   0.345777 0.858073 0.303051 -0.091988
C51   C     C_R   0.341295 0.137972 0.298708 -0.090165
C52   C     C_R   0.658705 0.862028 0.701292 -0.090165
C53   C     C_R   0.171349 0.627981 0.718338 -0.091973
C54   C     C_R   0.828651 0.372018 0.281662 -0.091973
C55   C     C_R   0.838546 0.635808 0.295182 -0.089100
C56   C     C_R   0.161454 0.364192 0.704819 -0.089101
C57   C     C_R   0.745016 0.225587 0.727795 -0.166405
C58   C     C_R   0.254982 0.774414 0.272203 -0.166406
C59   C     C_R   0.249041 0.221632 0.263302 -0.169973
C60   C     C_R   0.750957 0.778367 0.736697 -0.169973
C61   C     C_R   0.301162 0.678275 0.799763 -0.165253
C62   C     C_R   0.698839 0.321723 0.200239 -0.165254
C63   C     C_R   0.742990 0.717592 0.255130 -0.167956
C64   C     C_R   0.257013 0.282411 0.744874 -0.167956
C65   C     C_R   0.700427 0.171056 0.669199 -0.182822
C66   C     C_R   0.299572 0.828945 0.330799 -0.182823
C67   C     C_R   0.300816 0.172266 0.331651 -0.184077
C68   C     C_R   0.699183 0.827732 0.668348 -0.184077
C69   C     C_R   0.234374 0.642606 0.712406 -0.187723
C70   C     C_R   0.765627 0.357393 0.287595 -0.187723
C71   C     C_R   0.797204 0.670098 0.326689 -0.194767
C72   C     C_R   0.202798 0.329903 0.673314 -0.194766
C73   C     C_R   0.652729 0.168257 0.783022 -0.158997
C74   C     C_R   0.347271 0.831742 0.216978 -0.158998
C75   C     C_R   0.331083 0.154541 0.199210 -0.153507
C76   C     C_R   0.668919 0.845460 0.800791 -0.153506
C77   C     C_R   0.175941 0.649606 0.812052 -0.161913
C78   C     C_R   0.824058 0.350394 0.187948 -0.161913
C79   C     C_R   0.826257 0.650223 0.193417 -0.145252
C80   C     C_R   0.173743 0.349778 0.806584 -0.145252
C81   C     C_R   0.691456 0.226155 0.836149 0.101741
C82   C     C_R   0.308544 0.773845 0.163851 0.101741
C83   C     C_R   0.287264 0.208699 0.136868 0.100583
C84   C     C_R   0.712737 0.791302 0.863134 0.100583
C85   C     C_R   0.246152 0.680383 0.906190 0.099680
C86   C     C_R   0.753848 0.319616 0.093810 0.099680
C87   C     C_R   0.780368 0.703002 0.127877 0.096745
C88   C     C_R   0.219633 0.297000 0.872125 0.096745
C89   C     C_R   0.741715 0.252821 0.812029 0.097052
C90   C     C_R   0.258283 0.747179 0.187969 0.097052
C91   C     C_R   0.240727 0.239131 0.164924 0.099337
C92   C     C_R   0.759272 0.760869 0.835076 0.099337
C93   C     C_R   0.307208 0.697649 0.896125 0.099489
C94   C     C_R   0.692792 0.302350 0.103877 0.099490
C95   C     C_R   0.733359 0.733520 0.155141 0.099175
C96   C     C_R   0.266645 0.266482 0.844863 0.099175
C97   C     C_R   0.685580 0.256034 0.917677 -0.048988
C98   C     C_R   0.314420 0.743965 0.082324 -0.048988
C99   C     C_R   0.284486 0.230815 0.043526 -0.048044
C100  C     C_R   0.715515 0.769187 0.956477 -0.048044
C101  C     C_R   0.255089 0.697424 0.007004 -0.047935
C102  C     C_R   0.744911 0.302576 0.992996 -0.047935
C103  C     C_R   0.776624 0.724056 0.033103 -0.047089
C104  C     C_R   0.223377 0.275945 0.966898 -0.047089
C105  C     C_R   0.378640 0.757141 0.075720 0.404201
C106  C     C_R   0.621361 0.242857 0.924281 0.404201
C107  C     C_R   0.658703 0.789859 0.974820 0.400660
C108  C     C_R   0.341301 0.210144 0.025185 0.400661
C109  C     C_R   0.790887 0.331639 0.962555 0.403724
C110  C     C_R   0.209112 0.668362 0.037444 0.403724
C111  C     C_R   0.167206 0.297081 0.986318 0.400046
C112  C     C_R   0.832793 0.702919 0.013682 0.400046
Cu1   Cu    Cu3+1 0.526640 0.000000 0.436960 0.954520
Cu2   Cu    Cu3+1 0.473360 0.000000 0.563040 0.954521
Cu3   Cu    Cu3+1 0.026640 0.500000 0.436960 0.952220
Cu4   Cu    Cu3+1 0.973360 0.500000 0.563040 0.952220
H1    H     H_    0.422502 0.743918 0.976943 0.138856
H2    H     H_    0.577499 0.256080 0.023060 0.138855
H3    H     H_    0.632873 0.795299 0.095531 0.137517
H4    H     H_    0.367132 0.204705 0.904475 0.137517
H5    H     H_    0.823185 0.328424 0.848795 0.143972
H6    H     H_    0.176812 0.671577 0.151202 0.143972
H7    H     H_    0.142168 0.302500 0.107919 0.143404
H8    H     H_    0.857830 0.697498 0.892079 0.143405
H9    H     H_    0.369508 0.009286 0.008322 0.134551
H10   H     H_    0.630492 0.990714 0.991678 0.134551
H11   H     H_    0.874277 0.530980 0.011406 0.166492
H12   H     H_    0.125723 0.469021 0.988594 0.166492
H13   H     H_    0.376781 0.858202 0.189676 0.199727
H14   H     H_    0.623220 0.141797 0.810325 0.199727
H15   H     H_    0.645433 0.877469 0.831373 0.196435
H16   H     H_    0.354570 0.122533 0.168629 0.196435
H17   H     H_    0.877080 0.356485 0.191528 0.201975
H18   H     H_    0.122919 0.643516 0.808471 0.201975
H19   H     H_    0.150095 0.382466 0.835966 0.198329
H20   H     H_    0.849904 0.617534 0.164034 0.198328
H21   H     H_    0.297608 0.848342 0.397355 0.160289
H22   H     H_    0.702390 0.151659 0.602643 0.160289
H23   H     H_    0.692257 0.839865 0.591561 0.159762
H24   H     H_    0.307740 0.160133 0.408436 0.159762
H25   H     H_    0.767698 0.373684 0.359264 0.158329
H26   H     H_    0.232303 0.626315 0.640738 0.158329
H27   H     H_    0.194652 0.340662 0.595149 0.155396
H28   H     H_    0.805351 0.659340 0.404855 0.155397
H29   H     H_    0.348548 0.690151 0.792600 0.143632
H30   H     H_    0.651453 0.309847 0.207403 0.143632
H31   H     H_    0.708227 0.741621 0.277506 0.139186
H32   H     H_    0.291778 0.258382 0.722500 0.139187
H33   H     H_    0.781935 0.246589 0.707037 0.141433
H34   H     H_    0.218062 0.753413 0.292960 0.141434
H35   H     H_    0.214782 0.245651 0.286529 0.136303
H36   H     H_    0.785215 0.754347 0.713468 0.136303
H37   H     H_    0.280969 0.010634 0.803365 0.142321
H38   H     H_    0.719031 0.989366 0.196635 0.142321
H39   H     H_    0.785194 0.534318 0.806257 0.155422
H40   H     H_    0.214806 0.465682 0.193743 0.155421
H41   H     H_    0.448231 0.003424 0.187513 0.117124
H42   H     H_    0.551769 0.996575 0.812487 0.117124
H43   H     H_    0.949017 0.510929 0.187671 0.139193
H44   H     H_    0.050983 0.489071 0.812329 0.139193
H45   H     H_    0.690413 0.995670 0.490308 0.121995
H46   H     H_    0.309587 0.004330 0.509691 0.121994
H47   H     H_    0.189324 0.486729 0.489350 0.126931
H48   H     H_    0.810676 0.513271 0.510650 0.126931
H49   H     H_    0.256721 0.008144 0.619782 0.138247
H50   H     H_    0.743279 0.991856 0.380218 0.138247
H51   H     H_    0.759186 0.525451 0.621655 0.144115
H52   H     H_    0.240814 0.474548 0.378345 0.144115
N1    N     N_R   0.433280 0.000000 0.657760 -0.175238
N2    N     N_R   0.566720 0.000000 0.342240 -0.175238
N3    N     N_R   0.933280 0.500000 0.657760 -0.180199
N4    N     N_R   0.066720 0.500000 0.342240 -0.180199
O1    O     O_R   0.600040 0.935040 0.546740 -0.585963
O2    O     O_R   0.399960 0.064960 0.453260 -0.585963
O3    O     O_R   0.399960 0.935040 0.453260 -0.582646
O4    O     O_R   0.600040 0.064960 0.546740 -0.582646
O5    O     O_R   0.100040 0.435040 0.546740 -0.592471
O6    O     O_R   0.899960 0.564960 0.453260 -0.592471
O7    O     O_R   0.899960 0.435040 0.453260 -0.580096
O8    O     O_R   0.100040 0.564960 0.546740 -0.580096
O9    O     O_R   0.555010 0.935070 0.653220 -0.578449
O10   O     O_R   0.444990 0.064930 0.346780 -0.578449
O11   O     O_R   0.444990 0.935070 0.346780 -0.582412
O12   O     O_R   0.555010 0.064930 0.653220 -0.582411
O13   O     O_R   0.055010 0.435070 0.653220 -0.576988
O14   O     O_R   0.944990 0.564930 0.346780 -0.576987
O15   O     O_R   0.944990 0.435070 0.346780 -0.580214
O16   O     O_R   0.055010 0.564930 0.653220 -0.580214
O17   O     O_3   0.448946 0.787560 0.165880 -0.747454
H53   H     H_    0.487210 0.792487 0.147471 0.319426
O18   O     O_3   0.551055 0.212438 0.834122 -0.747453
H54   H     H_    0.512791 0.207510 0.852533 0.319425
O19   O     O_3   0.586313 0.818890 0.887941 -0.750586
H55   H     H_    0.554375 0.829859 0.915346 0.323282
O20   O     O_3   0.413691 0.181115 0.112066 -0.750585
H56   H     H_    0.445631 0.170147 0.084662 0.323282
O21   O     O_3   0.831750 0.387903 0.014052 -0.760630
H57   H     H_    0.863511 0.399421 0.987007 0.328249
O22   O     O_3   0.168247 0.612098 0.985946 -0.760630
H58   H     H_    0.136487 0.600580 0.012991 0.328249
O23   O     O_3   0.094966 0.326616 0.900358 -0.758455
H59   H     H_    0.063404 0.337578 0.928357 0.324452
O24   O     O_3   0.905033 0.673383 0.099641 -0.758455
H60   H     H_    0.936594 0.662420 0.071641 0.324452

loop_
_geom_bond_atom_site_label_1
_geom_bond_atom_site_label_2
_ccdc_geom_bond_type
C72   H27   S    
O24   H60   S    
C88   C96   A    
C14   H6    S    
Cu4   O6    S    
Cu2   N1    S    
C33   C45   A    
O23   H59   S    
C5    C56   S    
C109  O21   S    
C5    O13   A    
C6    C55   S    
C53   C69   A    
C76   C84   A    
C79   C87   A    
C13   H5    S    
C18   H50   S    
C61   C69   A    
C8    O16   A    
C99   C108  A    
Cu4   O16   S    
C1    O1    A    
C80   H19   S    
C19   H51   S    
C10   H2    S    
C32   C36   A    
C7    O15   A    
C51   C75   A    
C23   H48   S    
C1    C52   S    
C50   C74   A    
C60   H36   S    
C76   H15   S    
C21   N1    A    
C70   H25   S    
C10   C94   A    
C9    C105  A    
Cu3   Cu4   S    
C63   C95   A    
C55   C79   A    
C62   C70   A    
C26   H41   S    
C14   C110  A    
C2    O10   A    
C63   H31   S    
C37   C42   A    
C61   H29   S    
C14   C90   A    
C13   C109  A    
C86   C94   A    
C59   C67   A    
C12   H4    S    
C85   C93   A    
C28   N4    A    
C40   C43   A    
C20   C24   A    
C29   C33   A    
C56   C72   A    
C61   C93   A    
C57   H33   S    
C34   C46   A    
O21   H57   S    
C43   C47   A    
C97   C102  A    
C52   C68   A    
C112  O24   S    
C81   C89   A    
C78   C86   A    
C32   C40   A    
C99   C104  A    
C48   H40   S    
C35   C47   A    
O22   H58   S    
C83   C99   A    
C6    O6    A    
C82   C98   A    
C111  O23   S    
C15   H7    S    
C17   C33   A    
C106  O18   S    
C74   C82   A    
C20   H52   S    
C73   C81   A    
C88   C104  A    
C3    C50   S    
C58   C66   A    
C60   C92   A    
C25   C29   A    
C46   H38   S    
C30   C34   A    
C27   C31   A    
O18   H54   S    
C84   C100  A    
C15   C111  A    
C28   C32   A    
C102  C109  A    
C64   C96   A    
C38   C41   A    
C11   H3    S    
C43   H11   S    
C39   C40   A    
C12   C108  A    
C22   H45   S    
C1    O9    A    
C51   C67   A    
C69   H26   S    
C27   H44   S    
C100  C103  A    
C17   C21   A    
Cu4   N3    S    
C87   C95   A    
C103  C112  A    
C19   C23   A    
C37   C38   A    
C49   C65   A    
C41   H9    S    
C22   N2    A    
Cu3   O15   S    
C8    O8    A    
C28   H43   S    
C98   C105  A    
Cu1   O10   S    
C54   C70   A    
C57   C65   A    
C4    O4    A    
C7    O7    A    
C59   C91   A    
C82   C90   A    
C4    O12   A    
C108  O20   S    
C67   H24   S    
C18   C34   A    
C5    O5    A    
Cu3   O5    S    
C57   C89   A    
C58   C90   A    
Cu1   O4    S    
C87   C103  A    
C65   H22   S    
C3    O3    A    
Cu2   O3    S    
C79   H20   S    
C26   C30   A    
C62   C94   A    
C42   C46   A    
C53   C77   A    
C49   C73   A    
C10   C106  A    
C24   H47   S    
C45   H37   S    
C77   H18   S    
C97   C106  A    
C86   C102  A    
C9    C93   A    
C107  O19   S    
C85   C101  A    
C75   H16   S    
C16   C112  A    
Cu1   O1    S    
Cu1   Cu2   S    
C11   C95   A    
Cu3   O14   S    
C73   H14   S    
C44   H12   S    
C100  C107  A    
C21   H46   S    
C13   C89   A    
C110  O22   S    
C18   C22   A    
Cu3   O8    S    
C63   C71   A    
Cu3   N4    S    
C52   C76   A    
C56   C80   A    
C8    C53   S    
C104  C111  A    
C50   C66   A    
C16   C92   A    
C39   C44   A    
C59   H35   S    
Cu2   O9    S    
C83   C91   A    
Cu4   O13   S    
C6    O14   A    
C7    C54   S    
C98   C101  A    
C4    C49   S    
C60   C68   A    
C25   N1    A    
C101  C110  A    
C80   C88   A    
C17   H49   S    
C2    O2    A    
C11   C107  A    
C75   C83   A    
Cu1   O11   S    
C66   H21   S    
C47   H39   S    
C77   C85   A    
Cu2   O12   S    
C31   C35   A    
C81   C97   A    
C105  O17   S    
C31   C39   A    
C36   C48   A    
Cu1   N2    S    
C64   C72   A    
C16   H8    S    
O17   H53   S    
C24   N4    A    
C78   H17   S    
C55   C71   A    
C2    C51   S    
C42   H10   S    
C15   C91   A    
O20   H56   S    
C20   C36   A    
C44   C48   A    
Cu2   O2    S    
C23   N3    A    
C26   N2    A    
O19   H55   S    
C62   H30   S    
C74   H13   S    
C29   C37   A    
C25   H42   S    
C41   C45   A    
C12   C96   A    
C68   H23   S    
C19   C35   A    
C84   C92   A    
C30   C38   A    
Cu4   O7    S    
C27   N3    A    
C3    O11   A    
C64   H32   S    
C9    H1    S    
C58   H34   S    
C71   H28   S    
C54   C78   A    
