data_mof_unit_13056.cif
_audit_creation_date              2012-12-10T19:06:30-0500
_audit_creation_method            fapswitch 2.2
_symmetry_space_group_name_H-M    P1
_symmetry_Int_Tables_number       1
_space_group_crystal_system       triclinic
_cell_length_a                    23.451614
_cell_length_b                    10.838319
_cell_length_c                    9.558199
_cell_angle_alpha                 89.906171
_cell_angle_beta                  89.357485
_cell_angle_gamma                 90.303114
_cell_volume                      2429.27524318

loop_
_atom_site_label
_atom_site_type_symbol
_atom_type_description
_atom_site_fract_x
_atom_site_fract_y
_atom_site_fract_z
_atom_type_partial_charge
C1    C     C_R   0.500847 0.262293 0.499604 0.834581
C2    C     C_R   0.120855 0.493996 0.373584 0.547620
C3    C     C_R   0.238989 0.603448 0.476087 -0.142721
C4    C     C_R   0.391297 0.499215 0.500483 0.873729
C5    C     C_R   0.298445 0.606648 0.476236 -0.141852
C6    C     C_R   0.329013 0.497346 0.500400 -0.176616
C7    C     C_R   0.299816 0.384331 0.518929 0.410721
C8    C     C_R   0.239855 0.382727 0.522137 -0.082745
C9    C     C_R   0.209587 0.492625 0.499784 0.235754
C10   C     C_R   0.760169 0.404622 0.439968 -0.087924
C11   C     C_R   0.700765 0.404816 0.441016 -0.211819
C12   C     C_R   0.968481 0.498199 0.750611 -0.158597
C13   C     C_R   0.670986 0.505373 0.496792 -0.040892
C14   C     C_R   0.701119 0.608311 0.548238 -0.053475
C15   C     C_R   0.760744 0.607638 0.546436 -0.133207
C16   C     C_R   0.500877 0.737535 0.499953 0.867306
C17   C     C_R   0.790393 0.505596 0.493387 0.328095
C18   C     C_R   0.504420 0.063574 0.623625 -0.034786
C19   C     C_R   0.506258 0.129006 0.497801 -0.172595
C20   C     C_R   0.516176 0.063511 0.371685 0.472900
C21   C     C_R   0.514917 0.934651 0.373780 -0.303519
C22   C     C_R   0.506191 0.870501 0.499797 -0.097791
C23   C     C_R   0.027958 0.495987 0.751621 -0.157496
C24   C     C_R   0.504671 0.936586 0.624925 0.062826
C25   C     C_3   0.463255 0.930026 0.745038 0.337031
C26   C     C_3   0.462439 0.070289 0.742003 -0.449515
C27   C     C_R   0.546667 0.539892 0.071991 0.252738
C28   C     C_R   0.608746 0.501495 0.499133 0.789165
C29   C     C_R   0.457729 0.443898 0.077137 -0.088751
C30   C     C_R   0.457823 0.442243 0.928819 0.017160
C31   C     C_R   0.546795 0.539594 0.925127 0.170936
C32   C     C_3   0.575652 0.662261 0.917962 -0.519905
C33   C     C_3   0.574777 0.663105 0.077615 0.266626
C34   C     C_R   0.059237 0.495383 0.625389 -0.017119
C35   C     C_R   0.881095 0.504381 0.369645 0.535227
C36   C     C_R   0.879267 0.502096 0.619756 0.537911
C37   C     C_R   0.939050 0.500086 0.623347 -0.014165
C38   C     C_R   0.969989 0.499514 0.496179 -0.016241
C39   C     C_R   0.940912 0.501525 0.368017 -0.013668
C40   C     C_1   0.671799 0.717063 0.597450 0.208958
C41   C     C_3   0.577617 0.128156 0.201822 -0.289414
C42   C     C_3   0.378761 0.844314 0.823702 -0.240301
C43   C     C_1   0.412568 0.374600 0.863749 0.296327
C44   C     C_3   0.649202 0.769618 0.177036 -0.262828
C45   C     C_R   0.030151 0.496995 0.497178 -0.017437
C46   C     C_1   0.327281 0.722757 0.450334 0.290055
C47   C     C_3   0.340373 0.218688 0.412446 -0.285633
C48   C     C_1   0.209530 0.268298 0.547170 0.349391
C49   C     C_R   0.061089 0.496306 0.369957 -0.016144
C50   C     C_R   0.031668 0.498153 0.242720 -0.157653
C51   C     C_R   0.972199 0.500848 0.241757 -0.160573
C52   C     C_R   0.119057 0.493606 0.623705 0.555383
Cu1   Cu    Cu3+1 0.500000 0.499980 0.640670 0.979242
Cu2   Cu    Cu3+1 0.500000 0.500020 0.359330 0.977520
H1    H     H_    0.945691 0.498549 0.849808 0.186521
H2    H     H_    0.619221 0.655491 0.871877 0.238529
H3    H     H_    0.548542 0.734450 0.871107 0.169436
H4    H     H_    0.546388 0.733927 0.125121 0.078780
H5    H     H_    0.054463 0.497689 0.143530 0.186815
H6    H     H_    0.950874 0.502327 0.141833 0.183952
H7    H     H_    0.215140 0.687272 0.457873 0.161999
H8    H     H_    0.782803 0.325590 0.398666 0.147679
H9    H     H_    0.604328 0.175787 0.281033 0.151061
H10   H     H_    0.580925 0.182036 0.103244 0.193026
H11   H     H_    0.594401 0.034237 0.180208 0.136255
H12   H     H_    0.677946 0.325742 0.400226 0.130908
H13   H     H_    0.371754 0.925060 0.893550 0.163276
H14   H     H_    0.399795 0.768161 0.881503 0.150258
H15   H     H_    0.336382 0.810253 0.790129 0.198182
H16   H     H_    0.623472 0.803936 0.267224 0.145695
H17   H     H_    0.648576 0.836935 0.088960 0.152733
H18   H     H_    0.693938 0.761283 0.212196 0.203050
H19   H     H_    0.365348 0.133715 0.431381 0.210285
H20   H     H_    0.366060 0.278458 0.340793 0.156372
H21   H     H_    0.299884 0.190840 0.361491 0.170248
H22   H     H_    0.784348 0.686441 0.585388 0.150798
H23   H     H_    0.518027 0.886056 0.275473 0.162118
H24   H     H_    0.482917 0.890215 0.840526 0.060001
H25   H     H_    0.420921 0.109441 0.709386 0.248279
H26   H     H_    0.481188 0.112676 0.836925 0.171096
H27   H     H_    0.423390 0.399808 0.135411 0.150866
H28   H     H_    0.049294 0.494741 0.851536 0.183835
N1    N     N_R   0.851596 0.504302 0.494233 -0.467782
N2    N     N_R   0.148416 0.492729 0.499092 -0.458990
N3    N     N_R   0.500360 0.500930 0.147930 -0.225623
N4    N     N_R   0.500360 0.500890 0.852020 -0.209054
N5    N     N_1   0.648308 0.804404 0.636287 -0.315005
N6    N     N_1   0.375561 0.319340 0.814584 -0.233964
N7    N     N_1   0.350351 0.815689 0.429123 -0.247526
N8    N     N_1   0.185215 0.176665 0.567204 -0.257700
O1    O     O_R   0.500000 0.319640 0.618810 -0.578390
O2    O     O_R   0.582120 0.500020 0.618760 -0.579849
O3    O     O_R   0.582120 0.500060 0.381180 -0.549753
O4    O     O_2   0.852610 0.508140 0.247824 -0.520038
O5    O     O_3   0.519884 0.123518 0.244114 -0.566238
O6    O     O_3   0.410799 0.877429 0.703802 -0.546093
O7    O     O_3   0.629846 0.652430 0.134696 -0.531229
O8    O     O_3   0.329943 0.276789 0.542064 -0.572080
O9    O     O_2   0.848979 0.500684 0.740646 -0.519618
O10   O     O_2   0.147733 0.493210 0.745318 -0.517052
O11   O     O_2   0.151262 0.492847 0.252893 -0.520943
O12   O     O_R   0.500010 0.319680 0.381230 -0.538760
O13   O     O_R   0.417880 0.499940 0.618820 -0.559972
O14   O     O_R   0.417880 0.499980 0.381240 -0.602896
O15   O     O_R   0.499990 0.680320 0.618770 -0.573125
O16   O     O_R   0.500000 0.680360 0.381190 -0.602190

loop_
_geom_bond_atom_site_label_1
_geom_bond_atom_site_label_2
_ccdc_geom_bond_type
C39   C51   A    
C33   H4    S    
C23   H28   S    
C2    N2    A    
C19   C20   A    
C18   C26   S    
C7    C8    A    
C46   N7    T    
Cu1   Cu2   S    
C27   C33   S    
C5    C6    A    
C12   C23   A    
C37   C38   A    
C47   O8    S    
C42   O6    S    
C43   N6    T    
C40   N5    T    
Cu2   O14   S    
C36   C37   A    
C7    O8    S    
C38   C39   A    
C36   N1    A    
C4    O13   A    
C44   H17   S    
C52   N2    A    
C18   C19   A    
C12   C37   A    
C27   N3    A    
Cu2   O3    S    
C8    C9    A    
C38   C45   A    
Cu1   O1    S    
C13   C28   S    
C44   H16   S    
Cu1   N4    S    
C18   C24   A    
C30   N4    A    
C29   N3    A    
C11   H12   S    
C16   O16   A    
C15   H22   S    
C1    O1    A    
C31   N4    A    
C48   N8    T    
C13   C14   A    
C42   H14   S    
C10   H8    S    
C32   H3    S    
C3    H7    S    
C1    C19   S    
Cu2   O16   S    
C27   C31   A    
C25   H24   S    
C24   C25   S    
C47   H19   S    
C4    C6    S    
C35   N1    A    
C41   H11   S    
C2    O11   S    
C25   C26   S    
C52   O10   S    
C42   H15   S    
C26   H26   S    
C28   O3    A    
C17   N1    S    
C35   C39   A    
C8    C48   S    
C29   H27   S    
C29   C30   A    
C3    C9    A    
C2    C49   A    
C44   O7    S    
C31   C32   S    
C45   C49   A    
C23   C34   A    
Cu1   O2    S    
C50   C51   A    
C28   O2    A    
C34   C45   A    
C16   O15   A    
C20   O5    S    
C42   H13   S    
C22   C24   A    
C30   C43   S    
C50   H5    S    
C35   O4    S    
C15   C17   A    
C16   C22   S    
Cu2   O12   S    
C47   H20   S    
C3    C5    A    
Cu2   N3    S    
C6    C7    A    
C5    C46   S    
C34   C52   A    
C26   H25   S    
C32   C33   S    
C47   H21   S    
C11   C13   A    
C41   O5    S    
Cu1   O13   S    
C4    O14   A    
C44   H18   S    
C36   O9    S    
C33   O7    S    
C12   H1    S    
C10   C11   A    
C9    N2    S    
C14   C40   S    
Cu1   O15   S    
C20   C21   A    
C25   O6    S    
C49   C50   A    
C21   H23   S    
C41   H9    S    
C14   C15   A    
C51   H6    S    
C10   C17   A    
C41   H10   S    
C21   C22   A    
C1    O12   A    
C32   H2    S    
