data_mof_unit_32633.cif
_audit_creation_date              2012-10-26T20:50:49-0400
_audit_creation_method            fapswitch 2.2
_symmetry_space_group_name_H-M    P1
_symmetry_Int_Tables_number       1
_space_group_crystal_system       triclinic
_cell_length_a                    11.052918
_cell_length_b                    10.844564
_cell_length_c                    9.544829
_cell_angle_alpha                 90.291459
_cell_angle_beta                  102.596384
_cell_angle_gamma                 90.283036
_cell_volume                      1116.50876554

loop_
_atom_site_label
_atom_site_type_symbol
_atom_type_description
_atom_site_fract_x
_atom_site_fract_y
_atom_site_fract_z
_atom_type_partial_charge
C1    C     C_R   0.500211 0.262370 0.499789 0.578393
C2    C     C_R   0.419790 0.427815 0.053815 -0.003378
C3    C     C_R   0.419126 0.428540 0.904726 -0.017376
C4    C     C_R   0.262626 0.498177 0.441670 0.572398
C5    C     C_R   0.572233 0.581661 0.944855 0.190129
C6    C     C_3   0.709525 0.594332 0.972101 -0.208881
C7    C     C_3   0.709625 0.593521 0.131056 0.109624
C8    C     C_R   0.497639 0.737673 0.499743 0.566763
C9    C     C_R   0.737194 0.498447 0.558446 0.584118
C10   C     C_2   0.127467 0.490147 0.407839 0.231127
C11   C     C_2   0.067095 0.484704 0.515507 -0.103487
C12   C     C_R   0.492665 0.129174 0.497716 0.030212
C13   C     C_2   0.872204 0.497652 0.592422 -0.090347
C14   C     C_2   0.932752 0.473177 0.489173 -0.085605
C15   C     C_R   0.500046 0.064379 0.625362 0.018880
C16   C     C_3   0.555552 0.139614 0.885288 -0.284986
C17   C     C_R   0.468482 0.063626 0.366989 -0.126303
C18   C     C_R   0.466248 0.934992 0.367023 -0.103894
C19   C     C_R   0.486476 0.870782 0.497722 0.000345
C20   C     C_R   0.493169 0.937402 0.624981 0.033638
C21   C     C_3   0.581431 0.926558 0.767176 0.148941
C22   C     C_3   0.595364 0.067273 0.764521 0.209414
C23   C     C_R   0.571815 0.582325 0.092040 0.235112
Cl1   Cl    Cl    0.745779 0.113665 0.741952 -0.572394
Cl2   Cl    Cl    0.758349 0.736489 0.219346 -0.496326
Cl3   Cl    Cl    0.049273 0.486812 0.224955 -0.582067
Cl4   Cl    Cl    0.502342 0.867960 0.898105 -0.605356
Cu1   Cu    Cu3+1 0.499990 0.499980 0.640670 0.997912
Cu2   Cu    Cu3+1 0.500010 0.500020 0.359330 1.033605
H1    H     H_    0.882123 0.445850 0.383464 0.196044
H2    H     H_    0.453733 0.886365 0.265396 0.197102
H3    H     H_    0.666521 0.874433 0.760963 0.165183
H4    H     H_    0.575721 0.238964 0.875836 0.160324
H5    H     H_    0.454929 0.127736 0.881350 0.138196
H6    H     H_    0.609409 0.108362 0.991150 0.189597
H7    H     H_    0.357135 0.367048 0.093526 0.145734
H8    H     H_    0.355937 0.368286 0.832584 0.125392
H9    H     H_    0.755008 0.511697 0.937905 0.148257
H10   H     H_    0.738561 0.683538 0.932515 0.192077
H11   H     H_    0.754792 0.510758 0.185809 0.145982
H12   H     H_    0.117626 0.490811 0.626699 0.132820
H13   H     H_    0.922019 0.520309 0.700843 0.126437
H14   H     H_    0.456091 0.111085 0.265287 0.147600
N1    N     N_R   0.500780 0.500930 0.148120 -0.264875
N2    N     N_R   0.500790 0.500890 0.852210 -0.246802
O1    O     O_R   0.500000 0.319640 0.618810 -0.505542
O2    O     O_R   0.500010 0.319680 0.381230 -0.522444
O3    O     O_R   0.320680 0.500000 0.575130 -0.531266
O4    O     O_R   0.320690 0.500040 0.337550 -0.457977
O5    O     O_R   0.499990 0.680320 0.618770 -0.472560
O6    O     O_R   0.500000 0.680360 0.381190 -0.471695
O7    O     O_R   0.679310 0.499960 0.662450 -0.502958
O8    O     O_R   0.679320 0.500000 0.424870 -0.494837

loop_
_geom_bond_atom_site_label_1
_geom_bond_atom_site_label_2
_ccdc_geom_bond_type
C12   C17   A    
C7    H11   S    
C6    H9    S    
C6    C7    S    
C16   H4    S    
C19   C20   A    
C5    C23   A    
C12   C15   A    
C4    O4    A    
C5    N2    A    
C10   Cl3   S    
C17   H14   S    
C2    C3    A    
C21   Cl4   S    
Cu2   N1    S    
Cu2   O4    S    
C21   C22   S    
Cu1   O7    S    
C8    O6    A    
Cu1   O1    S    
C5    C6    S    
C1    C12   S    
Cu2   O8    S    
C14   H1    S    
C7    C23   S    
C1    O2    A    
C13   H13   S    
C11   C14   S    
Cu2   O2    S    
C11   H12   S    
C9    O7    A    
C16   H6    S    
Cu2   O6    S    
C15   C20   A    
C1    O1    A    
C21   H3    S    
C22   Cl1   S    
Cu1   N2    S    
C8    C19   S    
C9    O8    A    
C10   C11   D    
C4    C10   S    
C8    O5    A    
C20   C21   S    
C3    H8    S    
C17   C18   A    
C18   C19   A    
C4    O3    A    
C2    H7    S    
C9    C13   S    
C6    H10   S    
Cu1   Cu2   S    
C16   C22   S    
C18   H2    S    
C16   H5    S    
C13   C14   D    
Cu1   O5    S    
C3    N2    A    
C15   C22   S    
Cu1   O3    S    
C23   N1    A    
C2    N1    A    
C7    Cl2   S    
