data_mof_unit_64109.cif
_audit_creation_date              2012-10-26T18:19:12-0400
_audit_creation_method            fapswitch 2.2
_symmetry_space_group_name_H-M    P1
_symmetry_Int_Tables_number       1
_space_group_crystal_system       triclinic
_cell_length_a                    18.667883
_cell_length_b                    18.75952
_cell_length_c                    18.945094
_cell_angle_alpha                 109.629745
_cell_angle_beta                  109.661646
_cell_angle_gamma                 109.023809
_cell_volume                      5113.34952133

loop_
_atom_site_label
_atom_site_type_symbol
_atom_type_description
_atom_site_fract_x
_atom_site_fract_y
_atom_site_fract_z
_atom_type_partial_charge
C1    C     C_R   0.381969 0.381212 0.500819 0.582796
C2    C     C_R   0.204479 0.167253 0.435755 -0.030149
C3    C     C_3   0.181124 0.096978 0.351113 0.114943
C4    C     C_R   0.620478 0.500831 0.619201 0.627680
C5    C     C_3   0.254904 0.167875 0.353001 0.184878
C6    C     C_R   0.251062 0.427746 0.236182 0.022073
C7    C     C_R   0.315245 0.502511 0.314927 0.020462
C8    C     C_R   0.313362 0.580563 0.328303 -0.147046
C9    C     C_R   0.248781 0.580793 0.262727 -0.149254
C10   C     C_R   0.183956 0.502503 0.184485 0.024332
C11   C     C_R   0.187495 0.427483 0.174907 0.014404
C12   C     C_3   0.808881 0.501131 0.810675 -0.007225
C13   C     C_3   0.145447 0.332846 0.113539 -0.259663
C14   C     C_3   0.217390 0.332763 0.183740 -0.276969
C15   C     C_R   0.669372 0.692140 0.426602 0.026422
C16   C     C_R   0.619251 0.618876 0.500633 0.562763
C17   C     C_R   0.685246 0.686718 0.501441 -0.003916
C18   C     C_R   0.761395 0.754362 0.579888 -0.151094
C19   C     C_R   0.825776 0.819139 0.580041 -0.156304
C20   C     C_R   0.812893 0.818110 0.502077 -0.002761
C21   C     C_R   0.731794 0.757381 0.427040 -0.049132
C22   C     C_3   0.710974 0.699321 0.337855 -0.158935
C23   C     C_3   0.831882 0.596071 0.832777 -0.227572
C24   C     C_3   0.642793 0.626751 0.337402 0.455134
C25   C     C_R   0.997644 0.381213 0.878857 0.558659
C26   C     C_R   0.877604 0.501150 0.879199 0.544734
C27   C     C_R   0.996730 0.619069 0.115395 0.545028
C28   C     C_R   0.380955 0.500567 0.380863 0.550721
C29   C     C_R   0.116765 0.500525 0.116759 0.555978
C30   C     C_R   0.998861 0.118146 0.617601 0.549802
C31   C     C_R   0.118654 0.118227 0.500087 0.560201
C32   C     C_R   0.001111 0.881528 0.382110 0.548331
C33   C     C_R   0.880873 0.881545 0.500070 0.545808
C34   C     C_3   0.717416 0.453870 0.800934 -0.205899
C35   C     C_R   0.963349 0.229528 0.794078 0.023936
C36   C     C_R   0.997687 0.315170 0.811672 0.002752
C37   C     C_R   0.033526 0.335600 0.761496 -0.157172
C38   C     C_R   0.033369 0.270569 0.696637 -0.151431
C39   C     C_R   0.998904 0.185086 0.682520 0.028026
C40   C     C_3   0.730349 0.449189 0.650230 -0.213389
C41   C     C_R   0.964822 0.167674 0.733037 -0.039973
C42   C     C_3   0.920473 0.096816 0.747779 -0.253493
C43   C     C_3   0.918791 0.167289 0.818007 0.126762
C44   C     C_R   0.010003 0.684627 0.259357 0.011437
C45   C     C_R   0.268421 0.228856 0.436984 0.025208
C46   C     C_R   0.000203 0.687189 0.184059 0.015266
C47   C     C_R   0.003997 0.761779 0.180124 -0.154671
C48   C     C_R   0.005096 0.826349 0.245559 -0.151855
C49   C     C_R   0.005579 0.818088 0.316724 0.012749
C50   C     C_R   0.013830 0.749669 0.325219 0.023358
C51   C     C_3   0.961216 0.686465 0.343345 -0.273978
C52   C     C_3   0.803823 0.453635 0.723262 -0.257537
C53   C     C_3   0.956842 0.614988 0.270751 -0.262747
C54   C     C_3   0.762079 0.596056 0.759671 0.065940
C55   C     C_3   0.647075 0.456646 0.731090 0.067078
C56   C     C_R   0.316873 0.315158 0.502964 0.013623
C57   C     C_3   0.688810 0.500523 0.687852 0.104145
C58   C     C_3   0.228468 0.144980 0.216438 0.016828
C59   C     C_3   0.318169 0.195262 0.226926 -0.273062
C60   C     C_3   0.318347 0.155648 0.142310 -0.487660
C61   C     C_R   0.299061 0.336240 0.571916 -0.155269
C62   C     C_R   0.234134 0.271264 0.571782 -0.157238
C63   C     C_R   0.185290 0.185233 0.501932 0.014257
Cu1   Cu    Cu3+1 0.500370 0.438220 0.438550 0.962799
Cu2   Cu    Cu3+1 0.499630 0.561780 0.561450 0.949065
Cu3   Cu    Cu3+1 0.935500 0.438280 0.997350 0.952808
Cu4   Cu    Cu3+1 0.059110 0.561800 0.997270 0.928839
Cu5   Cu    Cu3+1 0.062130 0.000020 0.562160 0.933859
Cu6   Cu    Cu3+1 0.937870 0.000080 0.437940 0.961337
H1    H     H_    0.756742 0.475228 0.614327 0.112222
H2    H     H_    0.679584 0.379736 0.602801 0.182208
H3    H     H_    0.248748 0.641261 0.273512 0.125489
H4    H     H_    0.078685 0.295444 0.101900 0.180865
H5    H     H_    0.151211 0.320564 0.054628 0.144843
H6    H     H_    0.192317 0.295854 0.213214 0.175166
H7    H     H_    0.263655 0.319399 0.164445 0.143024
H8    H     H_    0.772796 0.754731 0.640022 0.168925
H9    H     H_    0.886011 0.868583 0.640338 0.135377
H10   H     H_    0.682352 0.719293 0.291400 0.157872
H11   H     H_    0.766621 0.689901 0.337314 0.089956
H12   H     H_    0.720203 0.485510 0.863863 0.093621
H13   H     H_    0.791094 0.386474 0.707793 0.126305
H14   H     H_    0.060833 0.401078 0.771653 0.138066
H15   H     H_    0.060674 0.287066 0.658473 0.114741
H16   H     H_    0.854461 0.046116 0.691108 0.114503
H17   H     H_    0.963631 0.071771 0.772947 0.146888
H18   H     H_    0.852152 0.156584 0.803704 0.159041
H19   H     H_    0.001666 0.767927 0.124647 0.130955
H20   H     H_    0.003502 0.881351 0.239658 0.174703
H21   H     H_    0.000118 0.696207 0.408281 0.144332
H22   H     H_    0.867390 0.488489 0.727387 0.124805
H23   H     H_    0.732194 0.630308 0.789208 0.163428
H24   H     H_    0.896594 0.682198 0.328784 0.130707
H25   H     H_    0.993160 0.583497 0.293865 0.141983
H26   H     H_    0.889640 0.569340 0.213975 0.156458
H27   H     H_    0.897951 0.632500 0.842335 0.162848
H28   H     H_    0.622063 0.496252 0.762889 0.104490
H29   H     H_    0.698876 0.385008 0.783185 0.173879
H30   H     H_    0.083962 0.112788 0.290236 0.365025
H31   H     H_    0.177281 0.138888 0.159787 0.158998
H32   H     H_    0.213051 0.077227 0.201799 0.139665
H33   H     H_    0.335325 0.264212 0.247925 0.197421
H34   H     H_    0.834550 0.630708 0.895023 0.092045
H35   H     H_    0.369255 0.194397 0.277485 0.151782
H36   H     H_    0.302044 0.086747 0.120468 0.151826
H37   H     H_    0.384318 0.192798 0.152317 0.159010
H38   H     H_    0.269966 0.158623 0.091309 0.149121
H39   H     H_    0.517964 0.559094 0.288397 0.346863
H40   H     H_    0.720492 0.582883 0.379292 0.304638
H41   H     H_    0.029915 0.196819 0.911192 0.322911
H42   H     H_    0.836431 0.621352 0.708909 0.325143
H43   H     H_    0.542674 0.353788 0.695666 0.322908
H44   H     H_    0.335170 0.402232 0.625777 0.139214
H45   H     H_    0.221488 0.288245 0.625179 0.116522
H46   H     H_    0.194435 0.044896 0.356494 0.110884
H47   H     H_    0.313202 0.159508 0.362108 0.074288
H48   H     H_    0.362110 0.641082 0.388334 0.134990
O1    O     O_R   0.410140 0.357660 0.448100 -0.497255
O2    O     O_R   0.947040 0.090210 0.537310 -0.510354
O3    O     O_R   0.142640 0.090190 0.552500 -0.513305
O4    O     O_R   0.409510 0.462000 0.551890 -0.521700
O5    O     O_R   0.037710 0.090250 0.447610 -0.492961
O6    O     O_R   0.052960 0.909890 0.462790 -0.507241
O7    O     O_R   0.948020 0.909940 0.357900 -0.505251
O8    O     O_R   0.962290 0.909850 0.552490 -0.516709
O9    O     O_R   0.857360 0.909910 0.447600 -0.506471
O10   O     O_R   0.590970 0.447830 0.538770 -0.508924
O11   O     O_R   0.590340 0.552170 0.642560 -0.520196
O12   O     O_R   0.049970 0.462000 0.907620 -0.517695
O13   O     O_R   0.590490 0.538000 0.448110 -0.483488
O14   O     O_R   0.589860 0.642340 0.551900 -0.508075
O15   O     O_R   0.409660 0.447830 0.357440 -0.519804
O16   O     O_R   0.409030 0.552170 0.461230 -0.515077
O17   O     O_R   0.945590 0.357690 0.907690 -0.488566
O18   O     O_3   0.096212 0.063979 0.284072 -0.685102
O19   O     O_3   0.224469 0.191187 0.289945 -0.552791
O20   O     O_3   0.556901 0.597225 0.275944 -0.658165
O21   O     O_3   0.659740 0.557838 0.332667 -0.656207
O22   O     O_3   0.971396 0.187201 0.902809 -0.692472
O23   O     O_R   0.854460 0.447890 0.906680 -0.519991
O24   O     O_3   0.799675 0.643385 0.725483 -0.720089
O25   O     O_3   0.576872 0.371931 0.668485 -0.717544
O26   O     O_R   0.958840 0.552200 0.906620 -0.520490
O27   O     O_R   0.944630 0.538080 0.087010 -0.514197
O28   O     O_R   0.049020 0.642390 0.086940 -0.513648
O29   O     O_R   0.035760 0.447880 0.088010 -0.499005
O30   O     O_R   0.140150 0.552190 0.087940 -0.506120
O31   O     O_R   0.051980 0.090160 0.642200 -0.511892

loop_
_geom_bond_atom_site_label_1
_geom_bond_atom_site_label_2
_ccdc_geom_bond_type
C5    O19   S    
C59   C60   S    
C40   H2    S    
C53   H26   S    
C41   C42   S    
C32   O7    A    
C35   C36   A    
C9    H3    S    
C25   O12   A    
C7    C8    A    
C39   C41   A    
C12   C23   S    
C62   C63   A    
C40   H1    S    
C59   H35   S    
C36   C37   A    
C1    C56   S    
C22   H10   S    
C62   H45   S    
C26   O23   A    
C51   H21   S    
C38   C39   A    
Cu3   O27   S    
C30   O2    A    
Cu1   O1    S    
C23   H27   S    
C18   C19   A    
H43   O25   S    
C16   O14   A    
Cu2   O14   S    
Cu3   O17   S    
C44   C53   S    
C23   H34   S    
Cu1   O15   S    
C45   C56   A    
Cu5   Cu6   S    
C4    C57   S    
Cu4   O28   S    
C43   O22   S    
C42   H17   S    
C34   H12   S    
Cu2   O4    S    
C35   C43   S    
C9    C10   A    
Cu5   O31   S    
Cu3   Cu4   S    
Cu4   O26   S    
C34   C55   S    
C55   O25   S    
C13   C14   S    
C32   O6    A    
H41   O22   S    
Cu4   O12   S    
Cu5   O6    S    
C12   C52   S    
C44   C46   A    
C8    H48   S    
C50   C51   S    
C2    C45   A    
C31   O3    A    
C4    O11   A    
C28   O16   A    
Cu2   O11   S    
C31   C63   S    
C58   H31   S    
C6    C11   A    
C42   H16   S    
C8    C9    A    
Cu6   O7    S    
C24   O21   S    
C58   C59   S    
C40   C52   S    
C5    C45   S    
Cu6   O2    S    
C7    C28   S    
C12   C26   S    
H40   O21   S    
C28   O15   A    
C14   H7    S    
C19   H9    S    
C54   H23   S    
C37   C38   A    
C6    C14   S    
C47   C48   A    
C27   O28   A    
Cu1   O10   S    
C55   H28   S    
C33   O8    A    
C17   C18   A    
H30   O18   S    
C58   H32   S    
C20   C21   A    
C52   H13   S    
C25   O17   A    
C60   H38   S    
C51   H24   S    
Cu2   O16   S    
C20   C33   S    
C27   C46   S    
C15   C24   S    
Cu1   O13   S    
Cu6   O9    S    
C48   H20   S    
C55   C57   S    
C5    H47   S    
C61   H44   S    
C22   C24   S    
C42   C43   S    
C12   C34   S    
C26   O26   A    
C29   O29   A    
C60   H37   S    
C2    C63   A    
C23   C54   S    
C44   C50   A    
C15   C17   A    
C46   C47   A    
C48   C49   A    
C40   C57   S    
C4    O10   A    
C38   H15   S    
C53   H25   S    
C59   H33   S    
C31   O5    A    
C13   H4    S    
C3    C5    S    
C29   O30   A    
C30   O31   A    
C6    C7    A    
C24   O20   S    
C14   H6    S    
C58   O19   S    
C47   H19   S    
C19   C20   A    
C2    C3    S    
C43   H18   S    
C3    H46   S    
Cu1   Cu2   S    
Cu4   O30   S    
C11   C13   S    
C10   C29   S    
C27   O27   A    
H39   O20   S    
Cu6   O5    S    
C18   H8    S    
C33   O9    A    
C34   H29   S    
C30   C39   S    
C3    O18   S    
C1    O1    A    
C61   C62   A    
C35   C41   A    
C1    O4    A    
C32   C49   S    
Cu3   O29   S    
C10   C11   A    
H42   O24   S    
C25   C36   S    
C22   H11   S    
C15   C21   A    
C54   O24   S    
Cu3   O23   S    
C13   H5    S    
C49   C50   A    
C56   C61   A    
C37   H14   S    
C52   H22   S    
C16   O13   A    
C51   C53   S    
C21   C22   S    
Cu5   O8    S    
Cu5   O3    S    
C60   H36   S    
C16   C17   S    
C54   C57   S    
