data_mof_unit_30914.cif
_audit_creation_date              2012-12-11T17:00:24-0500
_audit_creation_method            fapswitch 2.2
_symmetry_space_group_name_H-M    P1
_symmetry_Int_Tables_number       1
_space_group_crystal_system       triclinic
_cell_length_a                    6.994223
_cell_length_b                    13.58354
_cell_length_c                    20.236122
_cell_angle_alpha                 102.917109
_cell_angle_beta                  89.373197
_cell_angle_gamma                 91.264788
_cell_volume                      1873.41575877

loop_
_atom_site_label
_atom_site_type_symbol
_atom_type_description
_atom_site_fract_x
_atom_site_fract_y
_atom_site_fract_z
_atom_type_partial_charge
O1    O     O_R   0.506770 0.599700 0.449550 -0.527320
O2    O     O_R   0.179980 0.595740 0.587960 -0.551878
O3    O     O_R   0.004580 0.400300 0.550450 -0.540972
C1    C     C_R   0.347982 0.615938 0.615538 0.719347
O4    O     O_R   0.177380 0.611700 0.452380 -0.544995
O5    O     O_R   0.001970 0.416370 0.413900 -0.549363
C2    C     C_R   0.348202 0.638948 0.436316 0.724243
O6    O     O_R   0.509390 0.583630 0.586100 -0.523045
O7    O     O_3   0.337530 0.435890 0.487530 -0.370570
V1    V     V_3+5 0.064660 0.511890 0.502310 1.458028
O8    O     O_R   0.671950 0.404260 0.412040 -0.525037
C3    C     C_R   0.840229 0.383672 0.384559 0.715647
O9    O     O_R   0.674540 0.388300 0.547620 -0.528205
C4    C     C_R   0.841066 0.361198 0.563947 0.726521
V2    V     V_3+5 0.564030 0.488110 0.497690 1.516276
O10   O     O_3   0.841030 0.564110 0.512470 -0.373536
C5    C     C_R   0.722713 0.116979 0.614994 -0.150343
H1    H     H_    0.645734 0.003645 0.702927 0.141231
H2    H     H_    0.661240 0.043149 0.592750 0.129602
C6    C     C_R   0.838794 0.280794 0.601810 -0.140489
C7    C     C_R   0.950433 0.311585 0.926368 -0.130731
C8    C     C_R   0.983799 0.384407 0.888913 -0.111071
C9    C     C_R   0.947560 0.362785 0.819567 -0.124116
C10   C     C_R   0.871974 0.267327 0.785915 0.094143
C11   C     C_R   0.827807 0.194951 0.825574 0.043026
C12   C     C_R   0.839894 0.240944 0.714308 0.072972
C13   C     C_R   0.758537 0.144644 0.684768 0.044792
C14   C     C_R   0.710383 0.076712 0.725064 -0.141298
C15   C     C_R   0.743750 0.101522 0.794253 -0.164961
C16   C     C_R   0.883169 0.307092 0.670964 -0.213330
C17   C     C_R   0.760593 0.183924 0.573185 0.345495
C18   C     C_R   0.873190 0.216774 0.895588 -0.084066
H3    H     H_    0.943592 0.381555 0.689761 0.155458
H4    H     H_    0.988007 0.328657 0.979599 0.132334
H5    H     H_    0.980800 0.422539 0.793952 0.144678
H6    H     H_    0.042953 0.457607 0.913526 0.126598
H7    H     H_    0.700520 0.046940 0.823149 0.142447
C19   C     C_R   0.698081 0.193507 0.222886 -0.027995
C20   C     C_R   0.864338 0.185901 0.183322 -0.047402
C21   C     C_R   0.021808 0.246669 0.210652 -0.152754
H8    H     H_    0.145767 0.249782 0.179561 0.178450
C22   C     C_R   0.014306 0.309921 0.276011 -0.152076
H9    H     H_    0.133026 0.359856 0.293924 0.170944
C23   C     C_R   0.848754 0.315129 0.316200 -0.043144
C24   C     C_R   0.690163 0.257031 0.287622 -0.011694
C25   C     C_3   0.496491 0.292690 0.275379 0.103443
C26   C     C_3   0.504198 0.222307 0.205063 0.119601
H10   H     H_    0.390302 0.267813 0.309760 0.065553
H11   H     H_    0.403203 0.156687 0.199424 0.053855
C27   C     C_R   0.513251 0.744196 0.707420 -0.004934
C28   C     C_R   0.352603 0.684497 0.683871 -0.072128
C29   C     C_R   0.194656 0.690673 0.728005 -0.124218
H12   H     H_    0.073548 0.641031 0.713191 0.164550
C30   C     C_R   0.198024 0.754547 0.793253 -0.097421
H13   H     H_    0.079162 0.751867 0.827381 0.135267
C31   C     C_R   0.358584 0.816339 0.815853 -0.133857
C32   C     C_R   0.514800 0.811202 0.771075 0.057987
C33   C     C_3   0.715619 0.785975 0.783525 0.125058
C34   C     C_3   0.709814 0.709373 0.716355 0.072509
H14   H     H_    0.732820 0.753214 0.828929 0.121066
H15   H     H_    0.810921 0.725661 0.677208 0.139142
C35   C     C_R   0.479914 0.881928 0.386730 -0.146835
H16   H     H_    0.484863 0.829933 0.479283 0.108464
H17   H     H_    0.536207 0.002919 0.301722 0.125897
H18   H     H_    0.540835 0.955207 0.410473 0.151477
C36   C     C_R   0.365453 0.716924 0.397020 -0.040787
C37   C     C_R   0.280250 0.689026 0.072424 -0.174820
C38   C     C_R   0.244765 0.615671 0.109262 -0.080608
C39   C     C_R   0.271293 0.637767 0.179181 -0.107521
C40   C     C_R   0.336168 0.734812 0.214274 0.064882
C41   C     C_R   0.377795 0.808859 0.175809 0.069218
C42   C     C_R   0.363371 0.760395 0.286013 0.072100
C43   C     C_R   0.440352 0.857303 0.317030 0.136251
C44   C     C_R   0.479422 0.928532 0.278275 -0.200848
C45   C     C_R   0.446963 0.905209 0.208933 -0.201107
C46   C     C_R   0.319365 0.692713 0.328167 -0.164860
C47   C     C_R   0.446783 0.811237 0.426116 -0.175705
C48   C     C_R   0.347151 0.785201 0.104852 -0.077166
H19   H     H_    0.253761 0.619618 0.308943 0.137852
H20   H     H_    0.254223 0.670973 0.018309 0.108938
H21   H     H_    0.241004 0.576802 0.203992 0.157954
H22   H     H_    0.194310 0.541166 0.083511 0.142133
H23   H     H_    0.479434 0.963249 0.181335 0.119022
O11   O     O_R   0.203450 0.916320 0.913910 -0.545056
O12   O     O_R   0.535520 0.888300 0.047620 -0.542712
O13   O     O_R   0.710860 0.083650 0.086100 -0.522476
C49   C     C_R   0.364788 0.862280 0.064638 0.682875
O14   O     O_R   0.532860 0.904250 0.912040 -0.555129
O15   O     O_R   0.708190 0.099710 0.949550 -0.533160
C50   C     C_R   0.364731 0.882607 0.884940 0.682789
O16   O     O_R   0.206120 0.900260 0.050460 -0.541374
O17   O     O_3   0.375280 0.064080 0.012470 -0.344857
V3    V     V_3+5 0.648180 0.988110 0.997690 1.448706
O18   O     O_R   0.038220 0.111740 0.952370 -0.536861
C51   C     C_R   0.871682 0.137812 0.935033 0.701727
O19   O     O_R   0.040880 0.095790 0.087940 -0.544384
C52   C     C_R   0.872334 0.118231 0.114731 0.732487
V4    V     V_3+5 0.148800 0.011950 0.002300 1.463462
O20   O     O_3   0.871820 0.935920 0.987530 -0.387492
O21   O     O_3   0.716200 0.151998 0.505266 -0.653941
H24   H     H_    0.770818 0.200318 0.479744 0.262158
Br1   Br    Br    0.495840 0.437825 0.277486 -0.554769
Br2   Br    Br    0.504359 0.287375 0.127424 -0.496536
O22   O     O_3   0.840630 0.867077 0.781029 -0.653728
H25   H     H_    0.868136 0.900763 0.828819 0.291770
Br3   Br    Br    0.708292 0.570900 0.729277 -0.654743

loop_
_geom_bond_atom_site_label_1
_geom_bond_atom_site_label_2
_ccdc_geom_bond_type
C48   C49   S    
C49   O16   A    
C43   C44   A    
C35   C47   A    
O12   V3    S    
C46   H19   S    
C42   C46   A    
O17   V4    S    
C26   H11   S    
C6    C16   A    
C24   C25   S    
C23   C24   A    
C25   Br1   S    
C12   C13   A    
C22   C23   A    
C27   C34   S    
C14   C15   A    
C10   C12   A    
O5    C3    A    
C19   C20   A    
C20   C52   S    
O18   V4    S    
C33   H14   S    
V2    O10   S    
C31   C32   A    
O13   C52   A    
O17   V3    S    
C19   C24   A    
C30   H13   S    
O8    V2    S    
C38   C39   A    
O19   V4    S    
C9    C10   A    
C35   C43   A    
C40   C41   A    
O1    V2    S    
O7    V1    S    
V3    O20   S    
C16   H3    S    
C1    O6    A    
C11   C18   A    
C21   C22   A    
O9    C4    A    
O18   C51   A    
C37   C48   A    
O11   C50   A    
O22   H25   S    
C29   C30   A    
C25   H10   S    
O12   C49   A    
C11   C15   A    
C7    C18   A    
C30   C31   A    
C34   H15   S    
C34   Br3   S    
C26   Br2   S    
C44   C45   A    
C1    C28   S    
C37   C38   A    
C5    C13   A    
C4    C6    S    
H1    C14   S    
C10   C11   A    
C20   C21   A    
O4    C2    A    
O14   V3    S    
C7    H4    S    
C33   C34   S    
C28   C29   A    
O15   C51   A    
O2    C1    A    
O13   V3    S    
C36   C46   A    
O19   C52   A    
C27   C28   A    
C17   O21   S    
C19   C26   S    
O3    C4    A    
C21   H8    S    
O14   C50   A    
C12   C16   A    
O6    V2    S    
C9    H5    S    
O9    V2    S    
C5    C17   A    
C33   O22   S    
C22   H9    S    
O2    V1    S    
C29   H12   S    
H16   C47   S    
C36   C47   A    
C25   C26   S    
C35   H18   S    
O1    C2    A    
C27   C32   A    
C37   H20   S    
C42   C43   A    
O5    V1    S    
O8    C3    A    
C8    H6    S    
C38   H22   S    
O7    V2    S    
O11   V4    S    
O4    V1    S    
C3    C23   S    
O3    V1    S    
V1    O10   S    
C2    C36   S    
C41   C45   A    
C45   H23   S    
C32   C33   S    
C31   C50   S    
O21   H24   S    
C5    H2    S    
O16   V4    S    
O15   V3    S    
C39   C40   A    
C39   H21   S    
C18   C51   S    
V4    O20   S    
C15   H7    S    
C13   C14   A    
H17   C44   S    
C8    C9    A    
C40   C42   A    
C7    C8    A    
C41   C48   A    
C6    C17   A    
