data_mof_unit_10042.cif
_audit_creation_date              2012-12-10T16:42:32-0500
_audit_creation_method            fapswitch 2.2
_symmetry_space_group_name_H-M    P1
_symmetry_Int_Tables_number       1
_space_group_crystal_system       triclinic
_cell_length_a                    7.488384
_cell_length_b                    8.689242
_cell_length_c                    10.86815
_cell_angle_alpha                 88.755811
_cell_angle_beta                  73.128405
_cell_angle_gamma                 103.316194
_cell_volume                      655.554978226

loop_
_atom_site_label
_atom_site_type_symbol
_atom_type_description
_atom_site_fract_x
_atom_site_fract_y
_atom_site_fract_z
_atom_type_partial_charge
C1    C     C_R   0.451728 0.199556 0.503946 0.870264
C2    C     C_R   0.548266 0.800439 0.496071 0.852147
C3    C     C_R   0.423507 0.487773 0.743778 0.765951
C4    C     C_R   0.574461 0.501834 0.256755 0.765698
C5    C     C_2   0.383801 0.471467 0.884861 0.175347
C6    C     C_2   0.607338 0.488771 0.117527 0.187205
C7    C     C_2   0.492178 0.401376 0.936384 0.336263
C8    C     C_2   0.465756 0.400805 0.076316 0.335397
C9    C     C_2   0.425158 0.031275 0.505680 -0.335954
C10   C     C_2   0.574852 0.968738 0.494301 -0.336221
Cu1   Cu    Cu3+1 0.688910 0.517800 0.485820 1.079576
Cu2   Cu    Cu3+1 0.311090 0.482200 0.514180 1.081565
H1    H     H_    0.281402 0.958562 0.516291 0.194865
H2    H     H_    0.718613 0.041456 0.483672 0.199131
N1    N     N_2   0.027170 0.455360 0.535550 0.151157
N2    N     N_2   0.972830 0.544640 0.464450 0.148646
O1    O     O_R   0.622710 0.286400 0.490790 -0.531734
O2    O     O_R   0.377290 0.713600 0.509210 -0.540595
O3    O     O_R   0.303660 0.256330 0.514730 -0.602866
O4    O     O_R   0.696340 0.743670 0.485270 -0.610827
O5    O     O_R   0.600900 0.509520 0.671740 -0.499612
O6    O     O_R   0.399100 0.490480 0.328260 -0.489148
O7    O     O_R   0.281840 0.479450 0.695690 -0.609612
O8    O     O_R   0.718160 0.520550 0.304310 -0.606934
O9    O     O_3   0.295866 0.313191 0.163411 -0.709294
H3    H     H_    0.214229 0.253872 0.114086 0.335792
O10   O     O_3   0.629147 0.332893 0.859376 -0.696599
H4    H     H_    0.688657 0.284170 0.915535 0.335366
O11   O     O_3   0.779719 0.567831 0.028172 -0.736447
H5    H     H_    0.861887 0.632447 0.074628 0.343073
O12   O     O_3   0.239094 0.529797 0.965177 -0.728610
H6    H     H_    0.182165 0.584335 0.910833 0.353410
O13   O     O_3   0.887095 0.340592 0.614294 -0.559571
H7    H     H_    0.954243 0.282243 0.657886 0.340273
O14   O     O_3   0.114075 0.654494 0.381163 -0.592005
H8    H     H_    0.047417 0.711751 0.336293 0.334900

loop_
_geom_bond_atom_site_label_1
_geom_bond_atom_site_label_2
_ccdc_geom_bond_type
Cu1   Cu2   S    
O11   H5    S    
C2    O2    A    
C4    O6    A    
Cu1   N2    S    
C1    O1    A    
O12   H6    S    
Cu2   N1    S    
O13   H7    S    
C1    C9    S    
C7    C8    S    
C8    O9    S    
Cu2   O7    S    
Cu2   O3    S    
Cu1   O5    S    
N2    O14   S    
C10   H2    S    
C4    O8    A    
Cu1   O4    S    
C1    O3    A    
C3    O5    A    
C2    O4    A    
N1    N2    D    
C2    C10   S    
Cu2   O6    S    
Cu1   O8    S    
C6    O11   S    
C7    O10   S    
C4    C6    S    
C9    C10   D    
Cu2   O2    S    
O10   H4    S    
C5    C7    D    
C9    H1    S    
Cu1   O1    S    
C6    C8    D    
C5    O12   S    
O9    H3    S    
C3    O7    A    
N1    O13   S    
O14   H8    S    
C3    C5    S    
