data_mof_unit_55662.cif
_audit_creation_date              2012-12-10T16:59:22-0500
_audit_creation_method            fapswitch 2.2
_symmetry_space_group_name_H-M    P1
_symmetry_Int_Tables_number       1
_space_group_crystal_system       triclinic
_cell_length_a                    7.735952
_cell_length_b                    8.55695
_cell_length_c                    27.72072
_cell_angle_alpha                 90.897077
_cell_angle_beta                  86.300873
_cell_angle_gamma                 93.703171
_cell_volume                      1827.23696589

loop_
_atom_site_label
_atom_site_type_symbol
_atom_type_description
_atom_site_fract_x
_atom_site_fract_y
_atom_site_fract_z
_atom_type_partial_charge
Br1   Br    Br    0.676542 0.984534 0.127307 -0.433176
Br2   Br    Br    0.323472 0.015918 0.872712 -0.433217
C1    C     C_R   0.545917 0.794850 0.498732 0.976387
C2    C     C_R   0.536203 0.652197 0.127241 -0.100283
C3    C     C_R   0.510445 0.495854 0.646399 -0.041499
C4    C     C_R   0.489561 0.504262 0.353602 -0.041502
C5    C     C_R   0.556137 0.640302 0.024438 -0.001564
C6    C     C_R   0.443826 0.360205 0.975569 -0.001551
C7    C     C_R   0.428028 0.368662 0.026833 0.074561
C8    C     C_R   0.571893 0.631860 0.973172 0.074552
C9    C     C_R   0.486994 0.508091 0.051018 0.079407
C10   C     C_R   0.512959 0.492415 0.948988 0.079409
C11   C     C_R   0.605160 0.778238 0.050118 -0.264172
C12   C     C_R   0.454083 0.205150 0.501267 0.976402
C13   C     C_R   0.394856 0.222247 0.949893 -0.264197
C14   C     C_R   0.598150 0.785163 0.100246 0.329906
C15   C     C_R   0.401872 0.215301 0.899766 0.329885
C16   C     C_R   0.503066 0.499454 0.593922 0.876015
C17   C     C_R   0.496934 0.500561 0.406079 0.876015
C18   C     C_R   0.647638 0.757886 0.945001 -0.202154
C19   C     C_R   0.352203 0.242663 0.055000 -0.202190
C20   C     C_2   0.570190 0.958321 0.498000 -0.370442
C21   C     C_2   0.429810 0.041679 0.502000 -0.370447
C22   C     C_R   0.595098 0.612893 0.820827 0.534714
C23   C     C_R   0.523325 0.485472 0.897655 -0.097286
C24   C     C_R   0.404850 0.387570 0.179175 0.534715
C25   C     C_R   0.468818 0.351001 0.821828 0.547367
C26   C     C_R   0.531225 0.649428 0.178182 0.547385
C27   C     C_R   0.365002 0.497185 0.726230 -0.081231
C28   C     C_R   0.635011 0.503142 0.273769 -0.081218
C29   C     C_R   0.357671 0.502384 0.676375 -0.202765
C30   C     C_R   0.642336 0.497804 0.323622 -0.202778
C31   C     C_R   0.670444 0.484241 0.666959 -0.208013
C32   C     C_R   0.329566 0.515952 0.333048 -0.208001
C33   C     C_R   0.677297 0.479162 0.716841 -0.086363
C34   C     C_R   0.476642 0.515014 0.102351 -0.097285
C35   C     C_R   0.322719 0.521172 0.283167 -0.086354
C36   C     C_R   0.524631 0.485509 0.746398 0.306461
C37   C     C_R   0.475385 0.514884 0.253608 0.306440
C38   C     C_R   0.592632 0.616899 0.871135 -0.004160
C39   C     C_R   0.407299 0.383592 0.128868 -0.004149
C40   C     C_R   0.656821 0.750414 0.895110 -0.070813
C41   C     C_R   0.343039 0.250112 0.104891 -0.070864
C42   C     C_R   0.463807 0.348263 0.872769 -0.100282
H1    H     H_    0.790106 0.479069 0.644607 0.161350
H2    H     H_    0.232805 0.511186 0.661399 0.162521
H3    H     H_    0.752975 0.497629 0.250704 0.146331
H4    H     H_    0.247034 0.502735 0.749293 0.146310
H5    H     H_    0.649055 0.885675 0.032395 0.170847
H6    H     H_    0.351016 0.114802 0.967619 0.170848
H7    H     H_    0.703196 0.864887 0.959976 0.151273
H8    H     H_    0.296542 0.135713 0.040022 0.151293
H9    H     H_    0.702717 0.009508 0.494183 0.180994
H10   H     H_    0.297283 0.990491 0.505817 0.180994
H11   H     H_    0.209906 0.521078 0.355402 0.161358
H12   H     H_    0.014090 0.383324 0.463451 0.192326
H13   H     H_    0.985910 0.616676 0.536549 0.192322
H14   H     H_    0.800776 0.470350 0.732599 0.141935
H15   H     H_    0.199243 0.530027 0.267414 0.141946
H16   H     H_    0.713918 0.851256 0.875325 0.209841
H17   H     H_    0.285886 0.149286 0.124673 0.209829
H18   H     H_    0.767197 0.488953 0.338595 0.162525
N1    N     N_R   0.531407 0.482433 0.797585 -0.369001
N2    N     N_R   0.468597 0.518000 0.202421 -0.368995
N3    N     N_2   0.950320 0.457960 0.486880 -0.175796
N4    N     N_2   0.049680 0.542040 0.513120 -0.175797
O1    O     O_R   0.389250 0.738570 0.503220 -0.611332
O2    O     O_2   0.342177 0.261105 0.204847 -0.517258
O3    O     O_2   0.588758 0.775130 0.203795 -0.475954
O4    O     O_2   0.411366 0.225261 0.796219 -0.475924
O5    O     O_R   0.610750 0.261430 0.496780 -0.611326
O6    O     O_R   0.678390 0.711630 0.494810 -0.629103
O7    O     O_R   0.321610 0.288370 0.505190 -0.629096
O8    O     O_R   0.355440 0.513440 0.575450 -0.620649
O9    O     O_R   0.644560 0.486560 0.424550 -0.620645
O10   O     O_R   0.644590 0.486500 0.567040 -0.630889
O11   O     O_R   0.355410 0.513500 0.432960 -0.630897
O12   O     O_2   0.657732 0.739360 0.795150 -0.517236
Zn1   Zn    Zn3+2 0.306940 0.517990 0.505620 0.951693
Zn2   Zn    Zn3+2 0.693060 0.482010 0.494380 0.951697

loop_
_geom_bond_atom_site_label_1
_geom_bond_atom_site_label_2
_ccdc_geom_bond_type
C5    C8    A    
C4    C30   A    
C2    C34   A    
C32   C35   A    
C31   H1    S    
C12   O5    A    
C26   O3    S    
H13   N4    S    
C5    C9    A    
N4    Zn1   S    
C33   H14   S    
C9    C34   A    
C18   H7    S    
C23   C38   A    
H12   N3    S    
C13   H6    S    
C17   O11   A    
C24   N2    A    
C22   C38   A    
C19   C41   A    
C25   C42   A    
C8    C18   A    
C6    C7    A    
C29   H2    S    
C3    C31   A    
C27   C36   A    
O9    Zn2   S    
C38   C40   A    
C32   H11   S    
C16   O8    A    
N3    Zn2   S    
Br2   C15   S    
C27   C29   A    
C39   C41   A    
C34   C39   A    
C23   C42   A    
O5    Zn2   S    
C2    C26   A    
C20   H9    S    
O11   Zn1   S    
C37   N2    S    
C27   H4    S    
C12   O7    A    
C28   H3    S    
C33   C36   A    
O1    Zn1   S    
C40   H16   S    
C3    C16   S    
C4    C32   A    
C12   C21   S    
C2    C14   A    
C4    C17   S    
C6    C10   A    
O7    Zn1   S    
Br1   C14   S    
C7    C9    A    
C35   H15   S    
C25   O4    S    
C8    C10   A    
C11   H5    S    
C26   N2    A    
C22   O12   S    
C22   N1    A    
O8    Zn1   S    
C41   H17   S    
C21   H10   S    
C36   N1    S    
C13   C15   A    
C16   O10   A    
C1    O1    A    
O10   Zn2   S    
C18   C40   A    
C6    C13   A    
C10   C23   A    
C24   O2    S    
C17   O9    A    
C1    O6    A    
C15   C42   A    
C30   H18   S    
O6    Zn2   S    
C28   C30   A    
C7    C19   A    
C31   C33   A    
C28   C37   A    
C5    C11   A    
C35   C37   A    
N3    N4    D    
C11   C14   A    
C20   C21   D    
C25   N1    A    
C1    C20   S    
C19   H8    S    
C24   C39   A    
C3    C29   A    
