data_mof_unit_59437.cif
_audit_creation_date              2012-12-10T17:03:29-0500
_audit_creation_method            fapswitch 2.2
_symmetry_space_group_name_H-M    P1
_symmetry_Int_Tables_number       1
_space_group_crystal_system       triclinic
_cell_length_a                    15.055218
_cell_length_b                    11.057168
_cell_length_c                    9.82835
_cell_angle_alpha                 112.224564
_cell_angle_beta                  97.455777
_cell_angle_gamma                 91.545185
_cell_volume                      1496.5897191

loop_
_atom_site_label
_atom_site_type_symbol
_atom_type_description
_atom_site_fract_x
_atom_site_fract_y
_atom_site_fract_z
_atom_type_partial_charge
C1    C     C_R   0.493375 0.253225 0.438579 0.769779
C2    C     C_2   0.492219 0.489381 0.918460 -0.023718
C3    C     C_R   0.329427 0.500073 0.502008 0.850333
C4    C     C_R   0.670594 0.498707 0.497418 0.807103
C5    C     C_R   0.821173 0.617472 0.566046 -0.115762
C6    C     C_R   0.182385 0.381183 0.469230 -0.114880
C7    C     C_R   0.766559 0.499414 0.491663 -0.164668
C8    C     C_R   0.233339 0.500535 0.505227 -0.159881
C9    C     C_R   0.803708 0.380879 0.418223 -0.048039
C10   C     C_R   0.193288 0.619898 0.542831 -0.045509
C11   C     C_R   0.897917 0.379738 0.428593 0.027446
C12   C     C_R   0.508194 0.746916 0.561268 0.808806
C13   C     C_R   0.099901 0.619519 0.543480 0.029451
C14   C     C_R   0.952485 0.499607 0.491206 0.034031
C15   C     C_R   0.046714 0.498858 0.494706 0.034788
C16   C     C_R   0.912718 0.620417 0.547647 0.063297
C17   C     C_R   0.087302 0.377786 0.447374 0.061111
C18   C     C_R   0.938178 0.261828 0.369475 -0.261655
C19   C     C_R   0.057785 0.737033 0.580288 -0.287583
C20   C     C_2   0.782837 0.732807 0.671016 0.415222
C21   C     C_2   0.230844 0.265896 0.470384 0.387433
C22   C     C_2   0.744276 0.257549 0.338615 0.350038
C23   C     C_R   0.031011 0.258782 0.376322 0.022892
C24   C     C_2   0.249722 0.745220 0.586163 0.354576
C25   C     C_R   0.063554 0.130666 0.289421 0.150598
C26   C     C_R   0.046605 0.020735 0.324124 -0.080921
C27   C     C_R   0.075091 0.899306 0.239876 -0.100152
C28   C     C_R   0.119607 0.886276 0.119375 -0.069370
C29   C     C_R   0.135625 0.994615 0.082842 -0.152374
C30   C     C_R   0.107427 0.116365 0.167016 -0.179167
C31   C     C_R   0.925970 0.863972 0.591621 0.137347
C32   C     C_R   0.957807 0.982092 0.711502 -0.084748
C33   C     C_R   0.920260 0.098905 0.721507 -0.103713
C34   C     C_R   0.965453 0.739203 0.580105 0.039032
C35   C     C_R   0.850811 0.098817 0.612319 -0.116850
C36   C     C_R   0.819473 0.982090 0.492038 -0.163376
C37   C     C_R   0.857654 0.865577 0.480407 -0.189940
C38   C     C_2   0.544587 0.976484 0.758510 0.401926
C39   C     C_2   0.449885 0.025586 0.242971 0.421583
C40   C     C_2   0.487708 0.111601 0.398893 -0.184758
C41   C     C_2   0.515961 0.888701 0.599733 -0.197909
C42   C     C_2   0.515058 0.067457 0.506032 -0.148270
C43   C     C_2   0.497435 0.931271 0.488708 -0.093280
C44   C     C_2   0.507811 0.510576 0.081533 -0.003112
Cu1   Cu    Cu3+1 0.515770 0.521810 0.644910 0.981118
Cu2   Cu    Cu3+1 0.484230 0.478190 0.355090 1.013496
H1    H     H_    0.897524 0.169759 0.312518 0.148984
H2    H     H_    0.290260 0.241805 0.416838 0.033224
H3    H     H_    0.756022 0.172380 0.364914 0.040820
H4    H     H_    0.243332 0.827569 0.687787 0.070858
H5    H     H_    0.012160 0.029593 0.417160 0.144380
H6    H     H_    0.062510 0.815309 0.267929 0.137688
H7    H     H_    0.141436 0.792143 0.053992 0.136540
H8    H     H_    0.169604 0.984114 0.988923 0.130196
H9    H     H_    0.119579 0.199352 0.136927 0.130152
H10   H     H_    0.010780 0.983327 0.797942 0.131235
H11   H     H_    0.944625 0.189357 0.814460 0.137777
H12   H     H_    0.095807 0.828787 0.603113 0.141335
H13   H     H_    0.821349 0.189184 0.621110 0.129062
H14   H     H_    0.765371 0.981157 0.407694 0.146844
H15   H     H_    0.833202 0.776227 0.385760 0.135271
H16   H     H_    0.589335 0.942606 0.830027 0.108590
H17   H     H_    0.396508 0.058333 0.183006 0.076068
H18   H     H_    0.469338 0.860815 0.379502 0.223285
H19   H     H_    0.549210 0.136584 0.612204 0.211658
H20   H     H_    0.439406 0.416678 0.844960 0.172533
H21   H     H_    0.560632 0.583261 0.155028 0.153553
H22   H     H_    0.589114 0.623070 0.935047 0.210024
H23   H     H_    0.410886 0.376936 0.064947 0.207286
H24   H     H_    0.714962 0.755806 0.643322 0.030313
N1    N     N_2   0.460520 0.445420 0.137370 -0.269236
N2    N     N_2   0.539480 0.554580 0.862630 -0.280119
O1    O     O_R   0.508410 0.332340 0.577400 -0.576554
O2    O     O_2   0.207178 0.201142 0.538093 -0.531902
O3    O     O_2   0.683340 0.249426 0.239927 -0.488715
O4    O     O_2   0.301717 0.758253 0.506297 -0.534231
O5    O     O_2   0.514542 0.082886 0.813075 -0.526835
O6    O     O_2   0.481647 0.922865 0.177198 -0.555755
O7    O     O_R   0.491590 0.667660 0.422600 -0.565027
O8    O     O_R   0.481780 0.295500 0.332650 -0.558420
O9    O     O_R   0.518220 0.704500 0.667350 -0.581496
O10   O     O_R   0.383570 0.518390 0.622380 -0.579090
O11   O     O_R   0.616430 0.481610 0.377620 -0.534691
O12   O     O_R   0.356940 0.481550 0.377630 -0.558997
O13   O     O_R   0.643060 0.518450 0.622370 -0.585239
O14   O     O_2   0.825843 0.799841 0.792066 -0.533143

loop_
_geom_bond_atom_site_label_1
_geom_bond_atom_site_label_2
_ccdc_geom_bond_type
C11   C18   A    
Cu1   O10   S    
C18   H1    S    
C5    C20   S    
Cu1   Cu2   S    
C26   C27   A    
C17   C23   A    
Cu1   O1    S    
C36   C37   A    
Cu2   O7    S    
C11   C14   A    
C9    C22   S    
C29   H8    S    
C12   O7    A    
C44   N1    D    
C35   H13   S    
H23   N1    S    
C5    C16   A    
C1    C40   S    
C16   C34   A    
C35   C36   A    
C2    C44   S    
C20   O14   D    
C42   H19   S    
C21   H2    S    
C40   C42   D    
Cu1   N2    S    
C41   C43   D    
C20   H24   S    
C22   O3    D    
C4    C7    S    
C2    N2    D    
C43   H18   S    
C19   H12   S    
C24   H4    S    
C13   C19   A    
C18   C23   A    
C39   O6    D    
C38   C41   S    
C3    C8    S    
C39   C40   S    
C5    C7    A    
C24   O4    D    
C6    C8    A    
C4    O13   A    
C10   C24   S    
C25   C26   A    
C6    C21   S    
C21   O2    D    
C19   C34   A    
C31   C37   A    
Cu1   O13   S    
C29   C30   A    
C31   C32   A    
H22   N2    S    
C3    O10   A    
C31   C34   S    
C9    C11   A    
Cu2   N1    S    
C22   H3    S    
Cu2   O12   S    
C13   C15   A    
C14   C16   A    
C42   C43   S    
C3    O12   A    
C27   H6    S    
C12   C41   S    
C25   C30   A    
C15   C17   A    
C6    C17   A    
C28   C29   A    
C33   H11   S    
Cu1   O9    S    
C2    H20   S    
C10   C13   A    
C37   H15   S    
C28   H7    S    
C38   O5    D    
C39   H17   S    
C30   H9    S    
C1    O1    A    
C32   C33   A    
C26   H5    S    
Cu2   O8    S    
C4    O11   A    
C33   C35   A    
C12   O9    A    
C23   C25   S    
Cu2   O11   S    
C7    C9    A    
C8    C10   A    
C27   C28   A    
C1    O8    A    
C36   H14   S    
C14   C15   A    
C44   H21   S    
C32   H10   S    
C38   H16   S    
