data_mof_unit_13671.cif
_audit_creation_date              2012-12-10T18:47:02-0500
_audit_creation_method            fapswitch 2.2
_symmetry_space_group_name_H-M    P1
_symmetry_Int_Tables_number       1
_space_group_crystal_system       triclinic
_cell_length_a                    15.790313
_cell_length_b                    18.224944
_cell_length_c                    19.312888
_cell_angle_alpha                 88.733404
_cell_angle_beta                  91.171268
_cell_angle_gamma                 69.325629
_cell_volume                      5196.26281364

loop_
_atom_site_label
_atom_site_type_symbol
_atom_type_description
_atom_site_fract_x
_atom_site_fract_y
_atom_site_fract_z
_atom_type_partial_charge
C1    C     C_R   0.500745 0.499183 0.632295 0.793060
C2    C     C_R   0.500434 0.500536 0.367690 0.797377
C3    C     C_R   0.092427 0.417417 0.463140 -0.229542
C4    C     C_R   0.907540 0.583258 0.536993 -0.228129
C5    C     C_R   0.048136 0.366698 0.445951 -0.225173
C6    C     C_R   0.952066 0.633664 0.554663 -0.225008
C7    C     C_R   0.567226 0.529813 0.260614 -0.247968
C8    C     C_R   0.566464 0.526608 0.740947 -0.243349
C9    C     C_R   0.579712 0.523672 0.189162 0.024063
C10   C     C_R   0.574899 0.523815 0.813163 0.016677
C11   C     C_R   0.529167 0.488410 0.149463 0.035948
C12   C     C_R   0.519395 0.493515 0.852301 0.038427
C13   C     C_R   0.469050 0.458531 0.181894 -0.194078
C14   C     C_R   0.458416 0.464916 0.818622 -0.193587
C15   C     C_R   0.459147 0.462999 0.253187 -0.208309
C16   C     C_R   0.451989 0.466520 0.746538 -0.201713
C17   C     C_R   0.507401 0.499370 0.292592 -0.021742
C18   C     C_R   0.506205 0.497153 0.707673 -0.021060
C19   C     C_R   0.566095 0.417669 0.037174 0.015720
C20   C     C_R   0.488229 0.563971 0.964695 0.030845
C21   C     C_R   0.560207 0.421445 0.964616 -0.168300
C22   C     C_R   0.494323 0.560162 0.037153 -0.125804
C23   C     C_R   0.672505 0.452206 0.496541 0.802233
C24   C     C_R   0.327564 0.547772 0.503668 0.805512
C25   C     C_R   0.521947 0.493548 0.928420 -0.044748
C26   C     C_R   0.531975 0.488060 0.073410 -0.045212
C27   C     C_R   0.543815 0.261371 0.551474 0.198537
C28   C     C_R   0.455678 0.738290 0.448456 0.196839
C29   C     C_R   0.544678 0.184151 0.548905 -0.312765
C30   C     C_R   0.455819 0.815239 0.449862 -0.313545
C31   C     C_R   0.500897 0.160822 0.494768 0.096880
C32   C     C_R   0.500659 0.838752 0.503239 0.098123
C33   C     C_R   0.455399 0.217784 0.443319 -0.298279
C34   C     C_R   0.546368 0.782137 0.554938 -0.296724
C35   C     C_R   0.456070 0.294849 0.446774 0.079972
C36   C     C_R   0.545046 0.705216 0.552417 0.078768
C37   C     C_R   0.423549 0.062051 0.475343 -0.175905
C38   C     C_R   0.578359 0.937464 0.521873 -0.176403
C39   C     C_R   0.422939 0.985122 0.479499 -0.183641
C40   C     C_R   0.578957 0.014399 0.517737 -0.184131
C41   C     C_R   0.500398 0.921459 0.502687 0.124187
C42   C     C_R   0.501460 0.078059 0.494639 0.124086
C43   C     C_R   0.771158 0.423348 0.485938 -0.122512
C44   C     C_R   0.229063 0.576637 0.514727 -0.121738
C45   C     C_R   0.910564 0.333947 0.438373 -0.041176
C46   C     C_R   0.090209 0.665496 0.563451 -0.041670
C47   C     C_R   0.816828 0.354829 0.449297 -0.065939
C48   C     C_R   0.184110 0.644157 0.552867 -0.065799
C49   C     C_R   0.818309 0.470558 0.508753 -0.266665
C50   C     C_R   0.181413 0.530281 0.490908 -0.268610
C51   C     C_R   0.908946 0.455770 0.492282 0.076771
C52   C     C_R   0.090967 0.544864 0.507787 0.076348
C53   C     C_R   0.956226 0.384889 0.458990 0.096315
C54   C     C_R   0.044044 0.615315 0.541782 0.095435
C55   C     C_R   0.953441 0.509919 0.507721 0.083609
C56   C     C_R   0.046393 0.490840 0.492187 0.083716
Cu1   Cu    Cu3+1 0.500030 0.426630 0.500000 0.944426
Cu2   Cu    Cu3+1 0.499970 0.573370 0.500000 0.944522
H1    H     H_    0.087513 0.312576 0.422062 0.159247
H2    H     H_    0.912871 0.687574 0.578946 0.159442
H3    H     H_    0.586456 0.368204 0.935656 0.175555
H4    H     H_    0.467574 0.613406 0.066058 0.174228
H5    H     H_    0.577963 0.142706 0.590761 0.135794
H6    H     H_    0.422031 0.856376 0.407941 0.135388
H7    H     H_    0.420295 0.202805 0.400253 0.130245
H8    H     H_    0.582162 0.797271 0.597477 0.129028
H9    H     H_    0.420767 0.337518 0.406544 0.118479
H10   H     H_    0.580670 0.662721 0.592691 0.117548
H11   H     H_    0.362148 0.109319 0.458560 0.129119
H12   H     H_    0.639741 0.890221 0.538731 0.128798
H13   H     H_    0.361016 0.975664 0.465203 0.124049
H14   H     H_    0.640808 0.023924 0.532155 0.123575
H15   H     H_    0.217880 0.482047 0.459351 0.148520
H16   H     H_    0.781281 0.519573 0.539254 0.149414
H17   H     H_    0.163643 0.396186 0.453106 0.141012
H18   H     H_    0.836389 0.604522 0.547212 0.140886
H19   H     H_    0.606689 0.555647 0.291753 0.142562
H20   H     H_    0.608923 0.549671 0.710493 0.135203
H21   H     H_    0.429446 0.432071 0.151713 0.143422
H22   H     H_    0.415491 0.441763 0.848305 0.143840
H23   H     H_    0.413236 0.438744 0.277571 0.133825
H24   H     H_    0.404591 0.444299 0.721105 0.136741
N1    N     N_R   0.500010 0.316380 0.499980 -0.177815
N2    N     N_R   0.499990 0.683620 0.500020 -0.177863
O1    O     O_R   0.500040 0.438010 0.599820 -0.568569
O2    O     O_R   0.499960 0.561990 0.400180 -0.569785
O3    O     O_R   0.500000 0.561930 0.599810 -0.591179
O4    O     O_R   0.500000 0.438070 0.400190 -0.591850
O5    O     O_R   0.629870 0.403290 0.500000 -0.574313
O6    O     O_R   0.370130 0.596710 0.500000 -0.572311
O7    O     O_R   0.629830 0.527210 0.500000 -0.586788
O8    O     O_R   0.370170 0.472790 0.500000 -0.586739
C57   C     C_2   0.609487 0.340669 0.074267 0.316002
H25   H     H_    0.619649 0.337359 0.130127 0.076952
O9    O     O_2   0.635086 0.279695 0.042784 -0.551621
C58   C     C_2   0.444221 0.641105 0.927874 0.346087
H26   H     H_    0.432152 0.644580 0.872213 0.070404
O10   O     O_2   0.420574 0.702092 0.959370 -0.552757
C59   C     C_R   0.587141 0.280038 0.613795 0.145521
C60   C     C_R   0.673622 0.285092 0.611608 -0.119256
C61   C     C_R   0.716470 0.297383 0.672006 -0.177478
C62   C     C_R   0.674966 0.301208 0.735675 -0.092577
C63   C     C_R   0.590900 0.292179 0.738961 -0.113688
C64   C     C_R   0.546801 0.282106 0.678319 -0.171374
H27   H     H_    0.708617 0.278229 0.563678 0.138667
H28   H     H_    0.782557 0.302562 0.669570 0.131168
H29   H     H_    0.708352 0.310214 0.782523 0.126783
H30   H     H_    0.559458 0.293741 0.788449 0.136629
H31   H     H_    0.481527 0.275364 0.681618 0.121550
C65   C     C_R   0.408941 0.719607 0.388082 0.147545
C66   C     C_R   0.447801 0.712861 0.322566 -0.164510
C67   C     C_R   0.401262 0.700399 0.264156 -0.117606
C68   C     C_R   0.315724 0.694995 0.270602 -0.102976
C69   C     C_R   0.275499 0.704179 0.335105 -0.178088
C70   C     C_R   0.321234 0.717940 0.393258 -0.118646
H32   H     H_    0.514126 0.716900 0.316895 0.116347
H33   H     H_    0.431502 0.694577 0.213888 0.132541
H34   H     H_    0.280176 0.684708 0.225480 0.131572
H35   H     H_    0.208404 0.701668 0.339933 0.131742
H36   H     H_    0.287896 0.727989 0.441962 0.136112
C71   C     C_R   0.235236 0.689156 0.586407 0.134421
C72   C     C_R   0.295751 0.655129 0.642280 -0.110229
C73   C     C_R   0.343828 0.697135 0.674265 -0.110282
C74   C     C_R   0.331689 0.773350 0.650793 -0.104878
C75   C     C_R   0.270192 0.808228 0.596170 -0.128229
C76   C     C_R   0.221258 0.766719 0.564610 -0.144893
H37   H     H_    0.305568 0.596132 0.660891 0.095371
H38   H     H_    0.390718 0.670526 0.717095 0.127395
H39   H     H_    0.369552 0.805525 0.675172 0.124441
H40   H     H_    0.260350 0.867469 0.578333 0.125806
H41   H     H_    0.173348 0.794592 0.522646 0.115673
C77   C     C_R   0.766764 0.307700 0.418033 0.136032
C78   C     C_R   0.780593 0.231428 0.443511 -0.145282
C79   C     C_R   0.732713 0.187790 0.414063 -0.128477
C80   C     C_R   0.672482 0.219209 0.357952 -0.102562
C81   C     C_R   0.660511 0.294091 0.330935 -0.113278
C82   C     C_R   0.707517 0.338241 0.360782 -0.111607
H42   H     H_    0.827563 0.206265 0.486669 0.114944
H43   H     H_    0.742379 0.129591 0.434684 0.124830
H44   H     H_    0.635465 0.185371 0.335186 0.126808
H45   H     H_    0.614737 0.317931 0.286926 0.132744
H46   H     H_    0.698043 0.396093 0.339402 0.102981
C83   C     C_R   0.959190 0.260767 0.401922 0.106209
C84   C     C_R   0.014513 0.193658 0.439657 -0.174286
C85   C     C_R   0.059455 0.124453 0.405452 -0.141718
C86   C     C_R   0.049281 0.121914 0.333560 -0.109061
C87   C     C_R   0.994238 0.188611 0.295746 -0.130262
C88   C     C_R   0.949313 0.257969 0.329741 -0.129000
H47   H     H_    0.022477 0.195044 0.495392 0.126428
H48   H     H_    0.102058 0.072774 0.434665 0.123131
H49   H     H_    0.084027 0.068272 0.307163 0.123299
H50   H     H_    0.986360 0.186547 0.240104 0.129210
H51   H     H_    0.906683 0.309320 0.300058 0.123813
C89   C     C_R   0.041928 0.738071 0.600824 0.105745
C90   C     C_R   0.051461 0.739491 0.673145 -0.127636
C91   C     C_R   0.006643 0.808239 0.708010 -0.131138
C92   C     C_R   0.952044 0.875697 0.670929 -0.109908
C93   C     C_R   0.942194 0.874530 0.598900 -0.141768
C94   C     C_R   0.987012 0.805936 0.563831 -0.176069
H52   H     H_    0.093711 0.687536 0.702266 0.123184
H53   H     H_    0.014243 0.809236 0.763763 0.128318
H54   H     H_    0.917380 0.928860 0.698001 0.123111
H55   H     H_    0.899920 0.926790 0.570255 0.123128
H56   H     H_    0.979259 0.805603 0.508002 0.126577
C95   C     C_R   0.648758 0.550771 0.157916 0.101174
C96   C     C_R   0.721928 0.497713 0.123839 -0.127698
C97   C     C_R   0.788813 0.522524 0.096305 -0.126269
C98   C     C_R   0.782611 0.600558 0.101728 -0.104559
C99   C     C_R   0.710126 0.653670 0.135653 -0.114355
C100  C     C_R   0.643750 0.628824 0.164193 -0.150986
H57   H     H_    0.727975 0.436924 0.119662 0.115739
H58   H     H_    0.845775 0.481085 0.071150 0.115669
H59   H     H_    0.834260 0.619729 0.080038 0.114911
H60   H     H_    0.705649 0.713998 0.140206 0.127293
H61   H     H_    0.588488 0.670436 0.190844 0.115459
C101  C     C_R   0.643107 0.551339 0.846216 0.094823
C102  C     C_R   0.637635 0.629453 0.836140 -0.156881
C103  C     C_R   0.702860 0.655100 0.866697 -0.112334
C104  C     C_R   0.774560 0.602717 0.906515 -0.103137
C105  C     C_R   0.781093 0.524630 0.915834 -0.125321
C106  C     C_R   0.715372 0.499011 0.886208 -0.121925
H62   H     H_    0.582567 0.670459 0.805149 0.119437
H63   H     H_    0.698053 0.715479 0.859246 0.126802
H64   H     H_    0.825315 0.622487 0.929804 0.115082
H65   H     H_    0.837416 0.483780 0.945627 0.116857
H66   H     H_    0.721518 0.438241 0.893517 0.124259

loop_
_geom_bond_atom_site_label_1
_geom_bond_atom_site_label_2
_ccdc_geom_bond_type
C1    O3    A    
C38   C40   A    
C55   C56   A    
C38   H12   S    
C95   C96   A    
C31   C42   S    
C37   H11   S    
C27   C29   A    
C99   C100  A    
C66   C67   A    
C82   H46   S    
Cu2   O3    S    
C34   H8    S    
C13   H21   S    
C69   C70   A    
C73   H38   S    
C33   H7    S    
C73   C74   A    
C39   C41   A    
C51   C55   A    
C27   C59   S    
C1    C18   S    
C57   H25   S    
Cu1   O5    S    
C5    C53   A    
C91   C92   A    
Cu1   O8    S    
C68   C69   A    
C30   H6    S    
C67   H33   S    
C28   N2    A    
C20   C25   A    
C83   C84   A    
Cu2   O2    S    
C37   C42   A    
C23   C43   S    
C15   C17   A    
C72   H37   S    
C19   C26   A    
C65   C66   A    
C63   C64   A    
C62   C63   A    
C80   H44   S    
C75   H40   S    
C92   C93   A    
C87   C88   A    
C77   C78   A    
C7    C17   A    
C58   O10   D    
C50   C52   A    
C32   C41   S    
C23   O5    A    
C2    O4    A    
C66   H32   S    
C14   H22   S    
C3    H17   S    
Cu2   O7    S    
C21   H3    S    
C103  H63   S    
C19   C57   S    
C7    H19   S    
C40   C42   A    
C59   C64   A    
C20   C58   S    
C45   C53   A    
C96   H57   S    
C57   O9    D    
C95   C100  A    
C2    C17   S    
C8    H20   S    
C96   C97   A    
C101  C106  A    
C6    C54   A    
C24   O8    A    
C16   H24   S    
C67   C68   A    
C52   C54   A    
C85   C86   A    
C100  H61   S    
C45   C47   A    
C1    O1    A    
C98   H59   S    
C46   C89   S    
C46   C48   A    
C10   C101  S    
C5    H1    S    
C9    C95   S    
C61   C62   A    
C103  C104  A    
C80   C81   A    
C38   C41   A    
C15   H23   S    
Cu1   N1    S    
C50   H15   S    
C79   H43   S    
C35   N1    A    
C43   C49   A    
C11   C26   S    
C49   C51   A    
C77   C82   A    
C8    C18   A    
C104  C105  A    
C86   H49   S    
C51   C53   A    
C32   C34   A    
C93   C94   A    
C81   H45   S    
C6    H2    S    
C22   H4    S    
C78   C79   A    
C9    C11   A    
C3    C56   A    
C59   C60   A    
C94   H56   S    
C35   H9    S    
C99   H60   S    
C58   H26   S    
C46   C54   A    
C31   C33   A    
C60   H27   S    
C62   H29   S    
C16   C18   A    
Cu2   O6    S    
C89   C90   A    
C71   C72   A    
C97   H58   S    
C86   C87   A    
C10   C12   A    
C93   H55   S    
C4    C6    A    
C98   C99   A    
C12   C14   A    
C91   H53   S    
C102  C103  A    
C13   C15   A    
C4    C55   A    
C75   C76   A    
C24   C44   S    
C14   C16   A    
C88   H51   S    
C48   C71   S    
C97   C98   A    
C89   C94   A    
C105  C106  A    
C104  H64   S    
C44   C50   A    
C61   H28   S    
C7    C9    A    
C21   C25   A    
C101  C102  A    
C40   H14   S    
C84   H47   S    
C19   C21   A    
C90   H52   S    
C29   C31   A    
C85   H48   S    
C20   C22   A    
C84   C85   A    
C3    C5    A    
C24   O6    A    
C106  H66   S    
C36   H10   S    
C79   C80   A    
C47   C77   S    
Cu1   O4    S    
C12   C25   S    
C28   C65   S    
C27   N1    A    
C87   H50   S    
C71   C76   A    
C37   C39   A    
C30   C32   A    
C11   C13   A    
Cu1   Cu2   S    
C64   H31   S    
C69   H35   S    
C52   C56   A    
C76   H41   S    
C36   N2    A    
C29   H5    S    
C65   C70   A    
C28   C30   A    
C60   C61   A    
C33   C35   A    
C34   C36   A    
Cu1   O1    S    
C74   H39   S    
C2    O2    A    
C23   O7    A    
Cu2   N2    S    
C83   C88   A    
C4    H18   S    
C105  H65   S    
C68   H34   S    
C44   C48   A    
C78   H42   S    
C8    C10   A    
C70   H36   S    
C22   C26   A    
C90   C91   A    
C45   C83   S    
C39   H13   S    
C49   H16   S    
C81   C82   A    
C63   H30   S    
C72   C73   A    
C43   C47   A    
C92   H54   S    
C102  H62   S    
C74   C75   A    
