data_mof_unit_59131.cif
_audit_creation_date              2012-12-10T20:53:08-0500
_audit_creation_method            fapswitch 2.2
_symmetry_space_group_name_H-M    P1
_symmetry_Int_Tables_number       1
_space_group_crystal_system       triclinic
_cell_length_a                    18.331578
_cell_length_b                    18.2883
_cell_length_c                    18.356586
_cell_angle_alpha                 59.869974
_cell_angle_beta                  60.016786
_cell_angle_gamma                 60.094851
_cell_volume                      4350.97205189

loop_
_atom_site_label
_atom_site_type_symbol
_atom_type_description
_atom_site_fract_x
_atom_site_fract_y
_atom_site_fract_z
_atom_type_partial_charge
C1    C     C_R   0.389816 0.110133 0.110139 0.482742
C2    C     C_R   0.333151 0.824237 0.997111 -0.112548
C3    C     C_R   0.036108 0.549706 0.909279 0.027781
C4    C     C_R   0.445656 0.088939 0.965729 -0.008898
C5    C     C_R   0.554351 0.911063 0.034269 -0.008907
C6    C     C_R   0.945931 0.945896 0.554124 0.017151
C7    C     C_R   0.054069 0.054104 0.445878 0.017177
C8    C     C_R   0.946059 0.553819 0.945886 0.022921
C9    C     C_R   0.053942 0.446181 0.054113 0.022931
C10   C     C_R   0.554199 0.946053 0.945905 0.004110
C11   C     C_R   0.445803 0.053947 0.054094 0.004107
C12   C     C_2   0.959729 0.593524 0.273495 0.222766
C13   C     C_R   0.206095 0.231372 0.613231 -0.096020
C14   C     C_2   0.040254 0.406462 0.726525 0.222718
C15   C     C_2   0.463715 0.390447 0.890868 0.189440
C16   C     C_2   0.536387 0.609509 0.109074 0.189441
C17   C     C_2   0.272914 0.956072 0.651819 0.221214
C18   C     C_2   0.726949 0.044061 0.347472 0.221088
C19   C     C_R   0.793918 0.768419 0.387100 -0.095921
C20   C     C_R   0.149777 0.614676 0.285345 -0.102758
C21   C     C_R   0.850213 0.385329 0.714645 -0.102786
C22   C     C_R   0.633572 0.258996 0.012156 -0.092474
C23   C     C_R   0.366408 0.740988 0.987925 -0.092536
C24   C     C_R   0.293077 0.184123 0.571380 -0.079724
C25   C     C_R   0.706958 0.815693 0.428964 -0.079404
C26   C     C_R   0.076156 0.590624 0.311897 0.018314
C27   C     C_R   0.610184 0.889867 0.889861 0.482754
C28   C     C_R   0.923835 0.409375 0.688102 0.018318
C29   C     C_R   0.566725 0.329941 0.976696 0.014922
C30   C     C_R   0.433292 0.670039 0.023328 0.014961
C31   C     C_R   0.316505 0.093916 0.583757 0.023805
C32   C     C_R   0.683477 0.906009 0.416257 0.023831
C33   C     C_R   0.038582 0.616294 0.247767 0.066742
C34   C     C_R   0.961408 0.383690 0.752239 0.066765
C35   C     C_R   0.533537 0.316928 0.930416 0.052972
C36   C     C_R   0.466525 0.683032 0.069583 0.053001
C37   C     C_R   0.251209 0.050730 0.638902 0.058650
C38   C     C_R   0.110170 0.110226 0.389789 0.481757
C39   C     C_R   0.748699 0.949281 0.360754 0.058396
C40   C     C_R   0.077471 0.663948 0.158122 -0.062548
C41   C     C_R   0.922517 0.336026 0.841880 -0.062533
C42   C     C_R   0.568350 0.232525 0.921503 -0.070790
C43   C     C_R   0.431718 0.767418 0.078530 -0.070794
C44   C     C_R   0.163936 0.099466 0.680796 -0.067869
C45   C     C_R   0.835947 0.900517 0.318849 -0.067941
C46   C     C_R   0.150944 0.686950 0.132831 -0.131049
C47   C     C_R   0.849044 0.313031 0.867160 -0.131046
C48   C     C_R   0.634129 0.162461 0.957961 -0.116464
C49   C     C_R   0.889830 0.889774 0.610212 0.481751
C50   C     C_R   0.365898 0.837485 0.042132 -0.116452
C51   C     C_R   0.141829 0.188964 0.668156 -0.122903
C52   C     C_R   0.858107 0.810908 0.331829 -0.122872
C53   C     C_R   0.984823 0.591959 0.464355 -0.165260
C54   C     C_R   0.015182 0.408038 0.535647 -0.165186
C55   C     C_R   0.584691 0.470584 0.940622 -0.155977
C56   C     C_R   0.415309 0.529416 0.059373 -0.155977
C57   C     C_R   0.465579 0.990361 0.590302 -0.162840
C58   C     C_R   0.534411 0.009601 0.409707 -0.162895
C59   C     C_R   0.946152 0.551744 0.555778 0.012009
C60   C     C_R   0.110063 0.389960 0.110179 0.485247
C61   C     C_R   0.053850 0.448255 0.444223 0.012048
C62   C     C_R   0.553476 0.554146 0.948635 0.016452
C63   C     C_R   0.446525 0.445853 0.051361 0.016462
C64   C     C_R   0.555102 0.944359 0.552485 0.016770
C65   C     C_R   0.444891 0.055611 0.447522 0.016731
C66   C     C_R   0.962146 0.458148 0.592181 -0.054530
C67   C     C_R   0.037854 0.541851 0.407821 -0.054539
C68   C     C_R   0.468231 0.583790 0.009227 -0.048205
C69   C     C_R   0.531772 0.416206 0.990773 -0.048212
C70   C     C_R   0.590020 0.953977 0.460962 -0.053814
C71   C     C_R   0.889938 0.610040 0.889820 0.485245
C72   C     C_R   0.409972 0.045982 0.539047 -0.053842
C73   C     C_R   0.110198 0.390683 0.389573 0.499897
C74   C     C_R   0.889802 0.609317 0.610428 0.499864
C75   C     C_R   0.390081 0.390008 0.108796 0.501226
C76   C     C_R   0.609919 0.609991 0.891202 0.501231
C77   C     C_R   0.389712 0.110948 0.390421 0.499127
C78   C     C_R   0.610287 0.889045 0.609580 0.499090
C79   C     C_R   0.919572 0.189000 0.445733 -0.089885
C80   C     C_R   0.080429 0.811000 0.554273 -0.089852
C81   C     C_R   0.926223 0.402347 0.181488 -0.069259
C82   C     C_R   0.186725 0.662755 0.196381 -0.128278
C83   C     C_R   0.073780 0.597649 0.818510 -0.069265
C84   C     C_R   0.393325 0.178140 0.929625 -0.080474
C85   C     C_R   0.606691 0.821867 0.070370 -0.080501
C86   C     C_R   0.826963 0.227899 0.472862 -0.117816
C87   C     C_R   0.173037 0.772101 0.527151 -0.117769
C88   C     C_R   0.837209 0.407594 0.216753 -0.109417
C89   C     C_R   0.162796 0.592396 0.783244 -0.109386
C90   C     C_R   0.395004 0.212232 0.841993 -0.086090
C91   C     C_R   0.605015 0.787775 0.157999 -0.086132
C92   C     C_R   0.773210 0.174111 0.526547 -0.107961
C93   C     C_R   0.813263 0.337243 0.803604 -0.128295
C94   C     C_R   0.226790 0.825889 0.473469 -0.107831
C95   C     C_R   0.783709 0.461000 0.163110 -0.099864
C96   C     C_R   0.216296 0.538989 0.836886 -0.099925
C97   C     C_R   0.448993 0.158940 0.788285 -0.124057
C98   C     C_R   0.551020 0.841065 0.211711 -0.124072
C99   C     C_R   0.811786 0.081128 0.553556 -0.080284
C100  C     C_R   0.188214 0.918873 0.446456 -0.080094
C101  C     C_R   0.818932 0.509441 0.073879 -0.083521
C102  C     C_R   0.181072 0.490552 0.926118 -0.083572
C103  C     C_R   0.501553 0.071266 0.821945 -0.099182
C104  C     C_R   0.666833 0.175730 0.003005 -0.112505
C105  C     C_R   0.498453 0.928737 0.178053 -0.099187
C106  C     C_R   0.905735 0.040037 0.527102 0.017347
C107  C     C_R   0.094265 0.959963 0.472904 0.017427
C108  C     C_R   0.909501 0.504564 0.036153 0.010557
C109  C     C_R   0.090502 0.495433 0.963845 0.010573
C110  C     C_R   0.500422 0.034648 0.911155 0.004297
C111  C     C_R   0.499583 0.965353 0.088844 0.004292
C112  C     C_R   0.960316 0.094660 0.472473 0.016025
C113  C     C_R   0.039684 0.905340 0.527531 0.016052
C114  C     C_R   0.963893 0.450292 0.090720 0.027789
H1    H     H_    0.298703 0.795477 0.452566 0.112635
H2    H     H_    0.350407 0.551349 0.106788 0.141572
H3    H     H_    0.438619 0.984159 0.660132 0.144514
H4    H     H_    0.561366 0.015797 0.339878 0.144504
H5    H     H_    0.958673 0.233558 0.403857 0.104148
H6    H     H_    0.041328 0.766442 0.596148 0.104143
H7    H     H_    0.964738 0.360757 0.226299 0.115818
H8    H     H_    0.035265 0.639239 0.773699 0.115817
H9    H     H_    0.351569 0.223023 0.967947 0.147630
H10   H     H_    0.648452 0.776984 0.032046 0.147689
H11   H     H_    0.796799 0.300089 0.452205 0.106293
H12   H     H_    0.701298 0.204524 0.547455 0.112652
H13   H     H_    0.203202 0.699912 0.547809 0.106267
H14   H     H_    0.809518 0.370358 0.286116 0.115486
H15   H     H_    0.190489 0.629629 0.713879 0.115526
H16   H     H_    0.354762 0.280577 0.815463 0.151601
H17   H     H_    0.645263 0.719433 0.184528 0.151620
H18   H     H_    0.767282 0.042002 0.595345 0.107762
H19   H     H_    0.232718 0.957998 0.404670 0.107752
H20   H     H_    0.774239 0.550906 0.035244 0.135924
H21   H     H_    0.225764 0.449087 0.964753 0.135834
H22   H     H_    0.543502 0.033160 0.776890 0.120115
H23   H     H_    0.285522 0.534774 0.809144 0.153785
H24   H     H_    0.456502 0.966841 0.223109 0.120117
H25   H     H_    0.179962 0.723940 0.063797 0.116232
H26   H     H_    0.820024 0.276035 0.936190 0.116340
H27   H     H_    0.659929 0.097785 0.951030 0.126388
H28   H     H_    0.340101 0.902146 0.049092 0.126381
H29   H     H_    0.074527 0.225480 0.700869 0.115021
H30   H     H_    0.925392 0.774373 0.299110 0.115030
H31   H     H_    0.243328 0.681124 0.176714 0.123771
H32   H     H_    0.756658 0.318879 0.823264 0.123777
H33   H     H_    0.717978 0.121352 0.031028 0.122757
H34   H     H_    0.714485 0.465209 0.190851 0.153836
H35   H     H_    0.281973 0.878616 0.969136 0.122653
H36   H     H_    0.188546 0.300937 0.603104 0.112448
H37   H     H_    0.811509 0.698772 0.397484 0.112289
H38   H     H_    0.178409 0.596278 0.333905 0.112476
H39   H     H_    0.821583 0.403737 0.666079 0.112472
H40   H     H_    0.659233 0.268070 0.047861 0.119365
H41   H     H_    0.340712 0.731930 0.952240 0.119202
H42   H     H_    0.342433 0.217778 0.529201 0.102710
H43   H     H_    0.657661 0.781975 0.471410 0.102632
H44   H     H_    0.050793 0.683914 0.107468 0.161812
H45   H     H_    0.549351 0.814194 0.280000 0.113525
H46   H     H_    0.949194 0.316050 0.892539 0.161847
H47   H     H_    0.544974 0.220634 0.885981 0.156963
H48   H     H_    0.455126 0.779290 0.114039 0.156953
H49   H     H_    0.112508 0.068463 0.723264 0.158026
H50   H     H_    0.887318 0.931582 0.276115 0.158055
H51   H     H_    0.928214 0.558138 0.342517 0.098090
H52   H     H_    0.071754 0.441880 0.657511 0.098106
H53   H     H_    0.438518 0.456771 0.894190 0.111091
H54   H     H_    0.561545 0.543184 0.105774 0.111112
H55   H     H_    0.339219 0.918351 0.618174 0.112765
H56   H     H_    0.450665 0.185812 0.719995 0.113494
H57   H     H_    0.660711 0.081769 0.381238 0.112883
H58   H     H_    0.974140 0.663234 0.436280 0.146640
H59   H     H_    0.025868 0.336763 0.563721 0.146620
H60   H     H_    0.649595 0.448650 0.893208 0.141574
O1    O     O_3   0.250000 0.250000 0.250000 -0.445123
O2    O     O_R   0.865800 0.694910 0.573470 -0.545983
O3    O     O_R   0.305090 0.426530 0.134200 -0.548001
O4    O     O_R   0.694910 0.573470 0.865800 -0.547991
O5    O     O_R   0.426530 0.134200 0.305090 -0.551968
O6    O     O_R   0.573470 0.865800 0.694910 -0.552000
O7    O     O_R   0.134190 0.426530 0.134200 -0.532046
O8    O     O_R   0.865810 0.573470 0.865800 -0.532045
O9    O     O_R   0.426530 0.134200 0.134190 -0.539226
O10   O     O_R   0.573470 0.865800 0.865810 -0.539215
O11   O     O_R   0.134200 0.134190 0.426530 -0.537918
O12   O     O_3   0.750000 0.750000 0.750000 -0.445110
O13   O     O_R   0.865800 0.865810 0.573470 -0.538001
O14   O     O_R   0.426530 0.305080 0.134210 -0.527657
O15   O     O_R   0.573470 0.694920 0.865790 -0.527669
O16   O     O_R   0.305080 0.134210 0.426530 -0.534612
O17   O     O_R   0.694920 0.865790 0.573470 -0.534604
O18   O     O_R   0.134210 0.426530 0.305080 -0.536379
O19   O     O_R   0.865790 0.573470 0.694920 -0.536385
O20   O     O_2   0.928883 0.613931 0.217727 -0.515349
O21   O     O_2   0.071113 0.386022 0.782296 -0.515382
O22   O     O_2   0.433321 0.377877 0.853765 -0.559299
O23   O     O_R   0.305080 0.134200 0.134200 -0.543493
O24   O     O_2   0.566857 0.622080 0.146104 -0.559384
O25   O     O_2   0.216690 0.918872 0.700166 -0.511982
O26   O     O_2   0.783060 0.081380 0.298682 -0.512060
O27   O     O_R   0.694920 0.865800 0.865800 -0.543492
O28   O     O_R   0.134200 0.134200 0.305080 -0.540183
O29   O     O_R   0.865800 0.865800 0.694920 -0.540130
O30   O     O_R   0.134200 0.305080 0.134200 -0.542929
O31   O     O_R   0.865800 0.694920 0.865800 -0.542920
O32   O     O_R   0.134200 0.305090 0.426530 -0.545971
Zn1   Zn    Zn3+2 0.206620 0.206630 0.380140 0.933464
Zn2   Zn    Zn3+2 0.793380 0.793370 0.619860 0.933373
Zn3   Zn    Zn3+2 0.206630 0.380140 0.206620 0.942305
Zn4   Zn    Zn3+2 0.793370 0.619860 0.793380 0.942310
Zn5   Zn    Zn3+2 0.380140 0.206620 0.206630 0.934316
Zn6   Zn    Zn3+2 0.619860 0.793380 0.793370 0.934294
Zn7   Zn    Zn3+2 0.206620 0.206620 0.206620 0.931283
Zn8   Zn    Zn3+2 0.793380 0.793380 0.793380 0.931326

loop_
_geom_bond_atom_site_label_1
_geom_bond_atom_site_label_2
_ccdc_geom_bond_type
C10   C27   S    
C24   H42   S    
C73   O32   A    
C80   H6    S    
C22   C29   A    
C23   H41   S    
O19   Zn4   S    
O11   Zn1   S    
O29   Zn8   S    
C75   O14   A    
C1    C11   S    
O1    Zn1   S    
C14   O21   D    
C62   C76   S    
C87   H13   S    
C1    O9    A    
C42   H47   S    
C89   H15   S    
C55   H60   S    
C106  C112  A    
C101  H20   S    
C100  H19   S    
C84   H9    S    
C40   C46   A    
C52   H30   S    
C98   C105  A    
C21   C93   A    
C99   H18   S    
C103  C110  A    
C78   O6    A    
C26   C67   S    
O1    Zn7   S    
C54   H59   S    
C40   H44   S    
C45   H50   S    
C3    C109  A    
C13   H36   S    
C80   C87   A    
C76   O4    A    
C59   C66   A    
O14   Zn5   S    
C17   H55   S    
C91   H17   S    
C96   C102  A    
O9    Zn5   S    
C48   C104  A    
C87   C94   A    
O5    Zn5   S    
O8    Zn4   S    
C22   C104  A    
C7    C112  A    
O4    Zn4   S    
C85   H10   S    
O7    Zn3   S    
C32   C39   A    
O3    Zn3   S    
O6    Zn6   S    
C58   H4    S    
C27   O10   A    
C107  C113  A    
C76   O15   A    
C2    C50   A    
C101  C108  A    
C105  H24   S    
C102  H21   S    
C19   C52   A    
C60   O30   A    
C63   C69   A    
C8    C71   S    
C79   H5    S    
O13   Zn2   S    
C19   H37   S    
C17   O25   D    
C44   H49   S    
C64   C70   A    
C14   H52   S    
C90   C97   A    
C53   H58   S    
C89   C96   A    
C39   C45   A    
C5    C85   A    
C2    H35   S    
C105  C111  A    
C88   C95   A    
C28   C34   A    
O28   Zn7   S    
C13   C51   A    
C86   H11   S    
C9    C109  A    
C104  H33   S    
C15   H53   S    
C55   C69   A    
C34   C41   A    
C84   C90   A    
C53   C67   A    
C8    C108  A    
C15   C35   S    
C41   C47   A    
O10   Zn6   S    
C29   C69   S    
C53   C59   A    
C83   C89   A    
C33   C40   A    
C65   C77   S    
C95   H34   S    
C11   C111  A    
C81   C88   A    
C23   C30   A    
C46   C82   A    
C93   H32   S    
C3    C8    A    
C12   H51   S    
O32   Zn1   S    
C58   C70   A    
C32   C70   S    
C56   H2    S    
C45   C52   A    
C61   C73   S    
C18   H57   S    
O30   Zn7   S    
C97   H56   S    
C20   H38   S    
C13   C24   A    
C81   H7    S    
C47   H26   S    
C42   C48   A    
C28   C66   S    
C18   C39   S    
C6    C113  A    
C74   O2    A    
C41   H46   S    
C61   C67   A    
C58   C65   A    
C4    C84   A    
C94   C100  A    
C6    C106  A    
C56   C63   A    
C49   O13   A    
C77   O5    A    
C98   H45   S    
C4    C11   A    
C59   C74   S    
C97   C103  A    
C15   O22   D    
C79   C112  A    
C44   C51   A    
C55   C62   A    
C31   C72   S    
C21   C28   A    
O31   Zn8   S    
O1    Zn5   S    
O12   Zn4   S    
C18   O26   D    
C7    C107  A    
C9    C114  A    
C65   C72   A    
C96   H23   S    
C82   H31   S    
C16   O24   D    
C51   H29   S    
C63   C75   S    
C57   C64   A    
C57   H3    S    
C22   H40   S    
C60   O7    A    
C99   C106  A    
C4    C110  A    
C100  C107  A    
C47   C93   A    
C27   O27   A    
C12   O20   D    
C1    O23   A    
C78   O17   A    
C102  C109  A    
O15   Zn6   S    
C92   H12   S    
C14   C34   S    
C94   H1    S    
C43   C50   A    
C54   C66   A    
C54   C61   A    
C17   C37   S    
O18   Zn3   S    
C38   O11   A    
C5    C111  A    
C29   C35   A    
C95   C101  A    
C30   C36   A    
C83   H8    S    
C81   C114  A    
C108  C114  A    
C9    C60   S    
C37   C44   A    
C71   O8    A    
C24   C31   A    
C5    C10   A    
C88   H14   S    
C56   C68   A    
C16   C36   S    
C25   H43   S    
C103  H22   S    
O2    Zn2   S    
O12   Zn6   S    
C20   C26   A    
C16   H54   S    
C77   O16   A    
O12   Zn8   S    
C49   O29   A    
C35   C42   A    
C7    C38   S    
C48   H27   S    
C10   C110  A    
C62   C68   A    
O1    Zn3   S    
C91   C98   A    
O12   Zn2   S    
C75   O3    A    
O27   Zn8   S    
C74   O19   A    
C73   O18   A    
C64   C78   S    
C19   C25   A    
C90   H16   S    
C43   H48   S    
C31   C37   A    
O16   Zn1   S    
C71   O31   A    
O23   Zn7   S    
C3    C83   A    
C80   C113  A    
C92   C99   A    
C20   C82   A    
C38   O28   A    
C2    C23   A    
C57   C72   A    
C21   H39   S    
C46   H25   S    
C36   C43   A    
C86   C92   A    
C12   C33   S    
C85   C91   A    
C79   C86   A    
C30   C68   S    
C6    C49   S    
C50   H28   S    
C26   C33   A    
O17   Zn2   S    
C25   C32   A    
