data_mof_unit_26552.cif
_audit_creation_date              2013-03-05T16:04:52-0500
_audit_creation_method            fapswitch 2.2
_symmetry_space_group_name_H-M    P1
_symmetry_Int_Tables_number       1
_space_group_crystal_system       triclinic
_cell_length_a                    15.83764
_cell_length_b                    14.851437
_cell_length_c                    9.644703
_cell_angle_alpha                 90.000266
_cell_angle_beta                  89.999872
_cell_angle_gamma                 90.0
_cell_volume                      2268.54711097

loop_
_atom_site_label
_atom_site_type_symbol
_atom_site_description
_atom_site_fract_x
_atom_site_fract_y
_atom_site_fract_z
_atom_type_partial_charge
O1    O     O_R   0.090170 0.409820 0.618740 -0.545545
O2    O     O_R   0.909830 0.590180 0.381260 -0.538849
O3    O     O_R   0.909830 0.590180 0.618740 -0.545548
O4    O     O_R   0.090170 0.409820 0.381260 -0.538844
O5    O     O_R   0.909830 0.409820 0.381260 -0.545543
O6    O     O_R   0.090170 0.590180 0.618740 -0.538849
O7    O     O_R   0.090170 0.590180 0.381260 -0.545547
O8    O     O_R   0.909830 0.409820 0.618740 -0.538846
O9    O     O_R   0.590170 0.909820 0.618740 -0.538850
O10   O     O_R   0.409830 0.090180 0.381260 -0.545544
O11   O     O_R   0.409830 0.090180 0.618740 -0.538845
O12   O     O_R   0.590170 0.909820 0.381260 -0.545544
O13   O     O_R   0.409830 0.909820 0.381260 -0.538847
O14   O     O_R   0.590170 0.090180 0.618740 -0.545544
O15   O     O_R   0.590170 0.090180 0.381260 -0.538847
O16   O     O_R   0.409830 0.909820 0.618740 -0.545550
C1    C     C_R   0.123885 0.387050 0.499171 0.850317
C2    C     C_R   0.876115 0.612949 0.499171 0.850310
C3    C     C_R   0.876115 0.387051 0.500829 0.850318
C4    C     C_R   0.123885 0.612949 0.500829 0.850311
C5    C     C_R   0.623885 0.887051 0.500829 0.850312
C6    C     C_R   0.376115 0.112949 0.500829 0.850317
C7    C     C_R   0.376115 0.887050 0.499171 0.850312
C8    C     C_R   0.623885 0.112949 0.499171 0.850317
N1    N     N_R   0.000000 0.500000 0.852070 -0.313703
N2    N     N_R   0.000000 0.500000 0.147930 -0.313701
N3    N     N_R   0.500000 1.000000 0.852070 -0.313703
N4    N     N_R   0.500000 0.000000 0.147930 -0.313700
Cu1   Cu    Cu3+1 0.000000 0.500000 0.640660 1.103136
Cu2   Cu    Cu3+1 0.000000 0.500000 0.359340 1.103136
Cu3   Cu    Cu3+1 0.500000 0.000000 0.640660 1.103136
Cu4   Cu    Cu3+1 0.500000 0.000000 0.359340 1.103137
C9    C     C_R   0.994815 0.420893 0.073381 0.298171
C10   C     C_R   0.994816 0.579107 0.926618 0.298176
C11   C     C_R   0.005184 0.579107 0.073383 0.298178
C12   C     C_R   0.005184 0.420893 0.926617 0.298175
C13   C     C_R   0.505185 0.920893 0.073381 0.298171
C14   C     C_R   0.505185 0.079107 0.926619 0.298171
C15   C     C_R   0.494815 0.079107 0.073383 0.298176
C16   C     C_R   0.494816 0.920893 0.926617 0.298181
C17   C     C_R   0.764681 0.299862 0.379197 0.142732
C18   C     C_R   0.218911 0.720030 0.627406 0.186105
C19   C     C_R   0.235321 0.700135 0.379198 0.142733
C20   C     C_R   0.781089 0.279971 0.627406 0.186101
C21   C     C_R   0.235319 0.299864 0.620802 0.142731
C22   C     C_R   0.781089 0.720028 0.372593 0.186105
C23   C     C_R   0.764681 0.700138 0.620803 0.142735
C24   C     C_R   0.218909 0.279968 0.372594 0.186099
C25   C     C_R   0.281091 0.779968 0.372593 0.186101
C26   C     C_R   0.735318 0.200138 0.620803 0.142733
C27   C     C_R   0.718911 0.220029 0.372594 0.186101
C28   C     C_R   0.264680 0.799863 0.620802 0.142734
C29   C     C_R   0.718912 0.779972 0.627406 0.186106
C30   C     C_R   0.264680 0.200135 0.379198 0.142731
C31   C     C_R   0.281090 0.220031 0.627406 0.186099
C32   C     C_R   0.735319 0.799862 0.379196 0.142733
C33   C     C_R   0.196304 0.675102 0.503795 -0.263567
C34   C     C_R   0.803697 0.324898 0.503795 -0.263565
C35   C     C_R   0.803697 0.675102 0.496205 -0.263569
C36   C     C_R   0.196303 0.324897 0.496205 -0.263564
C37   C     C_R   0.696303 0.175103 0.496205 -0.263566
C38   C     C_R   0.303697 0.824897 0.496204 -0.263566
C39   C     C_R   0.303697 0.175102 0.503795 -0.263564
C40   C     C_R   0.696304 0.824898 0.503794 -0.263568
N5    N     N_R   0.971946 0.337282 0.138788 0.178437
O17   O     O_R   0.023398 0.296921 0.222822 -0.287709
O18   O     O_R   0.910617 0.290100 0.086394 -0.286004
N6    N     N_R   0.971951 0.662717 0.861209 0.178438
O19   O     O_R   0.910612 0.709894 0.913588 -0.286011
O20   O     O_R   0.023415 0.703086 0.777201 -0.287708
N7    N     N_R   0.028049 0.662717 0.138793 0.178439
O21   O     O_R   0.089388 0.709893 0.086416 -0.286012
O22   O     O_R   0.976585 0.703086 0.222801 -0.287708
N8    N     N_R   0.028051 0.337282 0.861208 0.178440
O23   O     O_R   0.976594 0.296919 0.777184 -0.287706
O24   O     O_R   0.089383 0.290102 0.913595 -0.286010
N9    N     N_R   0.528052 0.837283 0.138789 0.178436
O25   O     O_R   0.589386 0.790103 0.086401 -0.286004
O26   O     O_R   0.476596 0.796918 0.222812 -0.287711
N10   N     N_R   0.528052 0.162718 0.861212 0.178438
O27   O     O_R   0.476599 0.203080 0.777180 -0.287709
O28   O     O_R   0.589383 0.209899 0.913604 -0.286005
N11   N     N_R   0.471948 0.162717 0.138792 0.178440
O29   O     O_R   0.523405 0.203082 0.222816 -0.287706
O30   O     O_R   0.410615 0.209897 0.086406 -0.286010
N12   N     N_R   0.471953 0.837283 0.861205 0.178440
O31   O     O_R   0.410612 0.790107 0.913579 -0.286017
O32   O     O_R   0.523419 0.796913 0.777203 -0.287705
I1    I     I_    0.747388 0.395532 0.216491 -0.090942
I2    I     I_    0.216639 0.655257 0.824539 -0.037857
I3    I     I_    0.252616 0.604461 0.216495 -0.090945
I4    I     I_    0.783363 0.344746 0.824539 -0.037866
I5    I     I_    0.252613 0.395536 0.783507 -0.090947
I6    I     I_    0.783360 0.655253 0.175461 -0.037862
I7    I     I_    0.747384 0.604467 0.783507 -0.090935
I8    I     I_    0.216632 0.344738 0.175458 -0.037862
I9    I     I_    0.283366 0.844739 0.175458 -0.037858
I10   I     I_    0.752612 0.104468 0.783510 -0.090942
I11   I     I_    0.716637 0.155255 0.175461 -0.037866
I12   I     I_    0.247384 0.895537 0.783505 -0.090941
I13   I     I_    0.716643 0.844749 0.824537 -0.037861
I14   I     I_    0.247387 0.104462 0.216494 -0.090949
I15   I     I_    0.283366 0.155260 0.824541 -0.037863
I16   I     I_    0.752614 0.895532 0.216491 -0.090938

loop_
_geom_bond_atom_site_label_1
_geom_bond_atom_site_label_2
_geom_bond_distance
_ccdc_geom_bond_type
C17   I1    2.134570 S    
C21   C36   1.401485 A    
C8    C37   1.472518 S    
C22   C35   1.412352 A    
O2    C2    1.301053 A    
O13   Cu4   1.969224 S    
C20   C34   1.412350 A    
C27   C37   1.412351 A    
O14   Cu3   1.969222 S    
C21   I5    2.134574 S    
C9    N5    1.439111 S    
O15   Cu4   1.969221 S    
N9    O25   1.299930 A    
O10   C6    1.315051 A    
O16   Cu3   1.969224 S    
C24   C30   1.391137 A    
N8    O24   1.299928 A    
O8    Cu1   1.969224 S    
C17   C34   1.401484 A    
C13   C16   1.424994 A    
C14   C15   1.424993 A    
C29   C40   1.412350 A    
N12   O32   1.296242 A    
C30   C39   1.401485 A    
N3    C14   1.379845 A    
O14   C8    1.315051 A    
C31   I15   2.131105 S    
C9    C12   1.424992 A    
O13   C7    1.301053 A    
O3    C2    1.315053 A    
C10   C11   1.424995 A    
C16   N12   1.439103 S    
O3    Cu1   1.969224 S    
C5    C40   1.472518 S    
C6    C39   1.472516 S    
C7    C38   1.472518 S    
N11   O29   1.296234 A    
C29   I13   2.131103 S    
N6    O19   1.299933 A    
N5    O18   1.299928 A    
C31   C39   1.412351 A    
C32   C40   1.401484 A    
C20   I4    2.131103 S    
N1    C10   1.379840 A    
C23   C29   1.391135 A    
O11   Cu3   1.969224 S    
O7    Cu2   1.969221 S    
O12   Cu4   1.969224 S    
N1    Cu1   2.038987 S    
C18   C33   1.412350 A    
C24   C36   1.412351 A    
N9    O26   1.296238 A    
C3    C34   1.472516 S    
C27   I11   2.131103 S    
C26   I10   2.134570 S    
O8    C3    1.301054 A    
N8    O23   1.296234 A    
N3    Cu3   2.038987 S    
N4    Cu4   2.038988 S    
C32   I16   2.134569 S    
N10   O28   1.299928 A    
C10   N6    1.439105 S    
N7    O22   1.296243 A    
C19   C33   1.401484 A    
N12   O31   1.299931 A    
C19   C25   1.391138 A    
N1    C12   1.379843 A    
N4    C15   1.379841 A    
C13   N9    1.439108 S    
O12   C5    1.315052 A    
C28   I12   2.134572 S    
C19   I3    2.134574 S    
C18   I2    2.131105 S    
Cu1   Cu2   2.713248 S    
N2    C11   1.379841 A    
N2    C9    1.379846 A    
Cu3   Cu4   2.713248 S    
C22   I6    2.131105 S    
N3    C16   1.379839 A    
O1    Cu1   1.969222 S    
C12   N8    1.439109 S    
O4    C1    1.301055 A    
O15   C8    1.301053 A    
N11   O30   1.299928 A    
N2    Cu2   2.038988 S    
O16   C7    1.315053 A    
O5    Cu2   1.969224 S    
C20   C26   1.391137 A    
C25   C38   1.412352 A    
C24   I8    2.131104 S    
C30   I14   2.134575 S    
N10   O27   1.296233 A    
O5    C3    1.315051 A    
O6    C4    1.301053 A    
O11   C6    1.301054 A    
O1    C1    1.315050 A    
O2    Cu2   1.969222 S    
C15   N11   1.439109 S    
N7    O21   1.299932 A    
C11   N7    1.439105 S    
C28   C38   1.401483 A    
O9    C5    1.301053 A    
C14   N10   1.439111 S    
N4    C13   1.379847 A    
N5    O17   1.296234 A    
C25   I9    2.131105 S    
O9    Cu3   1.969222 S    
C1    C36   1.472516 S    
C23   C35   1.401483 A    
O10   Cu4   1.969222 S    
C2    C35   1.472517 S    
O6    Cu1   1.969222 S    
C21   C31   1.391137 A    
N6    O20   1.296243 A    
O7    C4    1.315052 A    
C22   C32   1.391136 A    
C26   C37   1.401483 A    
C23   I7    2.134569 S    
C4    C33   1.472518 S    
C17   C27   1.391137 A    
O4    Cu2   1.969224 S    
C18   C28   1.391137 A    
