data_mof_unit_15973.cif
_audit_creation_date              2012-12-11T15:35:00-0500
_audit_creation_method            fapswitch 2.2
_symmetry_space_group_name_H-M    P1
_symmetry_Int_Tables_number       1
_space_group_crystal_system       triclinic
_cell_length_a                    30.636468
_cell_length_b                    7.26381
_cell_length_c                    25.908244
_cell_angle_alpha                 90.019435
_cell_angle_beta                  111.900897
_cell_angle_gamma                 89.957296
_cell_volume                      5349.45615778

loop_
_atom_site_label
_atom_site_type_symbol
_atom_type_description
_atom_site_fract_x
_atom_site_fract_y
_atom_site_fract_z
_atom_type_partial_charge
O1    O     O_R   0.295360 0.592990 0.320420 -0.529662
O2    O     O_R   0.704640 0.407010 0.679580 -0.532349
O3    O     O_R   0.204640 0.092990 0.179580 -0.531476
O4    O     O_R   0.795360 0.907010 0.820420 -0.532435
O5    O     O_R   0.294060 0.265620 0.213230 -0.545025
O6    O     O_R   0.705940 0.734380 0.786770 -0.540155
O7    O     O_R   0.205940 0.765620 0.286770 -0.541716
O8    O     O_R   0.794060 0.234380 0.713230 -0.540269
C1    C     C_R   0.304110 0.432295 0.199447 0.729287
C2    C     C_R   0.695866 0.567821 0.800265 0.730385
C3    C     C_R   0.195833 0.932354 0.300269 0.733083
C4    C     C_R   0.804145 0.067686 0.699745 0.730526
O9    O     O_R   0.300850 0.263360 0.322080 -0.537046
O10   O     O_R   0.699150 0.736640 0.677920 -0.535353
O11   O     O_R   0.199150 0.763360 0.177920 -0.537883
O12   O     O_R   0.800850 0.236640 0.822080 -0.535411
O13   O     O_R   0.211480 0.091820 0.289210 -0.534383
O14   O     O_R   0.788520 0.908180 0.710790 -0.536180
O15   O     O_R   0.288520 0.591820 0.210790 -0.535725
O16   O     O_R   0.711480 0.408180 0.789210 -0.535956
C5    C     C_R   0.313306 0.431419 0.343085 0.695913
C6    C     C_R   0.686705 0.568570 0.656877 0.692749
C7    C     C_R   0.186726 0.931469 0.156912 0.688542
C8    C     C_R   0.813295 0.068512 0.843115 0.692807
O17   O     O_3   0.220670 0.426670 0.239090 -0.372134
O18   O     O_3   0.779330 0.573330 0.760910 -0.373309
O19   O     O_3   0.279330 0.926670 0.260910 -0.373127
O20   O     O_3   0.720670 0.073330 0.739090 -0.372951
V1    V     V_3+5 0.255440 0.152290 0.252020 1.451365
V2    V     V_3+5 0.744560 0.847710 0.747980 1.457994
V3    V     V_3+5 0.244560 0.652290 0.247980 1.453799
V4    V     V_3+5 0.755440 0.347710 0.752020 1.457715
C9    C     C_R   0.850882 0.063834 0.899260 -0.087999
C10   C     C_R   0.149062 0.936191 0.100882 -0.083014
C11   C     C_R   0.649135 0.564209 0.600713 -0.088120
C12   C     C_R   0.351008 0.435832 0.399119 -0.087810
C13   C     C_R   0.873767 0.129149 0.997654 -0.050719
C14   C     C_R   0.126175 0.872658 0.002442 -0.044032
C15   C     C_R   0.626113 0.632494 0.502480 -0.050407
C16   C     C_R   0.374169 0.368814 0.497400 -0.050498
C17   C     C_R   0.840677 0.134913 0.943364 -0.193867
C18   C     C_R   0.159365 0.867241 0.056637 -0.202572
C19   C     C_R   0.659232 0.637067 0.556760 -0.193335
C20   C     C_R   0.340930 0.364349 0.443221 -0.191959
C21   C     C_R   0.896854 0.001389 0.908611 -0.098581
C22   C     C_R   0.102974 0.996424 0.091848 -0.100907
C23   C     C_R   0.603233 0.500946 0.591245 -0.098658
C24   C     C_R   0.396977 0.497600 0.408250 -0.101207
C25   C     C_R   0.933627 0.023783 0.962348 0.043542
C26   C     C_R   0.066160 0.974801 0.038049 0.042277
C27   C     C_R   0.566401 0.524468 0.537596 0.043551
C28   C     C_R   0.433888 0.474994 0.461941 0.043699
C29   C     C_R   0.920153 0.062777 0.008379 0.035339
C30   C     C_R   0.079652 0.937222 0.991891 0.036791
C31   C     C_R   0.579784 0.565522 0.491634 0.035372
C32   C     C_R   0.420541 0.434940 0.508042 0.035406
C33   C     C_R   0.983018 0.006035 0.972521 0.052090
C34   C     C_R   0.016736 0.992142 0.027886 0.051827
C35   C     C_R   0.517038 0.505962 0.527443 0.052127
C36   C     C_R   0.483274 0.493441 0.472064 0.051465
C37   C     C_R   0.999635 0.982617 0.071104 -0.189688
C38   C     C_R   0.000010 0.015531 0.929235 -0.188991
C39   C     C_R   0.500310 0.486195 0.428760 -0.189847
C40   C     C_R   0.500101 0.513372 0.570805 -0.188163
C41   C     C_R   0.953254 0.027348 0.062829 -0.082939
C42   C     C_R   0.046429 0.972067 0.937456 -0.082646
C43   C     C_R   0.546653 0.531547 0.437106 -0.082929
C44   C     C_R   0.453752 0.468828 0.562537 -0.082774
H1    H     H_    0.194423 0.814509 0.064345 0.109300
H2    H     H_    0.805757 0.189322 0.935500 0.124329
H3    H     H_    0.306008 0.310230 0.435430 0.121550
H4    H     H_    0.694092 0.692097 0.564727 0.124340
H5    H     H_    0.021938 0.935736 0.112015 0.144162
H6    H     H_    0.977523 0.061395 0.888263 0.145017
H7    H     H_    0.477991 0.440572 0.387715 0.145254
H8    H     H_    0.522574 0.558345 0.611880 0.144906
C45   C     C_R   0.091842 0.952744 0.479729 0.640166
C46   C     C_R   0.908141 0.997414 0.521423 0.635224
C47   C     C_R   0.406564 0.492867 0.018390 0.635909
C48   C     C_R   0.590968 0.486376 0.976982 0.629614
N1    N     N_R   0.072656 0.968346 0.422894 -0.555264
N2    N     N_R   0.927690 0.022594 0.577923 -0.554071
N3    N     N_R   0.425997 0.474453 0.075068 -0.541198
N4    N     N_R   0.572051 0.527847 0.921437 -0.551487
C49   C     C_R   0.025166 0.996252 0.395904 0.572261
C50   C     C_R   0.975572 0.038897 0.604558 0.572519
C51   C     C_R   0.473910 0.468683 0.102523 0.605065
C52   C     C_R   0.524785 0.561435 0.895315 0.573315
C53   C     C_R   0.994426 0.993003 0.425605 -0.068837
C54   C     C_R   0.006058 0.013657 0.575089 -0.070258
C55   C     C_R   0.504490 0.470261 0.072554 -0.073216
C56   C     C_R   0.493834 0.543535 0.924495 -0.069346
C57   C     C_R   0.014592 0.988872 0.484458 -0.015691
C58   C     C_R   0.985733 0.999834 0.516382 -0.015387
C59   C     C_R   0.484500 0.496039 0.014124 -0.011159
C60   C     C_R   0.513583 0.507111 0.982410 -0.013643
C61   C     C_R   0.063660 0.973696 0.511554 -0.047474
C62   C     C_R   0.936502 0.996803 0.489433 -0.048117
C63   C     C_R   0.435362 0.510674 0.987228 -0.035501
C64   C     C_R   0.562469 0.481548 0.008777 -0.045636
C65   C     C_R   0.944569 0.994346 0.399160 -0.074847
C66   C     C_R   0.055821 0.002223 0.601619 -0.074655
C67   C     C_R   0.554053 0.447350 0.098361 -0.074894
C68   C     C_R   0.444135 0.560633 0.898408 -0.073713
C69   C     C_R   0.916471 0.991990 0.431139 -0.165526
C70   C     C_R   0.083686 0.978448 0.569850 -0.165607
C71   C     C_R   0.582069 0.450779 0.066330 -0.164876
C72   C     C_R   0.415761 0.541708 0.929688 -0.173052
O21   O     O_2   0.138177 0.917000 0.505549 -0.495109
O22   O     O_2   0.861277 0.972874 0.496097 -0.495118
O23   O     O_2   0.359345 0.493668 0.992119 -0.521867
O24   O     O_2   0.637369 0.449634 0.001489 -0.501276
O25   O     O_2   0.008059 0.030051 0.340758 -0.499313
O26   O     O_2   0.993370 0.082266 0.659086 -0.500408
O27   O     O_2   0.491635 0.463210 0.158582 -0.500062
O28   O     O_2   0.508149 0.613791 0.841511 -0.501774
H9    H     H_    0.878520 0.989669 0.410060 0.179237
H10   H     H_    0.121511 0.966771 0.591046 0.178474
H11   H     H_    0.619724 0.430882 0.086900 0.178839
H12   H     H_    0.377909 0.553233 0.908714 0.174159
C73   C     C_R   0.901495 0.909271 0.652881 -0.086093
C74   C     C_R   0.096484 0.823732 0.349704 -0.081834
C75   C     C_R   0.598018 0.413312 0.846701 -0.086944
C76   C     C_R   0.393658 0.301329 0.135858 -0.106812
C77   C     C_R   0.870710 0.919722 0.681489 -0.226597
C78   C     C_R   0.127003 0.814583 0.320645 -0.233720
C79   C     C_R   0.628888 0.422190 0.818171 -0.226985
C80   C     C_R   0.363605 0.290892 0.165431 -0.236343
H13   H     H_    0.873795 0.820468 0.713897 0.170213
H14   H     H_    0.121695 0.709311 0.289190 0.150392
H15   H     H_    0.625492 0.323408 0.785537 0.170244
H16   H     H_    0.362671 0.165327 0.187611 0.154738
C81   C     C_R   0.836516 0.058474 0.669337 -0.111948
C82   C     C_R   0.163742 0.941793 0.331120 -0.102781
C83   C     C_R   0.663538 0.559214 0.830718 -0.111414
C84   C     C_R   0.335710 0.442012 0.167588 -0.092519
C85   C     C_R   0.832893 0.186146 0.627364 -0.264448
C86   C     C_R   0.169940 0.078030 0.371603 -0.255853
C87   C     C_R   0.667546 0.686342 0.873012 -0.264782
C88   C     C_R   0.337969 0.603648 0.138843 -0.295605
H17   H     H_    0.805979 0.291787 0.616665 0.145576
H18   H     H_    0.198618 0.175558 0.380954 0.142969
H19   H     H_    0.694763 0.790658 0.883975 0.145308
H20   H     H_    0.317372 0.721802 0.141359 0.135526
C89   C     C_R   0.862721 0.175299 0.597372 0.520934
C90   C     C_R   0.140121 0.087957 0.401509 0.517733
C91   C     C_R   0.637587 0.676705 0.902849 0.519394
C92   C     C_R   0.366487 0.613995 0.106772 0.526953
C93   C     C_R   0.897334 0.035500 0.609604 0.229824
C94   C     C_R   0.103070 0.959626 0.391198 0.227588
C95   C     C_R   0.602585 0.539017 0.890114 0.236112
C96   C     C_R   0.395404 0.463106 0.106371 0.263933
C97   C     C_1   0.940593 0.016799 0.111245 0.347469
N5    N     N_1   0.930838 0.007471 0.150244 -0.244878
C98   C     C_1   0.058928 0.983006 0.888926 0.349089
N6    N     N_1   0.068537 0.992630 0.849827 -0.247646
C99   C     C_1   0.559264 0.523108 0.388624 0.348334
N7    N     N_1   0.568985 0.515463 0.349573 -0.246860
C100  C     C_1   0.441274 0.477704 0.611115 0.348254
N8    N     N_1   0.431677 0.485688 0.650249 -0.247831
O29   O     O_3   0.855358 0.292643 0.552940 -0.527246
C101  C     C_3   0.879940 0.457298 0.573013 -0.184919
H21   H     H_    0.918429 0.431490 0.593137 0.151987
H22   H     H_    0.866355 0.528081 0.602081 0.122193
H23   H     H_    0.874380 0.551088 0.537327 0.187869
O30   O     O_3   0.149575 0.216059 0.443696 -0.527996
C102  C     C_3   0.124445 0.377929 0.421331 -0.189326
H24   H     H_    0.085866 0.352871 0.405693 0.153870
H25   H     H_    0.134974 0.435536 0.387871 0.121926
H26   H     H_    0.132778 0.482688 0.454798 0.187956
O31   O     O_3   0.644940 0.793422 0.947423 -0.529426
C103  C     C_3   0.620826 0.959284 0.927392 -0.182804
H27   H     H_    0.582297 0.935323 0.906828 0.152181
H28   H     H_    0.634790 0.029815 0.898642 0.123044
H29   H     H_    0.626340 0.052624 0.963170 0.192245
O32   O     O_3   0.370198 0.773270 0.078851 -0.540365
C104  C     C_3   0.326164 0.859054 0.051680 -0.180444
H30   H     H_    0.317289 0.949073 0.081035 0.112323
H31   H     H_    0.297514 0.757930 0.031478 0.148639
H32   H     H_    0.328795 0.949007 0.018373 0.185904
C105  C     C_1   0.096184 0.099690 0.136182 0.278261
N9    N     N_1   0.091067 0.182507 0.171700 -0.332489
C106  C     C_1   0.903607 0.893920 0.865029 0.284295
N10   N     N_1   0.908826 0.807360 0.830253 -0.352298
C107  C     C_1   0.403537 0.603129 0.364202 0.280949
N11   N     N_1   0.408473 0.687772 0.328914 -0.328563
C108  C     C_1   0.596618 0.391769 0.634571 0.284548
N12   N     N_1   0.591517 0.303845 0.669145 -0.352348
C109  C     C_1   0.859228 0.206566 0.040118 0.326181
N13   N     N_1   0.847283 0.269377 0.073776 -0.267798
C110  C     C_1   0.140869 0.796995 0.959882 0.308685
N14   N     N_1   0.152962 0.735592 0.926168 -0.286753
C111  C     C_1   0.640547 0.711834 0.460199 0.325804
N15   N     N_1   0.652409 0.776182 0.426692 -0.269260
C112  C     C_1   0.359756 0.290300 0.539806 0.327001
N16   N     N_1   0.347903 0.226608 0.573406 -0.267982
C113  C     C_1   0.920472 0.989878 0.339414 0.441849
N17   N     N_1   0.901029 0.986192 0.291596 -0.245835
C114  C     C_1   0.079898 0.005698 0.661375 0.439163
N18   N     N_1   0.099321 0.008275 0.709202 -0.250757
C115  C     C_1   0.577874 0.414544 0.157302 0.439663
N19   N     N_1   0.597113 0.388170 0.204464 -0.249590
C116  C     C_1   0.420278 0.592294 0.839412 0.438489
N20   N     N_1   0.401008 0.617550 0.792196 -0.250392
C117  C     C_1   0.937101 0.767514 0.668828 0.366329
N21   N     N_1   0.965833 0.654551 0.681971 -0.306078
C118  C     C_1   0.058666 0.691708 0.336247 0.360893
N22   N     N_1   0.028186 0.586479 0.325211 -0.302522
C119  C     C_1   0.561855 0.273983 0.830750 0.362114
N23   N     N_1   0.532710 0.162804 0.817715 -0.301472
C120  C     C_1   0.423084 0.145197 0.136733 0.423950
N24   N     N_1   0.447082 0.021059 0.137713 -0.269036

loop_
_geom_bond_atom_site_label_1
_geom_bond_atom_site_label_2
_ccdc_geom_bond_type
O17   V3    S    
N3    C51   A    
O31   C103  S    
O1    C5    A    
C99   N7    T    
C51   C55   A    
O19   V1    S    
C9    C21   A    
C115  N19   T    
C72   H12   S    
O3    C7    A    
C59   C60   A    
C10   C18   A    
C73   C117  S    
C48   N4    A    
C11   C23   A    
C88   C92   A    
O29   C101  S    
C107  N11   T    
C25   C33   A    
C33   C38   A    
C102  H25   S    
C5    C12   S    
C105  N9    T    
C81   C85   A    
C6    C11   S    
C15   C111  S    
C87   C91   A    
C35   C40   A    
C92   O32   S    
C62   C69   A    
C89   O29   S    
C36   C39   A    
C40   C44   A    
C22   C105  S    
C47   C63   A    
C79   C83   A    
C14   C18   A    
C80   C84   A    
C100  N8    T    
C42   C98   S    
O4    C8    A    
C65   C113  S    
C92   C96   A    
C58   C62   A    
C59   C63   A    
C77   C81   A    
N1    C94   S    
C60   C64   A    
O1    V3    S    
O13   V1    S    
C31   C43   A    
C20   H3    S    
O2    V4    S    
O3    V1    S    
O12   V4    S    
C54   C66   A    
C41   C97   S    
C28   C36   A    
C90   C94   A    
C87   H19   S    
C1    O15   A    
C15   C31   A    
C52   C56   A    
C2    O16   A    
C104  H31   S    
C46   C62   A    
C45   C61   A    
C10   C22   A    
C45   N1    A    
C44   C100  S    
C11   C19   A    
C16   C20   A    
O5    V1    S    
C111  N15   T    
C103  H29   S    
C84   C88   A    
C76   C80   A    
C13   C29   A    
C7    C10   S    
C34   C37   A    
O11   C7    A    
C82   C86   A    
C76   C96   A    
O15   V3    S    
C114  N18   T    
O12   C8    A    
C16   C32   A    
C70   H10   S    
C53   C57   A    
C69   H9    S    
C113  N17   T    
O10   V2    S    
C80   H16   S    
C71   H11   S    
C103  H28   S    
N1    C49   A    
C54   C58   A    
C102  H26   S    
C101  H22   S    
C56   C60   A    
C65   C69   A    
C39   C43   A    
O7    V3    S    
C13   C109  S    
C38   C42   A    
C52   O28   S    
C118  N22   T    
C26   C34   A    
C68   C116  S    
N4    C52   A    
C2    C83   S    
C91   O31   S    
C43   C99   S    
C50   C54   A    
C3    C82   S    
C102  H24   S    
C49   C53   A    
O18   V4    S    
C23   C27   A    
C37   H5    S    
C117  N21   T    
C18   H1    S    
C110  N14   T    
O8    V4    S    
C74   C78   A    
O7    C3    A    
C106  N10   T    
C67   C115  S    
C35   C36   A    
C73   C77   A    
C63   C72   A    
C37   C41   A    
C101  H23   S    
C46   N2    A    
C108  N12   T    
C75   C79   A    
C120  N24   T    
C14   C30   A    
C21   C25   A    
C1    C84   S    
O8    C4    A    
C104  H32   S    
C48   O24   S    
C119  N23   T    
C40   H8    S    
O9    C5    A    
C46   O22   S    
C57   C58   A    
C26   C30   A    
C45   O21   S    
O14   V2    S    
C61   C70   A    
O32   C104  S    
O6    V2    S    
C14   C110  S    
C4    C81   S    
C86   H18   S    
O30   C102  S    
C12   C20   A    
C27   C35   A    
C23   C108  S    
C57   C61   A    
C68   C72   A    
C29   C41   A    
C103  H27   S    
C21   C106  S    
N3    C96   S    
O16   V4    S    
O9    V1    S    
C19   H4    S    
C85   H17   S    
C3    O13   A    
C64   C71   A    
C53   C65   A    
C51   O27   S    
C74   C118  S    
C75   C95   A    
C88   H20   S    
C55   C67   A    
O6    C2    A    
C15   C19   A    
O11   V3    S    
C30   C42   A    
C76   C120  S    
C101  H21   S    
C22   C26   A    
C8    C9    S    
C47   O23   S    
C50   O26   S    
C83   C87   A    
C9    C17   A    
C13   C17   A    
O10   C6    A    
C79   H15   S    
C49   O25   S    
C24   C107  S    
C85   C89   A    
C32   C44   A    
C66   C114  S    
N2    C50   A    
C33   C34   A    
C39   H7    S    
C86   C90   A    
C25   C29   A    
C91   C95   A    
C75   C119  S    
O20   V2    S    
O2    C6    A    
C73   C93   A    
C12   C24   A    
C27   C31   A    
C90   O30   S    
C109  N13   T    
O4    V2    S    
C74   C94   A    
N2    C93   S    
C56   C68   A    
C55   C59   A    
C112  N16   T    
C47   N3    A    
N4    C95   S    
C77   H13   S    
C24   C28   A    
C89   C93   A    
C78   C82   A    
C104  H30   S    
C66   C70   A    
C4    O14   A    
C98   N6    T    
C78   H14   S    
C38   H6    S    
C67   C71   A    
O5    C1    A    
C116  N20   T    
C97   N5    T    
C48   C64   A    
C28   C32   A    
C17   H2    S    
C16   C112  S    
