data_mof_unit_45575.cif
_audit_creation_date              2012-12-10T18:09:05-0500
_audit_creation_method            fapswitch 2.2
_symmetry_space_group_name_H-M    P1
_symmetry_Int_Tables_number       1
_space_group_crystal_system       triclinic
_cell_length_a                    12.654621
_cell_length_b                    13.145104
_cell_length_c                    13.603628
_cell_angle_alpha                 88.891918
_cell_angle_beta                  95.001457
_cell_angle_gamma                 96.574287
_cell_volume                      2239.37341967

loop_
_atom_site_label
_atom_site_type_symbol
_atom_type_description
_atom_site_fract_x
_atom_site_fract_y
_atom_site_fract_z
_atom_type_partial_charge
C1    C     C_R   0.555657 0.688690 0.525921 0.904339
C2    C     C_1   0.530568 0.499363 0.216930 -0.208001
C3    C     C_R   0.269365 0.054217 0.485320 0.460603
C4    C     C_R   0.404871 0.200256 0.502609 -0.131931
C5    C     C_R   0.686649 0.825544 0.609904 0.336792
C6    C     C_R   0.714478 0.931241 0.624269 0.324652
C7    C     C_R   0.649602 0.000360 0.576808 0.012764
C8    C     C_R   0.536711 0.967498 0.563344 0.024292
C9    C     C_R   0.504818 0.861206 0.567275 -0.068800
C10   C     C_R   0.454195 0.032379 0.545430 0.037273
C11   C     C_R   0.344660 0.991093 0.530214 -0.004129
C12   C     C_R   0.517499 0.496943 0.318258 0.872612
C13   C     C_R   0.316284 0.889626 0.562844 0.124712
C14   C     C_R   0.397008 0.825707 0.577720 -0.139784
C15   C     C_R   0.476090 0.137782 0.547687 -0.248168
C16   C     C_R   0.301456 0.158750 0.470428 -0.308739
C17   C     C_R   0.583234 0.792705 0.567194 -0.260802
C18   C     C_R   0.895212 0.363262 0.659882 0.097198
C19   C     C_R   0.203562 0.604209 0.362858 0.328306
C20   C     C_R   0.101792 0.585233 0.314752 -0.279151
C21   C     C_R   0.022188 0.529895 0.362398 -0.195406
C22   C     C_R   0.040752 0.500121 0.460663 0.075796
C23   C     C_R   0.440918 0.308904 0.493324 0.890281
C24   C     C_R   0.147632 0.499535 0.498638 0.178418
C25   C     C_R   0.956603 0.461564 0.517265 -0.118013
C26   C     C_R   0.979351 0.402537 0.603211 0.089443
C27   C     C_R   0.086169 0.387875 0.631398 -0.252139
C28   C     C_R   0.168686 0.436115 0.580147 -0.202009
C29   C     C_R   0.853429 0.492181 0.497387 0.500957
C30   C     C_R   0.791378 0.381262 0.626835 -0.152428
C31   C     C_R   0.482787 0.504304 0.681756 0.875405
C32   C     C_1   0.474125 0.518415 0.782499 -0.200216
C33   C     C_2   0.465150 0.547259 0.970270 0.195300
C34   C     C_2   0.543247 0.509573 0.027269 -0.238881
C35   C     C_1   0.539627 0.503311 0.130799 -0.012878
C36   C     C_1   0.467616 0.532738 0.867543 -0.002406
H1    H     H_    0.607852 0.477225 0.995505 0.145000
H2    H     H_    0.375690 0.748416 0.603310 0.194278
H3    H     H_    0.724673 0.349810 0.666859 0.156694
H4    H     H_    0.108017 0.341195 0.694481 0.165673
H5    H     H_    0.947199 0.508193 0.320973 0.152200
H6    H     H_    0.084248 0.612510 0.240089 0.154225
H7    H     H_    0.247025 0.418212 0.603406 0.209247
H8    H     H_    0.244734 0.207790 0.437275 0.171549
H9    H     H_    0.547249 0.172656 0.587183 0.171535
N1    N     N_R   0.773270 0.445590 0.549770 -0.149457
N2    N     N_R   0.227520 0.553880 0.450750 -0.157110
O1    O     O_R   0.631100 0.627590 0.523760 -0.565967
O2    O     O_R   0.455900 0.662370 0.491970 -0.651042
O3    O     O_R   0.600200 0.480080 0.377830 -0.643902
O4    O     O_R   0.425000 0.514870 0.346040 -0.625312
O5    O     O_R   0.544100 0.337630 0.508030 -0.615430
O6    O     O_R   0.368900 0.372410 0.476240 -0.624853
O7    O     O_R   0.575000 0.485130 0.653960 -0.600059
O8    O     O_R   0.399800 0.519920 0.622170 -0.647103
Zn1   Zn    Zn3+2 0.616980 0.476780 0.521230 0.949496
Zn2   Zn    Zn3+2 0.383020 0.523220 0.478770 0.902135
C37   C     C_3   0.913214 0.309218 0.758015 -0.450489
C38   C     C_3   0.928477 0.197632 0.743950 -0.829001
H10   H     H_    0.855764 0.158683 0.703747 0.285044
H11   H     H_    0.997960 0.189531 0.701544 0.265830
H12   H     H_    0.941266 0.160927 0.817428 0.246754
H13   H     H_    0.982658 0.348990 0.802979 0.209069
H14   H     H_    0.843440 0.311611 0.801982 0.201430
O9    O     O_3   0.849015 0.592749 0.463308 -0.629081
C39   C     C_3   0.792515 0.603050 0.369965 0.175183
H15   H     H_    0.713699 0.626094 0.379832 0.206511
H16   H     H_    0.783250 0.532778 0.324359 0.118315
C40   C     C_3   0.844016 0.694903 0.313875 -0.955133
H17   H     H_    0.928936 0.689735 0.304910 0.275801
H18   H     H_    0.801109 0.700157 0.239499 0.224196
H19   H     H_    0.838705 0.766703 0.354016 0.249041
C41   C     C_3   0.284529 0.671948 0.308485 -0.368265
C42   C     C_3   0.254950 0.781139 0.296879 -0.957753
H20   H     H_    0.179415 0.783196 0.249223 0.263203
H21   H     H_    0.245980 0.812987 0.370189 0.281300
H22   H     H_    0.319086 0.830129 0.262061 0.255242
H23   H     H_    0.364686 0.677806 0.345448 0.269652
H24   H     H_    0.289211 0.639784 0.234199 0.188187
C43   C     C_3   0.370545 0.588928 0.010992 -0.370412
C44   C     C_3   0.312369 0.657552 0.937551 -0.883459
H25   H     H_    0.368937 0.721721 0.912340 0.263706
H26   H     H_    0.274743 0.612703 0.872719 0.264405
H27   H     H_    0.248540 0.689977 0.973770 0.248291
H28   H     H_    0.313215 0.523705 0.032864 0.201328
H29   H     H_    0.398375 0.635205 0.077796 0.207913
C45   C     C_3   0.205003 0.848913 0.590957 -0.354905
C46   C     C_3   0.206965 0.804303 0.695984 -0.937671
H30   H     H_    0.236351 0.727837 0.699115 0.263436
H31   H     H_    0.258238 0.856610 0.748183 0.272342
H32   H     H_    0.125023 0.794866 0.720483 0.256690
H33   H     H_    0.151842 0.909903 0.591034 0.267548
H34   H     H_    0.168287 0.789162 0.537825 0.212845
O10   O     O_3   0.165450 0.014227 0.456517 -0.638529
C47   C     C_3   0.145928 0.019180 0.352847 0.093914
H35   H     H_    0.212265 0.992695 0.314841 0.141493
H36   H     H_    0.134576 0.098673 0.328367 0.146573
C48   C     C_3   0.043821 0.950348 0.322081 -0.844573
H37   H     H_    0.975093 0.978202 0.354711 0.258434
H38   H     H_    0.028757 0.950738 0.240441 0.208396
H39   H     H_    0.051138 0.870651 0.348092 0.261976
O11   O     O_3   0.748856 0.754317 0.654594 -0.590608
C49   C     C_3   0.850925 0.763339 0.618348 0.185746
H40   H     H_    0.898902 0.837372 0.636239 0.181356
H41   H     H_    0.843515 0.755686 0.537020 0.181344
C50   C     C_3   0.913483 0.680551 0.666500 -0.765481
H42   H     H_    0.862831 0.606013 0.665881 0.279606
H43   H     H_    0.985133 0.673469 0.626547 0.223779
H44   H     H_    0.939388 0.700090 0.744541 0.210897
C51   C     C_3   0.708582 0.093991 0.529021 -0.353475
C52   C     C_3   0.678194 0.100778 0.417993 -0.857330
H45   H     H_    0.692686 0.029221 0.381763 0.247195
H46   H     H_    0.593393 0.113093 0.401404 0.272945
H47   H     H_    0.728126 0.166027 0.386022 0.245813
H48   H     H_    0.703458 0.166733 0.566433 0.192953
H49   H     H_    0.795848 0.087680 0.536249 0.235095
O12   O     O_3   0.805854 0.967600 0.681771 -0.647065
C53   C     C_3   0.786466 0.956775 0.782754 0.131929
H50   H     H_    0.721309 0.895364 0.798494 0.150343
H51   H     H_    0.763959 0.030205 0.808978 0.136354
C54   C     C_3   0.887612 0.931610 0.842783 -0.843289
H52   H     H_    0.957486 0.984891 0.823807 0.259231
H53   H     H_    0.878039 0.937586 0.922757 0.204016
H54   H     H_    0.902855 0.852334 0.827326 0.256810

loop_
_geom_bond_atom_site_label_1
_geom_bond_atom_site_label_2
_ccdc_geom_bond_type
C2    C35   T    
C39   H16   S    
C45   C46   S    
C33   C43   S    
C34   H1    S    
C41   C42   S    
C19   C20   A    
C18   C26   A    
C2    C12   S    
C44   H27   S    
C44   H25   S    
C47   C48   S    
C7    C8    A    
C26   C27   A    
C42   H21   S    
C32   C36   T    
C10   C15   A    
C5    C6    A    
C19   N2    A    
C39   C40   S    
C5    C17   A    
C50   H42   S    
C33   C36   S    
O2    Zn2   S    
C34   C35   S    
C40   H18   S    
C51   C52   S    
C54   H54   S    
C43   H29   S    
C53   H50   S    
C18   C37   S    
C47   H35   S    
C8    C9    A    
C42   H22   S    
C41   H23   S    
C18   C30   A    
C3    O10   S    
C16   H8    S    
C6    O12   S    
C39   H15   S    
C38   H10   S    
C13   C14   A    
C25   C29   A    
O10   C47   S    
C44   H26   S    
C23   O6    A    
C53   H51   S    
C37   H14   S    
O7    Zn1   S    
C38   H11   S    
C42   H20   S    
C19   C41   S    
C49   H41   S    
C4    C23   S    
O6    Zn2   S    
C25   C26   A    
C22   C25   A    
O3    Zn1   S    
C53   C54   S    
C49   C50   S    
C4    C16   A    
C40   H19   S    
C9    C14   A    
C43   H28   S    
C14   H2    S    
C12   O3    A    
C31   C32   S    
C46   H32   S    
C27   H4    S    
C13   C45   S    
C33   C34   D    
C41   H24   S    
C52   H46   S    
C46   H30   S    
C54   H52   S    
C29   O9    S    
C9    C17   A    
C46   H31   S    
O9    C39   S    
C48   H38   S    
O8    Zn2   S    
C21   H5    S    
C15   H9    S    
C51   H49   S    
C49   H40   S    
C12   O4    A    
C45   H33   S    
C37   H13   S    
O1    Zn1   S    
C5    O11   S    
C38   H12   S    
C52   H45   S    
C24   N2    A    
C30   N1    A    
N2    Zn2   S    
C24   C28   A    
C43   C44   S    
C20   H6    S    
C47   H36   S    
C1    O1    A    
C6    C7    A    
C48   H39   S    
C28   H7    S    
C1    C17   S    
C7    C51   S    
C29   N1    A    
C4    C15   A    
C37   C38   S    
O12   C53   S    
C11   C13   A    
C23   O5    A    
C50   H43   S    
C45   H34   S    
C30   H3    S    
C52   H47   S    
C22   C24   A    
C31   O7    A    
O11   C49   S    
C40   H17   S    
C54   H53   S    
C3    C11   A    
C10   C11   A    
O4    Zn2   S    
C20   C21   A    
C8    C10   A    
C48   H37   S    
N1    Zn1   S    
C27   C28   A    
C31   O8    A    
C21   C22   A    
C1    O2    A    
C51   H48   S    
C3    C16   A    
O5    Zn1   S    
C50   H44   S    
