data_mof_unit_48386.cif
_audit_creation_date              2012-12-10T18:09:55-0500
_audit_creation_method            fapswitch 2.2
_symmetry_space_group_name_H-M    P1
_symmetry_Int_Tables_number       1
_space_group_crystal_system       triclinic
_cell_length_a                    10.638786
_cell_length_b                    12.604004
_cell_length_c                    13.116036
_cell_angle_alpha                 82.225805
_cell_angle_beta                  90.663483
_cell_angle_gamma                 102.442907
_cell_volume                      1701.36982243

loop_
_atom_site_label
_atom_site_type_symbol
_atom_type_description
_atom_site_fract_x
_atom_site_fract_y
_atom_site_fract_z
_atom_type_partial_charge
C1    C     C_R   0.489518 0.438735 0.691284 0.986428
C2    C     C_R   0.500087 0.448016 0.973589 0.019773
C3    C     C_R   0.547820 0.465164 0.871539 -0.049764
C4    C     C_R   0.741962 0.500712 0.500156 0.979905
C5    C     C_R   0.544778 0.530027 0.036974 0.080509
C6    C     C_R   0.649007 0.618790 0.003592 0.077252
C7    C     C_R   0.707300 0.625023 0.907891 -0.335863
C8    C     C_R   0.658578 0.548525 0.842739 0.623923
C9    C     C_R   0.488280 0.526259 0.132921 -0.215691
C10   C     C_R   0.645893 0.685992 0.167696 -0.184033
C11   C     C_R   0.482096 0.398877 0.801016 -0.077694
C12   C     C_3   0.121394 0.500031 0.500818 -0.087081
C13   C     C_R   0.321282 0.088397 0.346317 -0.290114
C14   C     C_R   0.653745 0.800004 0.629064 0.044631
C15   C     C_R   0.685317 0.904470 0.657486 -0.243316
C16   C     C_R   0.515861 0.561145 0.308826 0.839123
C17   C     C_R   0.626683 0.985743 0.608889 -0.187266
C18   C     C_R   0.536220 0.962623 0.530683 0.015081
C19   C     C_R   0.507797 0.854699 0.504380 0.236270
C20   C     C_R   0.473426 0.041833 0.477552 -0.014815
C21   C     C_R   0.384087 0.011634 0.399533 0.193966
C22   C     C_R   0.358772 0.905361 0.374877 -0.267250
C23   C     C_3   0.066521 0.484039 0.392728 -0.541058
C24   C     C_R   0.420313 0.828336 0.426287 -0.219679
C25   C     C_R   0.495621 0.150631 0.498161 -0.050774
C26   C     C_R   0.347646 0.194476 0.370417 0.010727
C27   C     C_R   0.258091 0.499679 0.500076 0.930428
C28   C     C_3   0.904969 0.407303 0.582133 0.365764
C29   C     C_3   0.049358 0.405912 0.581563 0.432291
C30   C     C_3   0.921989 0.483572 0.392964 -0.488999
C31   C     C_3   0.958085 0.613305 0.527024 0.498057
C32   C     C_3   0.878927 0.501693 0.500746 -0.136589
C33   C     C_3   0.100452 0.611602 0.528252 -0.406178
C34   C     C_R   0.696560 0.697834 0.068310 -0.156772
C35   C     C_R   0.544420 0.597485 0.200532 -0.057567
C36   C     C_R   0.392074 0.302371 0.836233 -0.151087
C37   C     C_R   0.360030 0.275964 0.940109 -0.119092
C38   C     C_R   0.410404 0.349117 0.008187 -0.138405
F1    F     F_    0.864829 0.419408 0.679295 -0.582622
F2    F     F_    0.725361 0.552171 0.754415 -0.651279
F3    F     F_    0.100339 0.416587 0.678496 -0.621602
F4    F     F_    0.938109 0.699377 0.455053 -0.666523
H1    H     H_    0.849681 0.326922 0.563370 0.057078
H2    H     H_    0.291191 0.201034 0.967285 0.141985
H3    H     H_    0.300533 0.255311 0.329905 0.124125
H4    H     H_    0.291298 0.881615 0.315174 0.164242
H5    H     H_    0.253029 0.066658 0.286608 0.147367
H6    H     H_    0.561649 0.181429 0.555466 0.132862
H7    H     H_    0.699475 0.736826 0.666137 0.183320
H8    H     H_    0.654458 0.065341 0.633898 0.147168
H9    H     H_    0.755008 0.922409 0.716994 0.157460
H10   H     H_    0.061092 0.325491 0.561482 0.056216
H11   H     H_    0.867231 0.403713 0.372662 0.191078
H12   H     H_    0.153239 0.680545 0.471989 0.216754
H13   H     H_    0.081117 0.405312 0.370480 0.192895
H14   H     H_    0.928281 0.628133 0.604056 0.171274
H15   H     H_    0.138775 0.625330 0.605896 0.199796
H16   H     H_    0.776897 0.765254 0.043966 0.142427
H17   H     H_    0.397902 0.748675 0.402851 0.208154
H18   H     H_    0.902131 0.548987 0.332961 0.245255
H19   H     H_    0.117638 0.551376 0.334197 0.213541
H20   H     H_    0.690765 0.741435 0.220403 0.173533
H21   H     H_    0.791063 0.689061 0.883417 0.171111
H22   H     H_    0.404024 0.464630 0.159775 0.133921
H23   H     H_    0.342632 0.249596 0.782958 0.164008
H24   H     H_    0.379918 0.324737 0.087597 0.123380
N1    N     N_R   0.433240 0.222190 0.444680 -0.103197
N2    N     N_R   0.566070 0.776970 0.554790 -0.132976
O1    O     O_R   0.468120 0.366740 0.627160 -0.626139
O2    O     O_R   0.510770 0.544830 0.662520 -0.590811
O3    O     O_R   0.663880 0.410950 0.482330 -0.647688
O4    O     O_R   0.706530 0.589040 0.517700 -0.552674
O5    O     O_R   0.489230 0.455170 0.337480 -0.617970
O6    O     O_R   0.531880 0.633260 0.372840 -0.638360
O7    O     O_R   0.293470 0.410960 0.482300 -0.634018
O8    O     O_R   0.336120 0.589050 0.517670 -0.646085
Zn1   Zn    Zn3+2 0.471520 0.381090 0.476390 0.949244
Zn2   Zn    Zn3+2 0.528480 0.618910 0.523610 0.988703

loop_
_geom_bond_atom_site_label_1
_geom_bond_atom_site_label_2
_ccdc_geom_bond_type
C31   F4    S    
C12   C29   S    
O2    Zn2   S    
C9    H22   S    
O1    Zn1   S    
N1    Zn1   S    
O3    Zn1   S    
C7    C8    A    
C12   C23   S    
C16   O6    A    
C26   N1    A    
C28   C29   S    
O8    Zn2   S    
C16   C35   S    
C5    C6    A    
C14   H7    S    
C20   C25   A    
C18   C19   A    
O5    Zn1   S    
O4    Zn2   S    
C26   H3    S    
C38   H24   S    
C30   H18   S    
C31   C33   S    
C10   C35   A    
C15   H9    S    
C31   H14   S    
C21   C22   A    
C10   H20   S    
C27   O7    A    
N2    Zn2   S    
C30   H11   S    
C12   C27   S    
C16   O5    A    
C23   C30   S    
C28   C32   S    
C3    C8    A    
C13   H5    S    
C36   H23   S    
C28   F1    S    
C1    O1    A    
C6    C34   A    
C25   N1    A    
C11   C36   A    
C5    C9    A    
C37   C38   A    
C2    C38   A    
C31   C32   S    
C17   C18   A    
C13   C21   A    
C19   N2    A    
C10   C34   A    
O7    Zn1   S    
C25   H6    S    
C7    H21   S    
C4    C32   S    
C22   H4    S    
C22   C24   A    
C13   C26   A    
C2    C5    A    
C27   O8    A    
C4    O4    A    
C9    C35   A    
C33   H12   S    
C15   C17   A    
C36   C37   A    
C33   H15   S    
C29   F3    S    
C17   H8    S    
C23   H13   S    
C6    C7    A    
C28   H1    S    
C1    O2    A    
C37   H2    S    
C19   C24   A    
C30   C32   S    
C24   H17   S    
C2    C3    A    
C18   C20   A    
C3    C11   A    
C23   H19   S    
C20   C21   A    
O6    Zn2   S    
C34   H16   S    
C14   N2    A    
C14   C15   A    
C1    C11   S    
C8    F2    S    
C12   C33   S    
C4    O3    A    
C29   H10   S    
