data_mof_unit_27839.cif
_audit_creation_date              2012-12-10T19:59:27-0500
_audit_creation_method            fapswitch 2.2
_symmetry_space_group_name_H-M    P1
_symmetry_Int_Tables_number       1
_space_group_crystal_system       triclinic
_cell_length_a                    14.935105
_cell_length_b                    14.16119
_cell_length_c                    10.691535
_cell_angle_alpha                 89.830426
_cell_angle_beta                  90.158164
_cell_angle_gamma                 90.100725
_cell_volume                      2261.22547862

loop_
_atom_site_label
_atom_site_type_symbol
_atom_type_description
_atom_site_fract_x
_atom_site_fract_y
_atom_site_fract_z
_atom_type_partial_charge
C1    C     C_R   0.327907 0.499902 0.498929 0.888141
C2    C     C_R   0.546049 0.105132 0.592734 -0.280425
C3    C     C_R   0.454666 0.204590 0.409313 0.018086
C4    C     C_R   0.545333 0.204438 0.590760 0.016845
C5    C     C_R   0.499942 0.053396 0.500209 0.138634
C6    C     C_R   0.574505 0.894941 0.543179 -0.278366
C7    C     C_R   0.425224 0.894867 0.457675 -0.273248
C8    C     C_R   0.573080 0.795649 0.542480 0.017160
C9    C     C_R   0.426639 0.795586 0.458427 -0.002580
C10   C     C_R   0.499896 0.946713 0.500328 0.138299
C11   C     C_R   0.502375 0.500314 0.259911 0.883471
C12   C     C_R   0.672608 0.500038 0.498554 0.896533
C13   C     C_R   0.500960 0.499884 0.740089 0.892379
C14   C     C_R   0.505211 0.586581 0.063207 0.094073
C15   C     C_R   0.500250 0.584875 0.935892 0.059672
C16   C     C_R   0.514560 0.501847 0.128583 -0.120930
C17   C     C_R   0.510534 0.500387 0.871677 -0.087881
C18   C     C_R   0.537904 0.418923 0.065173 -0.219545
C19   C     C_R   0.536443 0.418372 0.935814 -0.229497
C20   C     C_3   0.428748 0.659306 0.930421 -0.022371
C21   C     C_3   0.435843 0.662834 0.073021 -0.039770
C22   C     C_R   0.099140 0.554960 0.386213 0.552400
C23   C     C_R   0.183505 0.434317 0.558683 -0.196334
C24   C     C_R   0.909880 0.582301 0.499539 0.545869
C25   C     C_R   0.191132 0.559506 0.402340 -0.323070
C26   C     C_R   0.817338 0.583042 0.509215 -0.313608
C27   C     C_R   0.232626 0.499108 0.488233 -0.083773
C28   C     C_R   0.768897 0.499718 0.488864 -0.095786
C29   C     C_3   0.337373 0.623735 0.884329 -0.928219
C30   C     C_3   0.474836 0.755971 0.121385 -0.897634
C31   C     C_3   0.042517 0.562861 0.189490 0.052886
C32   C     C_3   0.986664 0.623242 0.100194 -0.280187
C33   C     C_3   0.963835 0.569547 0.980684 -1.007231
C34   C     C_R   0.812626 0.416165 0.455306 -0.190940
C35   C     C_3   0.982391 0.669316 0.647134 0.047343
C36   C     C_3   0.056771 0.742701 0.661891 -0.276323
C37   C     C_3   0.087987 0.750202 0.797496 -0.992713
C38   C     C_R   0.091559 0.432477 0.547251 -0.275304
C39   C     C_R   0.904472 0.415595 0.442875 -0.284072
C40   C     C_R   0.049335 0.493791 0.463104 0.005280
C41   C     C_R   0.952949 0.498212 0.464774 0.029286
C42   C     C_R   0.453892 0.105286 0.407552 -0.280192
H1    H     H_    0.552168 0.353803 0.114743 0.169486
H2    H     H_    0.783952 0.648116 0.534380 0.163440
H3    H     H_    0.216151 0.387169 0.624468 0.156610
H4    H     H_    0.775948 0.351451 0.437820 0.169985
H5    H     H_    0.053044 0.385342 0.606410 0.162446
H6    H     H_    0.938052 0.350676 0.417400 0.160009
H7    H     H_    0.418453 0.069682 0.332879 0.133895
H8    H     H_    0.581472 0.069407 0.667483 0.132425
H9    H     H_    0.419066 0.243493 0.337612 0.126170
H10   H     H_    0.580958 0.243224 0.662374 0.119433
H11   H     H_    0.319546 0.555089 0.928503 0.239640
H12   H     H_    0.550671 0.353168 0.887044 0.162762
H13   H     H_    0.285126 0.676387 0.907837 0.249946
H14   H     H_    0.338271 0.614927 0.781261 0.264727
H15   H     H_    0.535748 0.776765 0.068405 0.240792
H16   H     H_    0.423990 0.812645 0.111918 0.239813
H17   H     H_    0.493171 0.748887 0.221391 0.274086
H18   H     H_    0.005044 0.496118 0.208315 0.138819
H19   H     H_    0.107446 0.545649 0.143817 0.131251
H20   H     H_    0.923439 0.644159 0.147188 0.235121
H21   H     H_    0.024523 0.688349 0.075845 0.223285
H22   H     H_    0.025956 0.548711 0.931091 0.264234
H23   H     H_    0.634330 0.930634 0.575469 0.134452
H24   H     H_    0.923380 0.615360 0.918030 0.261175
H25   H     H_    0.924173 0.505263 0.002946 0.271079
H26   H     H_    0.007970 0.600378 0.683306 0.141101
H27   H     H_    0.923431 0.691113 0.703496 0.136122
H28   H     H_    0.114664 0.722497 0.602559 0.234014
H29   H     H_    0.031984 0.812729 0.629958 0.223852
H30   H     H_    0.031369 0.771068 0.858544 0.269405
H31   H     H_    0.141421 0.804524 0.804869 0.267216
H32   H     H_    0.115535 0.681589 0.830079 0.271999
H33   H     H_    0.365383 0.930481 0.425444 0.136742
H34   H     H_    0.630845 0.757082 0.575895 0.123856
H35   H     H_    0.368859 0.756965 0.424998 0.135039
H36   H     H_    0.451730 0.724392 0.881426 0.185305
H37   H     H_    0.374822 0.639555 0.124318 0.170316
H38   H     H_    0.230177 0.608043 0.345831 0.153312
N1    N     N_R   0.500000 0.252470 0.500000 -0.092851
N2    N     N_R   0.500000 0.747550 0.500000 -0.095464
O1    O     O_R   0.369060 0.579480 0.500010 -0.632798
O2    O     O_3   0.957873 0.664449 0.519654 -0.619969
O3    O     O_R   0.630940 0.579480 0.499990 -0.630272
O4    O     O_R   0.369050 0.420520 0.500010 -0.616612
O5    O     O_R   0.630950 0.420520 0.499990 -0.627557
O6    O     O_R   0.499990 0.579490 0.316780 -0.618911
O7    O     O_R   0.500010 0.579490 0.683220 -0.620077
O8    O     O_R   0.499980 0.420540 0.316780 -0.632006
O9    O     O_R   0.500020 0.420540 0.683220 -0.632758
O10   O     O_3   0.057930 0.614054 0.300664 -0.619114
Zn1   Zn    Zn3+2 0.500000 0.606140 0.500000 0.932793
Zn2   Zn    Zn3+2 0.500000 0.393860 0.500000 0.935880

loop_
_geom_bond_atom_site_label_1
_geom_bond_atom_site_label_2
_ccdc_geom_bond_type
C7    C10   A    
C5    C42   A    
C30   H15   S    
C3    C42   A    
C23   H3    S    
C25   H38   S    
C31   H19   S    
C35   C36   S    
C37   H32   S    
C26   H2    S    
C39   C41   A    
C12   O3    A    
C4    H10   S    
C8    N2    A    
C14   C21   S    
C36   C37   S    
C24   C26   A    
O1    Zn1   S    
O5    Zn2   S    
C8    H34   S    
C15   C17   A    
C18   C19   A    
C2    H8    S    
O3    Zn1   S    
C6    H23   S    
C4    N1    A    
C22   C25   A    
C3    N1    A    
C34   H4    S    
C23   C27   A    
O4    Zn2   S    
C36   H29   S    
C9    N2    A    
C28   C34   A    
N2    Zn1   S    
C13   O9    A    
C24   C41   A    
C36   H28   S    
C33   H24   S    
O8    Zn2   S    
C20   C29   S    
C15   C20   S    
C34   C39   A    
C3    H9    S    
C6    C8    A    
C29   H13   S    
C31   H18   S    
C2    C4    A    
C11   C16   S    
C31   C32   S    
C11   O6    A    
C22   C40   A    
C30   H17   S    
C21   H37   S    
C9    H35   S    
C38   H5    S    
C19   H12   S    
C40   C41   S    
C12   C28   S    
C14   C16   A    
C2    C5    A    
C1    O1    A    
C33   H25   S    
C1    O4    A    
C7    C9    A    
C37   H31   S    
O6    Zn1   S    
C12   O5    A    
C13   O7    A    
C32   H21   S    
C6    C10   A    
C7    H33   S    
C35   O2    S    
C29   H14   S    
C20   H36   S    
C25   C27   A    
C23   C38   A    
C21   C30   S    
C26   C28   A    
C13   C17   S    
C32   C33   S    
C24   O2    S    
C32   H20   S    
C5    C10   S    
C18   H1    S    
O9    Zn2   S    
C38   C40   A    
N1    Zn2   S    
C11   O8    A    
C29   H11   S    
C35   H26   S    
C33   H22   S    
C30   H16   S    
C17   C19   A    
O7    Zn1   S    
C42   H7    S    
C20   C21   S    
C35   H27   S    
C16   C18   A    
C31   O10   S    
C37   H30   S    
C1    C27   S    
C22   O10   S    
C14   C15   A    
C39   H6    S    
