data_mof_unit_52180.cif
_audit_creation_date              2012-12-10T18:23:03-0500
_audit_creation_method            fapswitch 2.2
_symmetry_space_group_name_H-M    P1
_symmetry_Int_Tables_number       1
_space_group_crystal_system       triclinic
_cell_length_a                    15.000874
_cell_length_b                    14.029678
_cell_length_c                    10.533789
_cell_angle_alpha                 90.916663
_cell_angle_beta                  89.878284
_cell_angle_gamma                 90.017553
_cell_volume                      2216.62538167

loop_
_atom_site_label
_atom_site_type_symbol
_atom_type_description
_atom_site_fract_x
_atom_site_fract_y
_atom_site_fract_z
_atom_type_partial_charge
C1    C     C_R   0.326532 0.499990 0.500011 0.895687
C2    C     C_R   0.673468 0.500010 0.499989 0.895687
C3    C     C_R   0.953627 0.500008 0.500032 0.062237
C4    C     C_R   0.046373 0.499992 0.499968 0.062237
C5    C     C_R   0.907320 0.585533 0.477170 0.115721
C6    C     C_R   0.092680 0.414467 0.522829 0.115721
C7    C     C_R   0.953561 0.329925 0.545700 -0.199578
C8    C     C_R   0.046439 0.670075 0.454300 -0.199578
C9    C     C_R   0.046184 0.329909 0.545643 -0.204236
C10   C     C_R   0.953815 0.670091 0.454357 -0.204236
C11   C     C_R   0.547367 0.796654 0.409981 -0.032759
C12   C     C_R   0.452633 0.203346 0.590019 -0.032758
C13   C     C_R   0.452365 0.798769 0.589736 -0.023347
C14   C     C_R   0.547635 0.201231 0.410264 -0.023347
C15   C     C_R   0.451105 0.899743 0.593120 -0.035643
C16   C     C_R   0.548895 0.100257 0.406880 -0.035643
C17   C     C_R   0.548643 0.897537 0.406644 -0.038224
C18   C     C_R   0.451357 0.102463 0.593356 -0.038224
C19   C     C_R   0.499958 0.949401 0.499965 0.056253
C20   C     C_R   0.500042 0.050599 0.500035 0.056253
C21   C     C_R   0.402665 0.951770 0.686702 -0.043137
C22   C     C_R   0.597335 0.048230 0.313298 -0.043137
C23   C     C_R   0.597027 0.947318 0.312999 -0.045271
C24   C     C_R   0.402973 0.052682 0.687001 -0.045271
C25   C     C_R   0.499238 0.499130 0.257473 0.892060
C26   C     C_R   0.500762 0.500870 0.742527 0.892060
C27   C     C_3   0.431151 0.551092 0.043143 -0.011054
C28   C     C_3   0.568848 0.448908 0.956857 -0.011054
C29   C     C_3   0.508376 0.590459 0.964467 0.013458
C30   C     C_3   0.491624 0.409541 0.035533 0.013458
C31   C     C_3   0.422716 0.462829 0.954448 -0.276027
C32   C     C_3   0.577284 0.537171 0.045552 -0.276027
C33   C     C_3   0.501069 0.502611 0.876936 -0.087961
C34   C     C_3   0.498931 0.497388 0.123064 -0.087961
C35   C     C_R   0.815113 0.584911 0.477430 -0.249420
C36   C     C_R   0.184887 0.415089 0.522569 -0.249420
C37   C     C_R   0.769312 0.500025 0.500068 -0.076924
C38   C     C_R   0.230688 0.499975 0.499932 -0.076924
C39   C     C_R   0.814990 0.415140 0.522739 -0.236793
C40   C     C_R   0.185010 0.584859 0.477261 -0.236793
C41   C     C_R   0.907193 0.414498 0.522947 0.113136
C42   C     C_R   0.092807 0.585502 0.477053 0.113136
H1    H     H_    0.360150 0.433064 0.913863 0.157569
H2    H     H_    0.639850 0.566936 0.086137 0.157569
H3    H     H_    0.779155 0.650358 0.459282 0.164607
H4    H     H_    0.220844 0.349642 0.540718 0.164607
H5    H     H_    0.778938 0.349697 0.540881 0.170546
H6    H     H_    0.221062 0.650303 0.459119 0.170546
H7    H     H_    0.918238 0.264044 0.563422 0.155476
H8    H     H_    0.081762 0.735956 0.436578 0.155476
H9    H     H_    0.081408 0.264016 0.563338 0.154048
H10   H     H_    0.918592 0.735984 0.436662 0.154048
H11   H     H_    0.584043 0.754258 0.340979 0.143493
H12   H     H_    0.415957 0.245742 0.659020 0.143494
H13   H     H_    0.415568 0.757965 0.658559 0.146179
H14   H     H_    0.584432 0.242034 0.341441 0.146179
N1    N     N_R   0.500000 0.750030 0.500000 -0.112381
N2    N     N_R   0.500000 0.249970 0.500000 -0.112381
O1    O     O_R   0.367850 0.580280 0.500030 -0.625812
O2    O     O_R   0.632150 0.419720 0.499970 -0.625812
O3    O     O_R   0.632150 0.580280 0.499970 -0.627286
O4    O     O_R   0.367850 0.419720 0.500030 -0.627286
O5    O     O_R   0.499970 0.580260 0.313950 -0.623400
O6    O     O_R   0.500030 0.419740 0.686050 -0.623400
O7    O     O_R   0.500030 0.580260 0.686050 -0.626552
O8    O     O_R   0.499970 0.419740 0.313950 -0.626552
Zn1   Zn    Zn3+2 0.500000 0.607200 0.500000 0.957664
Zn2   Zn    Zn3+2 0.500000 0.392800 0.500000 0.957665
C43   C     C_1   0.355624 0.606457 0.093894 0.183239
N3    N     N_1   0.296186 0.650046 0.134096 -0.189565
C44   C     C_1   0.644376 0.393543 0.906106 0.183239
N4    N     N_1   0.703814 0.349954 0.865904 -0.189565
C45   C     C_1   0.518531 0.690070 0.926159 0.210427
N5    N     N_1   0.526798 0.768588 0.896320 -0.190258
C46   C     C_1   0.481469 0.309930 0.073841 0.210427
N6    N     N_1   0.473202 0.231412 0.103679 -0.190258
C47   C     C_1   0.352430 0.902066 0.783290 0.175544
N7    N     N_1   0.312420 0.862440 0.860309 -0.182393
C48   C     C_1   0.647570 0.097934 0.216710 0.175544
N8    N     N_1   0.687580 0.137560 0.139691 -0.182393
C49   C     C_1   0.646352 0.895240 0.215526 0.162240
N9    N     N_1   0.685605 0.853700 0.137800 -0.191563
C50   C     C_1   0.353648 0.104760 0.784474 0.162241
N10   N     N_1   0.314395 0.146300 0.862200 -0.191563

loop_
_geom_bond_atom_site_label_1
_geom_bond_atom_site_label_2
_ccdc_geom_bond_type
O8    Zn2   S    
C27   C29   S    
C45   N5    T    
C14   H14   S    
C19   C20   A    
C9    H9    S    
C10   H10   S    
C1    O4    A    
C6    C9    A    
C49   N9    T    
C39   C41   A    
C47   N7    T    
C15   C19   A    
C17   C23   A    
C31   H1    S    
C18   C24   A    
O6    Zn2   S    
C35   C37   A    
C24   C50   S    
C8    C42   A    
C22   C48   S    
C29   C32   S    
C1    O1    A    
C30   C31   S    
C2    O2    A    
C29   C45   S    
C29   C33   S    
C40   H6    S    
C25   O5    A    
C26   O6    A    
O1    Zn1   S    
C11   C17   A    
O7    Zn1   S    
C31   C33   S    
C36   H4    S    
C27   C43   S    
C2    O3    A    
C25   C34   S    
C12   N2    A    
C40   C42   A    
N1    Zn1   S    
C27   C34   S    
C14   N2    A    
O5    Zn1   S    
C30   C34   S    
C27   C31   S    
C28   C32   S    
C7    H7    S    
C4    C6    A    
C32   C34   S    
C46   N6    T    
O3    Zn1   S    
C26   C33   S    
C50   N10   T    
C15   C21   A    
C16   C20   A    
C32   H2    S    
C1    C38   S    
N2    Zn2   S    
C28   C33   S    
C13   C15   A    
C14   C16   A    
C28   C44   S    
C21   C47   S    
C3    C4    A    
C35   H3    S    
C8    H8    S    
C39   H5    S    
C7    C9    A    
C3    C41   A    
C16   C22   A    
C23   C49   S    
C26   O7    A    
C25   O8    A    
C3    C5    A    
C11   H11   S    
O4    Zn2   S    
C36   C38   A    
C5    C10   A    
C37   C39   A    
C38   C40   A    
C30   C46   S    
C2    C37   S    
C4    C42   A    
C5    C35   A    
C28   C30   S    
C17   C19   A    
C6    C36   A    
C18   C20   A    
C7    C41   A    
C43   N3    T    
C48   N8    T    
C44   N4    T    
C13   N1    A    
O2    Zn2   S    
C8    C10   A    
C21   C24   A    
C12   C18   A    
C22   C23   A    
C11   N1    A    
C12   H12   S    
C13   H13   S    
