data_mof_unit_64960.cif
_audit_creation_date              2013-03-05T16:01:58-0500
_audit_creation_method            fapswitch 2.2
_symmetry_space_group_name_H-M    P1
_symmetry_Int_Tables_number       1
_space_group_crystal_system       triclinic
_cell_length_a                    8.251974
_cell_length_b                    14.406979
_cell_length_c                    14.952953
_cell_angle_alpha                 94.297803
_cell_angle_beta                  97.196944
_cell_angle_gamma                 93.518992
_cell_volume                      1754.22651669

loop_
_atom_site_label
_atom_site_type_symbol
_atom_site_description
_atom_site_fract_x
_atom_site_fract_y
_atom_site_fract_z
_atom_type_partial_charge
P1    P     P_3+3 0.018620 0.416870 0.295980 0.453370
O1    O     O_2   0.841250 0.444240 0.280450 -0.344502
O2    O     O_3   0.112870 0.447390 0.393710 -0.433499
O3    O     O_3   0.597960 0.615760 0.327700 -0.361220
O4    O     O_2   0.681442 0.537161 0.175852 -0.384181
O5    O     O_3   0.982709 0.295361 0.270441 -0.551234
O6    O     O_3   0.634280 0.711761 0.167783 -0.544625
C1    C     C_3   0.417745 0.807378 0.117456 -1.206252
H1    H     H_    0.475667 0.825486 0.057197 0.273840
H2    H     H_    0.333275 0.745193 0.097063 0.285311
P2    P     P_3+3 0.635650 0.716500 0.560900 0.454955
P3    P     P_3+3 0.054452 0.778599 0.346144 0.448755
O7    O     O_2   0.802240 0.729720 0.532850 -0.390668
O8    O     O_3   0.017190 0.664840 0.371090 -0.372952
O9    O     O_2   0.932336 0.831244 0.398059 -0.343800
O10   O     O_3   0.666547 0.746740 0.677811 -0.582344
O11   O     O_3   0.983052 0.789977 0.232781 -0.517613
C2    C     C_3   0.027881 0.714324 0.179306 0.487990
H3    H     H_    0.957736 0.649265 0.191436 0.152076
H4    H     H_    0.160748 0.705727 0.194516 0.015934
C3    C     C_3   0.987942 0.732719 0.080129 -1.001429
H5    H     H_    0.853910 0.735022 0.061682 0.287237
H6    H     H_    0.048574 0.800544 0.067533 0.264128
C4    C     C_3   0.206767 0.758928 0.665620 0.315280
H7    H     H_    0.323512 0.750548 0.637478 0.085593
H8    H     H_    0.100704 0.740930 0.612542 0.100418
C5    C     C_3   0.201700 0.859654 0.707760 -0.518408
H9    H     H_    0.294302 0.871346 0.769060 0.241291
H10   H     H_    0.079437 0.867536 0.730345 0.198302
Ba1   Ba    Ba6+2 0.833410 0.543320 0.453520 1.559784
C6    C     C_3   0.032384 0.243306 0.343098 0.393484
H11   H     H_    0.922636 0.219818 0.373127 0.039927
H12   H     H_    0.121587 0.282015 0.395674 0.126569
C7    C     C_3   0.107431 0.156441 0.307459 -0.960581
H13   H     H_    0.011411 0.107924 0.266773 0.261526
H14   H     H_    0.165522 0.120854 0.364839 0.224365
H15   H     H_    0.202282 0.175238 0.264440 0.266502
C8    C     C_3   0.738627 0.674978 0.722654 0.442635
H16   H     H_    0.858816 0.663453 0.699703 0.082471
H17   H     H_    0.657154 0.609787 0.710727 0.128343
C9    C     C_3   0.765219 0.703840 0.823775 -1.015788
H18   H     H_    0.848938 0.767994 0.837821 0.260974
H19   H     H_    0.820275 0.647797 0.861650 0.231811
H20   H     H_    0.646352 0.717586 0.847952 0.266246
P4    P     P_3+3 0.171070 0.583210 0.704020 0.469937
O12   O     O_2   0.348460 0.555790 0.719610 -0.364906
O13   O     O_3   0.076820 0.552690 0.606290 -0.375766
O14   O     O_3   0.591740 0.384320 0.672310 -0.326006
O15   O     O_3   0.197644 0.702853 0.736652 -0.591662
P5    P     P_3+3 0.142064 0.218168 0.648495 0.430590
O16   O     O_3   0.629090 0.386360 0.459240 -0.384392
O17   O     O_3   0.172500 0.335240 0.628910 -0.370641
O18   O     O_2   0.269597 0.171779 0.596096 -0.403231
O19   O     O_3   0.212101 0.205661 0.762082 -0.498021
Ba2   Ba    Ba6+2 0.356410 0.456750 0.546480 1.562019
P6    P     P_3+3 0.563734 0.607547 0.208802 0.450100
C10   C     C_3   0.547112 0.787833 0.194807 0.459048
H21   H     H_    0.487951 0.776424 0.256332 0.086239
H22   H     H_    0.345716 0.865814 0.139072 0.257899
O20   O     O_3   0.560600 0.613720 0.540760 -0.380529
C11   C     C_3   0.461036 0.323832 0.273674 0.443856
H23   H     H_    0.341265 0.339350 0.295306 0.066860
H24   H     H_    0.548946 0.385736 0.291841 0.144768
C12   C     C_3   0.439830 0.304078 0.171223 -0.981720
H25   H     H_    0.350779 0.243139 0.149965 0.253427
H26   H     H_    0.394004 0.365278 0.138007 0.229418
H27   H     H_    0.559296 0.289135 0.148403 0.275662
P7    P     P_3+3 0.557641 0.269145 0.430943 0.420931
O21   O     O_2   0.387470 0.270310 0.467210 -0.382266
O22   O     O_3   0.518728 0.244897 0.313388 -0.573945
H28   H     H_    0.031173 0.676956 0.035953 0.234126
C13   C     C_3   0.166699 0.281494 0.815850 0.516724
H29   H     H_    0.224378 0.348287 0.798566 0.141527
H30   H     H_    0.031923 0.284617 0.806500 -0.006373
C14   C     C_3   0.223759 0.269739 0.915190 -0.953186
H31   H     H_    0.352541 0.297951 0.934147 0.290081
H32   H     H_    0.146586 0.307544 0.959133 0.212009
H33   H     H_    0.215642 0.195003 0.928258 0.272225
P8    P     P_3+3 0.626325 0.392419 0.790846 0.468628
C15   C     C_3   0.671877 0.214669 0.801884 0.387055
H34   H     H_    0.764476 0.239700 0.759529 -0.031792
O23   O     O_2   0.500089 0.456371 0.824793 -0.397771
O24   O     O_3   0.572370 0.284553 0.829985 -0.531663
C16   C     C_3   0.761259 0.176491 0.886933 -0.520932
H35   H     H_    0.669731 0.153921 0.931070 0.238948
H36   H     H_    0.842254 0.234146 0.925685 0.190261
C17   C     C_R   0.353708 0.558049 0.166325 0.176998
H37   H     H_    0.316847 0.532408 0.302250 0.181513
H38   H     H_    0.490144 0.619236 0.024159 0.190965
C18   C     C_R   0.115215 0.474148 0.207805 0.311951
C19   C     C_R   0.918588 0.487193 0.771898 -0.440997
C20   C     C_R   0.832639 0.444730 0.833165 0.243720
C21   C     C_R   0.900221 0.446164 0.923621 -0.354508
C22   C     C_R   0.057846 0.490945 0.954044 0.057585
C23   C     C_R   0.146218 0.532281 0.888443 -0.021536
C24   C     C_R   0.128353 0.498375 0.047627 0.043838
C25   C     C_R   0.286156 0.546118 0.073635 0.000449
C26   C     C_R   0.370206 0.583310 0.007269 -0.212755
C27   C     C_R   0.299017 0.580137 0.917920 -0.070250
C28   C     C_R   0.047289 0.460563 0.116668 -0.303534
C29   C     C_R   0.264841 0.524286 0.231792 -0.529305
C30   C     C_R   0.076581 0.526563 0.795447 0.226123
H39   H     H_    0.931964 0.419783 0.102228 0.166377
H40   H     H_    0.856155 0.496309 0.706138 0.199214
H41   H     H_    0.825440 0.413626 0.968159 0.159884
H42   H     H_    0.366885 0.616754 0.872756 0.181228
C31   C     C_R   0.684381 0.941478 0.558133 -0.245364
C32   C     C_R   0.514578 0.797636 0.492494 0.247777
C33   C     C_R   0.368791 0.761045 0.439570 -0.462908
C34   C     C_R   0.274198 0.817061 0.384072 0.187619
C35   C     C_R   0.339992 0.905840 0.369873 -0.338069
C36   C     C_R   0.478137 0.947308 0.427614 0.179124
C37   C     C_R   0.561739 0.894666 0.492941 0.040324
H43   H     H_    0.323368 0.690138 0.446072 0.173609
C38   C     C_R   0.644982 0.089697 0.491213 0.049126
C39   C     C_R   0.730195 0.037417 0.556325 0.129903
C40   C     C_R   0.686902 0.186928 0.493094 0.130886
C41   C     C_R   0.831704 0.225116 0.545753 -0.449255
C42   C     C_R   0.926432 0.172015 0.604061 0.179994
C43   C     C_R   0.864312 0.081267 0.616587 -0.413264
C44   C     C_R   0.522051 0.043356 0.426485 -0.190356
H44   H     H_    0.271522 0.946942 0.322552 0.152451
H45   H     H_    0.932040 0.041508 0.665207 0.158666
H46   H     H_    0.743322 0.904078 0.611658 0.155301
H47   H     H_    0.456216 0.081911 0.376101 0.162537
C45   C     C_2   0.665866 0.872330 0.213533 0.661736
H48   H     H_    0.733587 0.895287 0.160446 0.014174
O25   O     O_2   0.688317 0.915699 0.287656 -0.597536
C46   C     C_3   0.235373 0.936348 0.645657 -0.425586
C47   C     C_3   0.119681 0.921703 0.557758 -0.203100
C48   C     C_3   0.133973 0.000376 0.495871 -0.778290
H49   H     H_    0.059198 0.057312 0.510022 0.258214
H50   H     H_    0.260826 0.029698 0.501791 0.262044
H51   H     H_    0.087892 0.976974 0.425029 0.256914
H52   H     H_    0.151006 0.856982 0.523566 0.195174
H53   H     H_    0.992645 0.910124 0.571121 0.219636
H54   H     H_    0.217339 0.004807 0.680814 0.279040
H55   H     H_    0.364404 0.936533 0.631656 0.214430
C49   C     C_2   0.562193 0.139495 0.745514 0.641388
H56   H     H_    0.554067 0.136166 0.672588 -0.001423
O26   O     O_2   0.476985 0.084333 0.780772 -0.600577
C50   C     C_3   0.865037 0.094534 0.865161 -0.411628
C51   C     C_3   0.944654 0.056628 0.952008 -0.211438
C52   C     C_3   0.062061 0.982524 0.930929 -0.903107
H57   H     H_    0.995069 0.922784 0.887765 0.256446
H58   H     H_    0.161058 0.012349 0.895372 0.284764
H59   H     H_    0.118467 0.956711 0.994898 0.253596
H60   H     H_    0.013144 0.114201 0.997667 0.203724
H61   H     H_    0.847893 0.025181 0.988208 0.204735
H62   H     H_    0.787543 0.036753 0.824386 0.216483
H63   H     H_    0.960947 0.118204 0.824662 0.224378
C53   C     C_2   0.886211 0.321843 0.537635 0.781148
H64   H     H_    0.925400 0.343994 0.476180 -0.017062
O27   O     O_2   0.877007 0.380082 0.599064 -0.580901

loop_
_geom_bond_atom_site_label_1
_geom_bond_atom_site_label_2
_geom_bond_distance
_ccdc_geom_bond_type
C11   O22   1.403358 S    
C50   H63   1.107844 S    
O14   Ba2   2.833317 S    
C8    H17   1.110525 S    
Ba1   O16   2.749672 S    
C21   C22   1.421187 A    
C38   C44   1.409093 A    
C5    H10   1.112887 S    
C2    C3    1.524881 S    
C49   O26   1.221071 D    
C9    H18   1.109871 S    
O4    P6    1.542865 D    
C35   C36   1.412228 A    
C4    C5    1.543264 S    
C19   H40   1.072513 S    
C15   C16   1.543842 S    
C48   H51   1.100092 S    
P3    C34   1.867818 S    
H37   C29   1.081618 S    
P4    O12   1.533770 D    
P5    O19   1.750410 S    
C3    H28   1.106219 S    
O6    P6    1.757710 S    
O14   P8    1.753534 S    
C20   C21   1.395098 A    
O17   Ba2   2.711630 S    
C4    H8    1.109245 S    
P1    O1    1.533331 D    
C52   H59   1.110351 S    
C1    H22   1.111440 S    
C8    H16   1.107227 S    
C15   H34   1.112080 S    
C23   C27   1.402839 A    
C51   C52   1.526713 S    
C38   C39   1.418835 A    
C7    H15   1.107251 S    
C32   C33   1.404469 A    
C2    H4    1.107968 S    
C7    H13   1.110857 S    
C11   H24   1.109196 S    
C41   C42   1.399680 A    
C31   C37   1.414149 A    
C21   H41   1.076260 S    
C17   C29   1.392891 A    
O2    Ba2   2.836479 S    
C46   H55   1.110462 S    
C47   H52   1.090365 S    
P2    Ba1   3.467304 S    
C1    H1    1.111859 S    
C38   C40   1.419468 A    
Ba1   O20   2.935340 S    
O12   Ba2   2.870987 S    
P5    O17   1.741874 S    
C6    H12   1.099908 S    
C16   C50   1.539460 S    
C7    H14   1.105386 S    
C23   C30   1.430899 A    
Ba2   O20   2.749179 S    
O5    C6    1.399670 S    
C3    H5    1.109019 S    
O3    P6    1.758740 S    
C35   H44   1.083638 S    
C9    H19   1.108230 S    
C11   H23   1.108068 S    
C31   H46   1.080161 S    
O8    Ba1   2.711103 S    
C15   O24   1.410338 S    
C18   C28   1.401709 A    
C36   C37   1.418356 A    
C25   C26   1.399809 A    
P4    O13   1.584523 S    
C51   H60   1.111050 S    
P5    O18   1.543561 D    
P1    O5    1.762365 S    
C12   H27   1.110844 S    
O7    Ba1   2.892883 S    
C4    H7    1.108142 S    
C8    C9    1.522764 S    
C13   H30   1.107526 S    
C10   C45   1.501450 S    
C2    H3    1.109817 S    
P6    C17   1.849396 S    
C28   H39   1.076254 S    
C39   C43   1.419469 A    
P1    O2    1.584523 S    
C12   H26   1.107519 S    
C32   C37   1.427163 A    
P3    O11   1.746618 S    
O2    Ba1   2.958170 S    
C22   C24   1.440141 A    
C14   H31   1.108656 S    
C18   C29   1.384065 A    
C44   H47   1.080965 S    
P7    C40   1.864448 S    
P2    O10   1.752554 S    
Ba1   O13   2.835822 S    
C6    H11   1.106058 S    
P3    O9    1.547547 D    
P4    O15   1.748721 S    
C49   H56   1.081367 S    
C24   C25   1.429378 A    
O11   C2    1.398983 S    
C6    C7    1.520380 S    
O19   C13   1.405158 S    
C34   C35   1.400047 A    
C16   H35   1.112957 S    
C41   C53   1.456398 S    
C14   H32   1.108033 S    
P8    C20   1.835211 S    
Ba2   O21   2.892906 S    
C33   H43   1.081925 S    
C52   H58   1.111152 S    
P3    O8    1.725773 S    
C3    H6    1.109873 S    
C5    C46   1.530088 S    
C9    H20   1.110865 S    
C19   C30   1.381935 A    
P2    O20   1.562279 S    
P1    C18   1.844012 S    
C19   C20   1.382065 A    
O13   Ba2   2.959149 S    
C46   C47   1.517487 S    
C4    O15   1.388394 S    
C27   H42   1.077004 S    
C45   O25   1.218091 D    
P7    O21   1.567997 D    
C1    H2    1.100290 S    
C47   H53   1.096679 S    
C53   O27   1.209656 D    
C13   H29   1.109588 S    
C48   H50   1.094957 S    
P8    O23   1.540096 D    
C42   C43   1.409123 A    
C43   H45   1.081171 S    
C15   C49   1.501443 S    
Ba1   Ba2   4.473189 S    
O1    Ba1   2.870305 S    
H38   C26   1.079866 S    
C52   H57   1.109901 S    
C12   H25   1.110078 S    
C50   H62   1.111091 S    
C47   C48   1.524169 S    
C36   C44   1.410639 A    
C40   C41   1.403247 A    
C11   C12   1.523107 S    
P8    O24   1.752816 S    
P2    O7    1.492076 D    
C13   C14   1.526143 S    
C10   H21   1.112241 S    
C45   H48   1.086101 S    
C24   C28   1.422186 A    
P1    Ba1   3.435784 S    
O16   Ba2   2.934382 S    
O16   P7    1.756870 S    
C22   C23   1.436026 A    
C14   H33   1.108134 S    
C31   C39   1.413544 A    
P4    C30   1.870610 S    
P5    C42   1.882054 S    
C51   H61   1.111950 S    
C46   H54   1.109581 S    
C53   H64   1.075468 S    
P4    Ba2   3.436462 S    
P7    O22   1.751506 S    
C26   C27   1.386747 A    
P2    C32   1.864760 S    
C50   C51   1.533910 S    
C16   H36   1.111352 S    
C17   C25   1.421331 A    
C33   C34   1.401660 A    
O6    C10   1.408920 S    
C1    C10   1.527418 S    
O3    Ba1   2.833912 S    
C48   H49   1.080371 S    
O10   C8    1.397061 S    
C5    H9    1.112669 S    
