data_mof_unit_46808.cif
_audit_creation_date              2012-12-10T17:19:25-0500
_audit_creation_method            fapswitch 2.2
_symmetry_space_group_name_H-M    P1
_symmetry_Int_Tables_number       1
_space_group_crystal_system       triclinic
_cell_length_a                    15.105993
_cell_length_b                    10.79374
_cell_length_c                    9.594662
_cell_angle_alpha                 90.151698
_cell_angle_beta                  89.470236
_cell_angle_gamma                 92.013609
_cell_volume                      1563.374121

loop_
_atom_site_label
_atom_site_type_symbol
_atom_type_description
_atom_site_fract_x
_atom_site_fract_y
_atom_site_fract_z
_atom_type_partial_charge
C1    C     C_R   0.498011 0.262688 0.499855 0.779247
C2    C     C_R   0.906854 0.509022 0.623248 0.108412
C3    C     C_R   0.958212 0.484187 0.243162 -0.209016
C4    C     C_R   0.050237 0.485741 0.245149 -0.215249
C5    C     C_R   0.094951 0.491557 0.371926 0.112959
C6    C     C_R   0.047144 0.498888 0.498343 0.087835
C7    C     C_R   0.092346 0.506903 0.626386 0.102352
C8    C     C_R   0.044562 0.516997 0.751489 -0.226683
C9    C     C_R   0.952347 0.518775 0.749854 -0.189247
C10   C     C_R   0.186950 0.491232 0.373983 -0.251759
C11   C     C_R   0.232077 0.497549 0.500886 -0.051925
C12   C     C_R   0.328782 0.497835 0.500481 0.864860
C13   C     C_R   0.184632 0.504993 0.626905 -0.261236
C14   C     C_R   0.350536 0.130052 0.633106 -0.239775
C15   C     C_R   0.279670 0.068027 0.697608 -0.224425
C16   C     C_R   0.273798 0.938938 0.699292 0.147793
C17   C     C_R   0.342570 0.870520 0.637157 0.352600
C18   C     C_R   0.416193 0.933347 0.570256 0.032818
C19   C     C_R   0.419385 0.064892 0.569121 0.033341
C20   C     C_R   0.490145 0.128815 0.499624 -0.058686
C21   C     C_R   0.554434 0.065123 0.426924 -0.185448
C22   C     C_R   0.552602 0.937478 0.427795 -0.238213
C23   C     C_R   0.494271 0.737024 0.500397 0.871891
C24   C     C_R   0.486281 0.870878 0.500877 -0.067287
C25   C     C_R   0.617902 0.663144 0.142918 -0.075010
C26   C     C_R   0.675643 0.742763 0.070277 -0.190033
C27   C     C_R   0.675402 0.743294 0.926736 -0.218705
C28   C     C_R   0.617465 0.664144 0.854998 -0.147784
C29   C     C_R   0.557791 0.580532 0.924653 0.208461
C30   C     C_R   0.557902 0.580261 0.074242 0.213573
C31   C     C_R   0.444835 0.423770 0.074462 -0.060314
C32   C     C_R   0.444869 0.423777 0.926536 -0.063327
C33   C     C_R   0.671422 0.499254 0.498973 0.819259
C34   C     C_R   0.814831 0.510931 0.621542 -0.335151
C35   C     C_R   0.768737 0.498111 0.495813 -0.115186
C36   C     C_R   0.815522 0.481713 0.368876 0.345291
C37   C     C_R   0.908926 0.487074 0.368536 0.008212
C38   C     C_R   0.954168 0.498229 0.496663 0.012585
Cu1   Cu    Cu3+1 0.499990 0.499990 0.640660 0.942747
Cu2   Cu    Cu3+1 0.500010 0.500010 0.359340 0.958420
H1    H     H_    0.779017 0.521730 0.719052 0.184168
H2    H     H_    0.348958 0.230027 0.630880 0.155468
H3    H     H_    0.227569 0.121609 0.743808 0.154417
H4    H     H_    0.604900 0.890089 0.373546 0.132878
H5    H     H_    0.399603 0.361252 0.130127 0.134919
H6    H     H_    0.623510 0.670937 0.252600 0.186603
H7    H     H_    0.720790 0.804775 0.126131 0.145409
H8    H     H_    0.720372 0.805735 0.870184 0.153239
H9    H     H_    0.622693 0.673028 0.745227 0.194217
H10   H     H_    0.399670 0.361266 0.871719 0.132865
H11   H     H_    0.926707 0.482601 0.142368 0.153034
H12   H     H_    0.086482 0.482531 0.147224 0.134682
H13   H     H_    0.223286 0.485707 0.276276 0.153380
H14   H     H_    0.219323 0.510144 0.725279 0.150175
H15   H     H_    0.078491 0.524036 0.850393 0.138107
H16   H     H_    0.916556 0.527262 0.847658 0.143746
H17   H     H_    0.607709 0.114754 0.372002 0.151785
N1    N     N_R   0.500860 0.501210 0.147910 -0.199926
N2    N     N_R   0.500890 0.501290 0.852040 -0.197241
O1    O     O_R   0.499990 0.319640 0.618810 -0.581068
O2    O     O_R   0.500000 0.319660 0.381240 -0.577322
O3    O     O_R   0.370250 0.499960 0.618800 -0.576859
O4    O     O_R   0.370260 0.499980 0.381230 -0.593259
O5    O     O_R   0.500000 0.680340 0.618760 -0.571229
O6    O     O_R   0.500010 0.680360 0.381190 -0.613687
O7    O     O_R   0.629740 0.500020 0.618770 -0.615269
O8    O     O_R   0.629750 0.500040 0.381200 -0.540894
C39   C     C_3   0.190505 0.877122 0.760030 -0.423145
C40   C     C_3   0.200441 0.852698 0.915644 -0.842434
H18   H     H_    0.256844 0.792047 0.935100 0.246049
H19   H     H_    0.211650 0.941551 0.972554 0.259236
H20   H     H_    0.138951 0.806048 0.956745 0.245864
H21   H     H_    0.133146 0.937429 0.745228 0.205745
H22   H     H_    0.173015 0.789337 0.704487 0.221197
O9    O     O_3   0.336034 0.743452 0.634365 -0.744718
H23   H     H_    0.307760 0.713782 0.722021 0.330915
O10   O     O_3   0.768881 0.460184 0.247523 -0.722206
H24   H     H_    0.799095 0.395851 0.192945 0.312960

loop_
_geom_bond_atom_site_label_1
_geom_bond_atom_site_label_2
_ccdc_geom_bond_type
C27   H8    S    
C8    C9    A    
C35   C36   A    
C7    C8    A    
O10   H24   S    
Cu1   O5    S    
C26   C27   A    
C29   C30   A    
Cu2   O4    S    
C4    H12   S    
C18   C24   A    
C31   N1    A    
C36   C37   A    
C18   C19   A    
C36   O10   S    
C5    C6    A    
C39   H22   S    
C15   C16   A    
C34   C35   A    
C40   H19   S    
C10   H13   S    
C22   H4    S    
C29   N2    A    
C16   C17   A    
Cu2   O8    S    
C23   C24   S    
C6    C38   A    
C16   C39   S    
C14   H2    S    
C2    C34   A    
C21   C22   A    
C34   H1    S    
C8    H15   S    
C33   O7    A    
Cu2   N1    S    
C1    O1    A    
Cu1   Cu2   S    
C12   O4    A    
C3    H11   S    
C39   C40   S    
C39   H21   S    
Cu2   O2    S    
C40   H20   S    
O9    H23   S    
C21   H17   S    
C37   C38   A    
C12   O3    A    
C28   H9    S    
C2    C38   A    
C31   C32   A    
Cu1   N2    S    
C17   C18   A    
C9    H16   S    
C32   H10   S    
C26   H7    S    
C23   O5    A    
Cu2   O6    S    
Cu1   O7    S    
C22   C24   A    
C3    C4    A    
C33   O8    A    
C13   H14   S    
C25   C30   A    
Cu1   O3    S    
C28   C29   A    
C1    C20   S    
C14   C19   A    
C4    C5    A    
C1    O2    A    
C11   C12   S    
C6    C7    A    
C23   O6    A    
C19   C20   A    
C25   C26   A    
C15   H3    S    
C5    C10   A    
C11   C13   A    
Cu1   O1    S    
C30   N1    A    
C33   C35   S    
C40   H18   S    
C10   C11   A    
C7    C13   A    
C20   C21   A    
C3    C37   A    
C31   H5    S    
C27   C28   A    
C17   O9    S    
C14   C15   A    
C32   N2    A    
C2    C9    A    
C25   H6    S    
