data_mof_unit_28450.cif
_audit_creation_date              2012-12-11T15:42:39-0500
_audit_creation_method            fapswitch 2.2
_symmetry_space_group_name_H-M    P1
_symmetry_Int_Tables_number       1
_space_group_crystal_system       triclinic
_cell_length_a                    6.921269
_cell_length_b                    14.621154
_cell_length_c                    16.153444
_cell_angle_alpha                 90.432699
_cell_angle_beta                  90.386406
_cell_angle_gamma                 90.041924
_cell_volume                      1634.59481295

loop_
_atom_site_label
_atom_site_type_symbol
_atom_type_description
_atom_site_fract_x
_atom_site_fract_y
_atom_site_fract_z
_atom_type_partial_charge
O1    O     O_R   0.505810 0.583360 0.413880 -0.542911
O2    O     O_R   0.175870 0.595480 0.585520 -0.545038
O3    O     O_R   0.005540 0.416640 0.586120 -0.521034
C1    C     C_R   0.345528 0.617119 0.614892 0.703244
O4    O     O_R   0.176100 0.594390 0.414490 -0.512396
O5    O     O_R   0.005770 0.415540 0.413870 -0.543033
C2    C     C_R   0.344649 0.617275 0.386376 0.740792
O6    O     O_R   0.505580 0.584460 0.586130 -0.544606
O7    O     O_3   0.339190 0.441320 0.500000 -0.371185
V1    V     V_3+5 0.064350 0.510890 0.500000 1.446012
O8    O     O_R   0.676050 0.404520 0.414480 -0.545731
C3    C     C_R   0.844864 0.381947 0.385770 0.675320
O9    O     O_R   0.675830 0.405610 0.585510 -0.555346
C4    C     C_R   0.845809 0.382135 0.612395 0.638116
V2    V     V_3+5 0.564340 0.489110 0.500000 1.398739
O10   O     O_3   0.839370 0.558680 0.500000 -0.367375
C5    C     C_2   0.723232 0.210007 0.786031 -0.117221
C6    C     C_2   0.883509 0.189167 0.829757 -0.296139
H1    H     H_    0.015828 0.227463 0.821315 0.190436
C7    C     C_2   0.715036 0.283034 0.722236 -0.233257
C8    C     C_2   0.864451 0.307295 0.673402 0.257331
C9    C     C_R   0.047869 0.222745 0.220195 -0.162570
C10   C     C_R   0.036268 0.286677 0.284980 -0.155810
H2    H     H_    0.169141 0.315563 0.309442 0.117821
C11   C     C_R   0.856114 0.313047 0.317533 -0.048219
C12   C     C_R   0.687916 0.273572 0.283521 -0.163752
H3    H     H_    0.546838 0.292107 0.306818 0.115266
C13   C     C_R   0.699519 0.209629 0.218746 -0.152444
H4    H     H_    0.566648 0.180711 0.194313 0.116870
C14   C     C_R   0.879653 0.183383 0.186086 -0.043485
C15   C     C_R   0.197348 0.739381 0.703188 -0.274442
C16   C     C_R   0.206409 0.807798 0.765848 0.440283
C17   C     C_R   0.376208 0.814873 0.815852 -0.124188
C18   C     C_R   0.535986 0.759449 0.796221 -0.234075
C19   C     C_R   0.527896 0.696668 0.730402 -0.168920
C20   C     C_R   0.357590 0.685244 0.683724 -0.084056
C21   C     C_R   0.196554 0.742719 0.298059 0.439666
C22   C     C_R   0.210461 0.803629 0.231482 -0.295586
H5    H     H_    0.086156 0.845544 0.216616 0.189776
C23   C     C_R   0.381706 0.812040 0.185699 -0.220801
C24   C     C_R   0.540454 0.755636 0.206667 0.438414
C25   C     C_R   0.526284 0.694562 0.273058 -0.291984
C26   C     C_R   0.354729 0.685762 0.318496 -0.224100
O11   O     O_R   0.230120 0.912300 0.917180 -0.506469
O12   O     O_R   0.559740 0.902430 0.088770 -0.514203
O13   O     O_R   0.729930 0.081310 0.089370 -0.543980
C27   C     C_R   0.391334 0.879903 0.117256 0.731376
O14   O     O_R   0.559840 0.901330 0.917750 -0.548218
O15   O     O_R   0.730030 0.080210 0.917120 -0.540947
C28   C     C_R   0.390011 0.880833 0.887153 0.709578
O16   O     O_R   0.230020 0.913400 0.089430 -0.546709
O17   O     O_3   0.396460 0.055470 0.003290 -0.381657
V3    V     V_3+5 0.671360 0.985960 0.003250 1.453993
O18   O     O_R   0.059740 0.091300 0.917690 -0.538108
C29   C     C_R   0.890246 0.115588 0.891720 0.734204
O19   O     O_R   0.059640 0.092400 0.088720 -0.549369
C30   C     C_R   0.890861 0.114742 0.117619 0.674259
V4    V     V_3+5 0.171350 0.007820 0.003190 1.441322
O20   O     O_3   0.896380 0.938200 0.003220 -0.357130
H6    H     H_    0.588982 0.174561 0.799039 0.141883
O21   O     O_3   0.051403 0.866452 0.781465 -0.549358
C31   C     C_3   0.948471 0.889671 0.708394 0.060755
H7    H     H_    0.842761 0.835029 0.692387 0.133578
H8    H     H_    0.047044 0.901631 0.655171 0.109398
C32   C     C_3   0.835569 0.977098 0.722705 -0.694293
H9    H     H_    0.937937 0.033863 0.735126 0.218957
H10   H     H_    0.748903 0.993595 0.666667 0.163167
H11   H     H_    0.736618 0.969009 0.775907 0.228351
H12   H     H_    0.668454 0.764424 0.832067 0.166839
H13   H     H_    0.654436 0.655692 0.717159 0.130324
O22   O     O_3   0.024932 0.737612 0.341145 -0.536264
C33   C     C_3   0.022311 0.808570 0.400970 0.124721
H14   H     H_    0.032178 0.876941 0.371254 0.103049
H15   H     H_    0.143785 0.800654 0.446021 0.087979
C34   C     C_3   0.833460 0.804831 0.448509 -0.702212
H16   H     H_    0.819888 0.738232 0.480380 0.233433
H17   H     H_    0.830390 0.860477 0.495672 0.150664
H18   H     H_    0.709220 0.813535 0.405425 0.219247
O23   O     O_3   0.713527 0.761905 0.164825 -0.538019
C35   C     C_3   0.720078 0.691531 0.104544 0.120979
H19   H     H_    0.605346 0.701809 0.056788 0.096598
H20   H     H_    0.702039 0.622837 0.132971 0.103138
C36   C     C_3   0.915445 0.693268 0.061977 -0.686894
H21   H     H_    0.032510 0.680405 0.107755 0.215300
H22   H     H_    0.920371 0.639334 0.013274 0.160960
H23   H     H_    0.939438 0.760717 0.032784 0.238176
H24   H     H_    0.650826 0.652867 0.288082 0.190563
H25   H     H_    0.575261 0.315153 0.712742 0.126547
O24   O     O_3   0.041983 0.264250 0.680906 -0.549518
C37   C     C_3   0.060513 0.199566 0.616125 0.116328
H26   H     H_    0.065499 0.233973 0.554893 0.108301
H27   H     H_    0.938507 0.149755 0.616329 0.111806
C38   C     C_3   0.247917 0.146751 0.627957 -0.727458
H28   H     H_    0.249211 0.112845 0.689268 0.219469
H29   H     H_    0.261464 0.093735 0.578756 0.168162
H30   H     H_    0.373169 0.194030 0.624366 0.219308
H31   H     H_    0.188951 0.204194 0.196915 0.114814
H32   H     H_    0.065619 0.728900 0.668089 0.114897

loop_
_geom_bond_atom_site_label_1
_geom_bond_atom_site_label_2
_ccdc_geom_bond_type
C23   C27   S    
C1    C20   S    
C38   H28   S    
C24   C25   A    
C19   C20   A    
C1    O6    A    
V3    O20   S    
C8    O24   S    
C12   H3    S    
C21   C22   A    
C4    C8    S    
C13   H4    S    
C16   O21   S    
C6    H1    S    
C35   C36   S    
O5    C3    A    
C22   H5    S    
V2    O10   S    
C14   C30   S    
C5    C7    S    
O19   C30   A    
C18   C19   A    
C15   H32   S    
C31   H8    S    
C17   C28   S    
O8    V2    S    
C15   C16   A    
C19   H13   S    
O11   V4    S    
C32   H10   S    
C10   H2    S    
O1    V2    S    
C2    C26   S    
O7    V1    S    
C15   C20   A    
O14   C28   A    
O12   V3    S    
C38   H29   S    
C9    H31   S    
O9    C4    A    
C33   C34   S    
C17   C18   A    
O12   C27   A    
O14   V3    S    
C35   H20   S    
O4    C2    A    
C35   H19   S    
C27   O16   A    
C11   C12   A    
O15   C29   A    
C21   C26   A    
O2    C1    A    
C34   H16   S    
C24   O23   S    
C31   H7    S    
C37   H27   S    
C36   H21   S    
C32   H11   S    
C5    C6    D    
O16   V4    S    
C34   H17   S    
C18   H12   S    
O3    C4    A    
O17   V4    S    
C6    C29   S    
C33   H15   S    
C23   C24   A    
C36   H22   S    
O6    V2    S    
O9    V2    S    
O13   C30   A    
C25   C26   A    
O2    V1    S    
O17   V3    S    
C37   C38   S    
O18   V4    S    
O11   C28   A    
O18   C29   A    
C9    C14   A    
C31   C32   S    
O1    C2    A    
C33   H14   S    
O5    V1    S    
O8    C3    A    
C38   H30   S    
C12   C13   A    
C3    C11   S    
C16   C17   A    
C21   O22   S    
V4    O20   S    
O4    V1    S    
O3    V1    S    
V1    O10   S    
C22   C23   A    
C37   H26   S    
O15   V3    S    
C7    H25   S    
O13   V3    S    
C13   C14   A    
O19   V4    S    
C10   C11   A    
O7    V2    S    
O21   C31   S    
C34   H18   S    
C5    H6    S    
O23   C35   S    
O22   C33   S    
C36   H23   S    
C7    C8    D    
C32   H9    S    
C9    C10   A    
C25   H24   S    
O24   C37   S    
