data_mof_unit_54979.cif
_audit_creation_date              2012-12-11T16:44:16-0500
_audit_creation_method            fapswitch 2.2
_symmetry_space_group_name_H-M    P1
_symmetry_Int_Tables_number       1
_space_group_crystal_system       triclinic
_cell_length_a                    27.158465
_cell_length_b                    7.210162
_cell_length_c                    22.771517
_cell_angle_alpha                 90.010682
_cell_angle_beta                  101.471484
_cell_angle_gamma                 90.004991
_cell_volume                      4369.97368247

loop_
_atom_site_label
_atom_site_type_symbol
_atom_type_description
_atom_site_fract_x
_atom_site_fract_y
_atom_site_fract_z
_atom_type_partial_charge
O1    O     O_R   0.707300 0.594030 0.176840 -0.527911
O2    O     O_R   0.292700 0.405970 0.823160 -0.531962
O3    O     O_R   0.792700 0.094030 0.323160 -0.528058
O4    O     O_R   0.207300 0.905970 0.676840 -0.532073
O5    O     O_R   0.697330 0.262360 0.295660 -0.510586
O6    O     O_R   0.302670 0.737640 0.704340 -0.556479
O7    O     O_R   0.802670 0.762360 0.204340 -0.510630
O8    O     O_R   0.197330 0.237640 0.795660 -0.556432
C1    C     C_R   0.684795 0.432400 0.311997 0.736173
C2    C     C_R   0.315551 0.567557 0.688861 0.772080
C3    C     C_R   0.815207 0.932397 0.188008 0.736230
C4    C     C_R   0.184450 0.067565 0.811142 0.772107
O9    O     O_R   0.701410 0.264250 0.175600 -0.548582
O10   O     O_R   0.298590 0.735750 0.824400 -0.544961
O11   O     O_R   0.798590 0.764250 0.324400 -0.548547
O12   O     O_R   0.201410 0.235750 0.675600 -0.544854
O13   O     O_R   0.796800 0.094950 0.202240 -0.542983
O14   O     O_R   0.203200 0.905050 0.797760 -0.522365
O15   O     O_R   0.703200 0.594950 0.297760 -0.542957
O16   O     O_R   0.296800 0.405050 0.702240 -0.522341
C5    C     C_R   0.689959 0.432243 0.153186 0.760357
C6    C     C_R   0.310343 0.567335 0.846421 0.781405
C7    C     C_R   0.810043 0.932287 0.346808 0.760512
C8    C     C_R   0.189660 0.067294 0.653578 0.781448
O17   O     O_3   0.781290 0.427390 0.258880 -0.374664
O18   O     O_3   0.218710 0.572610 0.741120 -0.385591
O19   O     O_3   0.718710 0.927390 0.241120 -0.374550
O20   O     O_3   0.281290 0.072610 0.758880 -0.385575
V1    V     V_3+5 0.744190 0.152150 0.248350 1.451327
V2    V     V_3+5 0.255810 0.847850 0.751650 1.411378
V3    V     V_3+5 0.755810 0.652150 0.251650 1.451402
V4    V     V_3+5 0.244190 0.347850 0.748350 1.411653
C9    C     C_R   0.154398 0.058851 0.595274 -0.152132
C10   C     C_R   0.844635 0.933412 0.405886 -0.159440
C11   C     C_R   0.345619 0.559062 0.904717 -0.152129
C12   C     C_R   0.655367 0.433182 0.094101 -0.159522
C13   C     C_R   0.142047 0.060173 0.486598 0.449224
C14   C     C_R   0.862176 0.820601 0.508643 0.439428
C15   C     C_R   0.358023 0.561965 0.013395 0.449223
C16   C     C_R   0.637730 0.319191 0.991463 0.439251
C17   C     C_R   0.173810 0.061173 0.543286 -0.382400
C18   C     C_R   0.829734 0.840242 0.452897 -0.393470
C19   C     C_R   0.326238 0.562515 0.956721 -0.382387
C20   C     C_R   0.670199 0.339274 0.047174 -0.393525
C21   C     C_R   0.102088 0.052802 0.591601 0.402074
C22   C     C_R   0.893338 0.008740 0.413994 0.391354
C23   C     C_R   0.397921 0.552363 0.908363 0.402136
C24   C     C_R   0.606709 0.508913 0.085928 0.391390
C25   C     C_R   0.068841 0.026023 0.534722 -0.132243
C26   C     C_R   0.930078 0.964194 0.466851 -0.128859
C27   C     C_R   0.431175 0.526129 0.965264 -0.132241
C28   C     C_R   0.569925 0.463982 0.033137 -0.128836
C29   C     C_R   0.089163 0.043690 0.481773 -0.007152
C30   C     C_R   0.912914 0.880612 0.516012 -0.004922
C31   C     C_R   0.410891 0.544882 0.018208 -0.007131
C32   C     C_R   0.587022 0.379530 0.984060 -0.004879
C33   C     C_R   0.016395 0.981962 0.528733 0.040152
C34   C     C_R   0.983127 0.995820 0.472046 0.040064
C35   C     C_R   0.483596 0.481627 0.971279 0.040232
C36   C     C_R   0.516895 0.496036 0.027934 0.040062
C37   C     C_R   0.004524 0.019453 0.421172 -0.264473
C38   C     C_R   0.997539 0.904737 0.576458 -0.258007
C39   C     C_R   0.495534 0.520651 0.078794 -0.264466
C40   C     C_R   0.502387 0.403481 0.923639 -0.257876
C41   C     C_R   0.056400 0.040738 0.425063 0.397875
C42   C     C_R   0.947103 0.852882 0.570887 0.391692
C43   C     C_R   0.443674 0.542430 0.074908 0.397906
C44   C     C_R   0.552795 0.351267 0.929239 0.391631
H1    H     H_    0.792002 0.783934 0.446177 0.126532
H2    H     H_    0.214193 0.068698 0.547017 0.123274
H3    H     H_    0.707900 0.282683 0.053934 0.126649
H4    H     H_    0.285864 0.570581 0.953006 0.123283
H5    H     H_    0.981964 0.004543 0.376886 0.179195
H6    H     H_    0.022589 0.866615 0.617498 0.189232
H7    H     H_    0.518102 0.506174 0.123089 0.179198
H8    H     H_    0.477300 0.364938 0.882665 0.189193
C45   C     C_R   0.873277 0.121744 0.139329 -0.231910
C46   C     C_R   0.146083 0.193523 0.893698 -0.291611
C47   C     C_R   0.626763 0.621715 0.360760 -0.232132
C48   C     C_R   0.353920 0.693366 0.606292 -0.291578
H9    H     H_    0.861027 0.245070 0.159344 0.208719
H10   H     H_    0.173638 0.304064 0.899759 0.145964
H11   H     H_    0.639038 0.745070 0.340797 0.208777
H12   H     H_    0.326361 0.803870 0.600217 0.145950
C49   C     C_R   0.907997 0.143303 0.102289 -0.211306
C50   C     C_R   0.110992 0.188433 0.930853 -0.163639
C51   C     C_R   0.592047 0.643207 0.397814 -0.211134
C52   C     C_R   0.389004 0.688184 0.569128 -0.163617
H13   H     H_    0.920129 0.280926 0.093334 0.196462
H14   H     H_    0.111804 0.297587 0.963528 0.155552
H15   H     H_    0.579947 0.780817 0.406843 0.196503
H16   H     H_    0.388190 0.797218 0.536421 0.155436
C53   C     C_R   0.926648 0.989674 0.076555 0.007427
C54   C     C_R   0.074905 0.046886 0.925621 0.008815
C55   C     C_R   0.573345 0.489512 0.423451 0.007535
C56   C     C_R   0.425096 0.546679 0.574390 0.008859
C57   C     C_R   0.910244 0.810818 0.088736 0.424121
C58   C     C_R   0.075199 0.905735 0.882099 0.396290
C59   C     C_R   0.589710 0.310687 0.411181 0.423343
C60   C     C_R   0.424824 0.405686 0.617949 0.396218
C61   C     C_R   0.872163 0.789125 0.122654 0.367751
C62   C     C_R   0.109986 0.914085 0.843160 0.381317
C63   C     C_R   0.627811 0.289058 0.377291 0.368014
C64   C     C_R   0.390032 0.414095 0.656879 0.381301
C65   C     C_R   0.854236 0.945758 0.149934 -0.210516
C66   C     C_R   0.145957 0.058481 0.849379 -0.187766
C67   C     C_R   0.645772 0.445739 0.350080 -0.210517
C68   C     C_R   0.354051 0.558437 0.650632 -0.187895
C69   C     C_R   0.013607 0.059255 0.062930 -0.362918
C70   C     C_R   0.985545 0.019426 0.938928 -0.290876
C71   C     C_R   0.486338 0.558330 0.437043 -0.362431
C72   C     C_R   0.514458 0.519684 0.561077 -0.290418
H17   H     H_    0.024335 0.070398 0.111195 0.151126
H18   H     H_    0.974131 0.010530 0.890696 0.183321
H19   H     H_    0.475592 0.569043 0.388771 0.150898
H20   H     H_    0.525891 0.511219 0.609316 0.183290
C73   C     C_R   0.050360 0.076083 0.027278 0.473040
C74   C     C_R   0.949346 0.995795 0.974911 0.491073
C75   C     C_R   0.449587 0.575159 0.472701 0.472965
C76   C     C_R   0.550660 0.496142 0.525100 0.490706
C77   C     C_R   0.036478 0.049656 0.964611 -0.042456
C78   C     C_R   0.963580 0.017377 0.037293 0.009153
C79   C     C_R   0.463506 0.549342 0.535385 -0.042538
C80   C     C_R   0.536398 0.517103 0.462699 0.009229
O21   O     O_3   0.075512 0.057832 0.373330 -0.593329
H21   H     H_    0.047763 0.056480 0.337694 0.288630
O22   O     O_3   0.930993 0.772125 0.618893 -0.591035
H22   H     H_    0.959157 0.765295 0.653999 0.301171
O23   O     O_3   0.424598 0.560513 0.126636 -0.593361
H23   H     H_    0.452359 0.559397 0.162259 0.288595
O24   O     O_3   0.568837 0.269615 0.881323 -0.591062
H24   H     H_    0.540654 0.262481 0.846244 0.301124
O25   O     O_3   0.100683 0.097582 0.053511 -0.545936
C81   C     C_3   0.107600 0.260959 0.088436 -0.238917
H25   H     H_    0.097833 0.237243 0.132926 0.151486
H26   H     H_    0.085973 0.380648 0.065328 0.108981
H27   H     H_    0.147943 0.299197 0.096374 0.178084
O26   O     O_3   0.899304 0.962488 0.949810 -0.551658
C82   C     C_3   0.894784 0.795579 0.916730 -0.173992
H28   H     H_    0.917991 0.681657 0.941199 0.160927
H29   H     H_    0.904490 0.817446 0.872109 0.149729
H30   H     H_    0.855016 0.749892 0.909043 0.164089
O27   O     O_3   0.399240 0.596094 0.446490 -0.545976
C83   C     C_3   0.392208 0.758890 0.411309 -0.238752
H31   H     H_    0.401849 0.734381 0.366792 0.151579
H32   H     H_    0.413862 0.878959 0.434150 0.109176
H33   H     H_    0.351863 0.797033 0.403459 0.178040
O28   O     O_3   0.600726 0.463639 0.550241 -0.551621
C84   C     C_3   0.605402 0.296282 0.583067 -0.175395
H34   H     H_    0.582634 0.181988 0.558187 0.161562
H35   H     H_    0.595251 0.316788 0.627517 0.149945
H36   H     H_    0.645295 0.252022 0.591142 0.164236
O29   O     O_3   0.903906 0.125473 0.369933 -0.569194
C85   C     C_3   0.900891 0.310366 0.389198 -0.195471
H37   H     H_    0.930139 0.340368 0.429743 0.138731
H38   H     H_    0.862868 0.342552 0.397890 0.139127
H39   H     H_    0.907627 0.404356 0.353046 0.160483
O30   O     O_3   0.084464 0.079907 0.643945 -0.560506
C86   C     C_3   0.069574 0.266729 0.646364 -0.221304
H40   H     H_    0.037248 0.299789 0.609538 0.149341
H41   H     H_    0.101343 0.363294 0.645100 0.136112
H42   H     H_    0.057264 0.289946 0.689406 0.169176
O31   O     O_3   0.596226 0.626377 0.129862 -0.569145
C87   C     C_3   0.599342 0.810964 0.110378 -0.195062
H43   H     H_    0.570104 0.840685 0.069805 0.138743
H44   H     H_    0.637380 0.842636 0.101638 0.139020
H45   H     H_    0.592667 0.905540 0.146422 0.160432
O32   O     O_3   0.415537 0.578408 0.855967 -0.560374
C88   C     C_3   0.430516 0.765041 0.853266 -0.221326
H46   H     H_    0.462859 0.798428 0.890040 0.149403
H47   H     H_    0.398794 0.861929 0.854389 0.135933
H48   H     H_    0.442833 0.787390 0.810188 0.169224
O33   O     O_3   0.162413 0.071335 0.435659 -0.589632
H49   H     H_    0.199491 0.082279 0.447134 0.293675
O34   O     O_3   0.845206 0.735918 0.555384 -0.590433
H50   H     H_    0.809159 0.703635 0.542609 0.292702
O35   O     O_3   0.337691 0.574210 0.064337 -0.589646
H51   H     H_    0.300620 0.585444 0.052872 0.293685
O36   O     O_3   0.654638 0.233742 0.944801 -0.590459
H52   H     H_    0.690671 0.201318 0.957590 0.292669
O37   O     O_3   0.929530 0.656701 0.065117 -0.554432
C89   C     C_3   0.973494 0.600814 0.105317 -0.289781
H53   H     H_    0.964664 0.553389 0.148577 0.159466
H54   H     H_    0.002200 0.712662 0.113543 0.145813
H55   H     H_    0.990447 0.482595 0.085254 0.158824
O38   O     O_3   0.039965 0.764279 0.874477 -0.545243
C90   C     C_3   0.052257 0.636166 0.922179 -0.269796
H56   H     H_    0.037072 0.681259 0.961613 0.159234
H57   H     H_    0.093476 0.611530 0.935745 0.107870
H58   H     H_    0.034311 0.501388 0.907317 0.170054
O39   O     O_3   0.570352 0.156529 0.434682 -0.554778
C91   C     C_3   0.526497 0.100523 0.394298 -0.289429
H59   H     H_    0.535499 0.052860 0.351146 0.159716
H60   H     H_    0.497811 0.212396 0.385881 0.145724
H61   H     H_    0.509437 0.982430 0.414290 0.158767
O40   O     O_3   0.460091 0.264370 0.625621 -0.545213
C92   C     C_3   0.447848 0.136047 0.577954 -0.269276
H62   H     H_    0.463110 0.180922 0.538555 0.159369
H63   H     H_    0.406633 0.111410 0.564304 0.107807
H64   H     H_    0.465758 0.001303 0.592894 0.170006
O41   O     O_3   0.854183 0.613566 0.130613 -0.548553
C93   C     C_3   0.815021 0.573470 0.081529 -0.181179
H65   H     H_    0.829364 0.563408 0.039143 0.161767
H66   H     H_    0.784289 0.678000 0.076924 0.110062
H67   H     H_    0.798518 0.437130 0.089275 0.137224
O42   O     O_3   0.104853 0.796726 0.794089 -0.539443
C94   C     C_3   0.122417 0.617762 0.812601 -0.105287
H68   H     H_    0.157159 0.620086 0.848189 0.085144
H69   H     H_    0.131487 0.544249 0.773361 0.160446
H70   H     H_    0.092557 0.535491 0.827153 0.155484
O43   O     O_3   0.645798 0.113525 0.369316 -0.548543
C95   C     C_3   0.684935 0.073460 0.418423 -0.181495
H71   H     H_    0.670555 0.063258 0.460780 0.161628
H72   H     H_    0.715655 0.178081 0.423097 0.110183
H73   H     H_    0.701469 0.937199 0.410659 0.137181
O44   O     O_3   0.395162 0.296852 0.705963 -0.539297
C96   C     C_3   0.377612 0.117821 0.687464 -0.105044
H74   H     H_    0.342866 0.120027 0.651880 0.085156
H75   H     H_    0.368553 0.044351 0.726711 0.160336
H76   H     H_    0.407473 0.035572 0.672912 0.155270

loop_
_geom_bond_atom_site_label_1
_geom_bond_atom_site_label_2
_ccdc_geom_bond_type
C55   C80   S    
O17   V3    S    
C59   C63   A    
C52   C56   A    
O1    C5    A    
C19   H4    S    
C51   H15   S    
O19   V1    S    
C9    C21   A    
O41   C93   S    
C2    C68   S    
O31   C87   S    
C10   C18   A    
C60   C64   A    
C48   H12   S    
C11   C23   A    
C70   C74   A    
C81   H27   S    
C47   C51   A    
O25   C81   S    
C14   O34   S    
C69   C73   A    
C33   C38   A    
C5    C12   S    
C16   C20   A    
O37   C89   S    
C96   H76   S    
O7    C3    A    
C6    C11   S    
C35   C40   A    
C26   C30   A    
C93   H66   S    
C36   C39   A    
C40   C44   A    
O2    V4    S    
C87   H43   S    
C14   C18   A    
C84   H35   S    
C70   C77   A    
C74   C78   A    
O4    C8    A    
C82   H30   S    
C55   C59   A    
C69   C78   A    
C54   C58   A    
O27   C83   S    
C64   C68   A    
O1    V3    S    
O13   V1    S    
C42   O22   S    
C20   H3    S    
C71   C75   A    
C88   H46   S    
O3    V1    S    
C73   C77   A    
C89   H53   S    
C90   H58   S    
C50   C54   A    
C73   O25   S    
O3    C7    A    
C1    O15   A    
C15   C31   A    
C86   H40   S    
C2    O16   A    
O20   V2    S    
C16   C32   A    
C93   H67   S    
C51   C55   A    
C3    C65   S    
C94   H70   S    
C86   H41   S    
C62   C66   A    
C10   C22   A    
C45   H9    S    
C11   C19   A    
C70   H18   S    
C96   H75   S    
C85   H38   S    
C69   H17   S    
C13   C29   A    
C46   C50   A    
C34   C37   A    
O11   C7    A    
O15   V3    S    
C35   C36   A    
O12   C8    A    
O33   H49   S    
C88   H47   S    
C43   O23   S    
C49   C53   A    
O10   V2    S    
C83   H33   S    
C15   O35   S    
O5    V1    S    
C60   O40   S    
C61   C65   A    
C75   O27   S    
C39   C43   A    
O7    V3    S    
C93   H65   S    
C38   C42   A    
O9    C5    A    
C94   H68   S    
C26   C34   A    
C91   H61   S    
C52   H16   S    
O44   C96   S    
C64   O44   S    
C72   C79   A    
C83   H32   S    
C50   H14   S    
C84   H36   S    
C63   O43   S    
C61   O41   S    
C24   O31   S    
C49   H13   S    
O18   V4    S    
C83   H31   S    
C15   C19   A    
C37   H5    S    
C96   H74   S    
C32   C44   A    
C13   O33   S    
C18   H1    S    
C4    C66   S    
O39   C91   S    
C76   C80   A    
C89   H55   S    
O8    V4    S    
C92   H64   S    
O5    C1    A    
C58   O38   S    
C23   C27   A    
C16   O36   S    
C46   H10   S    
C31   C43   A    
O43   C95   S    
C14   C30   A    
C95   H73   S    
C21   C25   A    
O8    C4    A    
C7    C10   S    
C57   C61   A    
C40   H8    S    
C86   H42   S    
C47   C67   A    
O28   C84   S    
C92   H63   S    
O11   V3    S    
C62   O42   S    
C85   H37   S    
C85   H39   S    
O14   V2    S    
O32   C88   S    
O6    V2    S    
C95   H72   S    
C76   O28   S    
O30   C86   S    
C88   H48   S    
C12   C20   A    
C27   C35   A    
O22   H22   S    
C53   C57   A    
C72   H20   S    
C29   C41   A    
C72   C76   A    
O23   H23   S    
O16   V4    S    
O9    V1    S    
C22   O29   S    
C48   C68   A    
C3    O13   A    
C56   C79   S    
C71   C80   A    
O42   C94   S    
C87   H45   S    
C21   O30   S    
O40   C92   S    
O24   H24   S    
O6    C2    A    
C25   C33   A    
C81   H26   S    
C82   H28   S    
C57   O37   S    
C81   H25   S    
C30   C42   A    
C44   O24   S    
C75   C79   A    
O12   V4    S    
C22   C26   A    
C8    C9    S    
C46   C66   A    
C63   C67   A    
C9    C17   A    
C91   H59   S    
O10   C6    A    
C87   H44   S    
O29   C85   S    
C90   H56   S    
C48   C52   A    
O34   H50   S    
C58   C62   A    
C84   H34   S    
C59   O39   S    
C23   O32   S    
C82   H29   S    
C33   C34   A    
O21   H21   S    
C39   H7    S    
C25   C29   A    
C56   C60   A    
C45   C65   A    
O2    C6    A    
C12   C24   A    
C27   C31   A    
C13   C17   A    
C92   H62   S    
C89   H54   S    
C90   H57   S    
O26   C82   S    
C45   C49   A    
O36   H52   S    
C47   H11   S    
C54   C77   S    
C37   C41   A    
C24   C28   A    
C95   H71   S    
C28   C36   A    
O35   H51   S    
C4    O14   A    
C94   H69   S    
C1    C67   S    
C38   H6    S    
C71   H19   S    
O38   C90   S    
C74   O26   S    
C53   C78   S    
O4    V2    S    
C28   C32   A    
C41   O21   S    
C17   H2    S    
C91   H60   S    
