data_mof_unit_36357.cif
_audit_creation_date              2012-12-10T17:19:23-0500
_audit_creation_method            fapswitch 2.2
_symmetry_space_group_name_H-M    P1
_symmetry_Int_Tables_number       1
_space_group_crystal_system       triclinic
_cell_length_a                    15.069537
_cell_length_b                    10.817218
_cell_length_c                    9.629445
_cell_angle_alpha                 88.960438
_cell_angle_beta                  90.223662
_cell_angle_gamma                 93.834445
_cell_volume                      1565.92298654

loop_
_atom_site_label
_atom_site_type_symbol
_atom_type_description
_atom_site_fract_x
_atom_site_fract_y
_atom_site_fract_z
_atom_type_partial_charge
C1    C     C_R   0.495792 0.262773 0.501456 0.814133
C2    C     C_R   0.907870 0.510892 0.627022 0.108546
C3    C     C_R   0.953052 0.502306 0.246858 -0.196475
C4    C     C_R   0.045552 0.501930 0.246739 -0.186860
C5    C     C_R   0.092766 0.504076 0.372523 0.105361
C6    C     C_R   0.046861 0.507871 0.499693 0.064644
C7    C     C_R   0.093819 0.510512 0.626775 0.108547
C8    C     C_R   0.047668 0.514666 0.752595 -0.197291
C9    C     C_R   0.955146 0.514904 0.752717 -0.201669
C10   C     C_R   0.185116 0.501864 0.373385 -0.222864
C11   C     C_R   0.231977 0.503290 0.499621 -0.073841
C12   C     C_R   0.328805 0.500387 0.499826 0.777227
C13   C     C_R   0.186144 0.508284 0.625842 -0.249092
C14   C     C_R   0.357631 0.112140 0.655347 -0.162366
C15   C     C_R   0.290898 0.039099 0.723163 -0.110873
C16   C     C_R   0.289255 0.910630 0.716885 -0.149773
C17   C     C_R   0.355359 0.854200 0.645150 -0.152924
C18   C     C_R   0.424209 0.926129 0.576228 0.032585
C19   C     C_R   0.424769 0.057109 0.580476 0.091616
C20   C     C_R   0.490177 0.128819 0.503980 -0.167903
C21   C     C_R   0.547756 0.072815 0.416617 -0.275049
C22   C     C_R   0.541651 0.945427 0.401075 0.465631
C23   C     C_R   0.496856 0.737355 0.498304 0.838602
C24   C     C_R   0.488156 0.871134 0.493725 -0.199207
C25   C     C_R   0.629767 0.648723 0.140695 -0.212829
C26   C     C_R   0.699893 0.712959 0.069920 -0.123752
C27   C     C_R   0.699182 0.714768 0.923932 -0.052006
C28   C     C_R   0.627802 0.652804 0.854922 -0.182473
C29   C     C_R   0.563206 0.574409 0.924656 0.171226
C30   C     C_R   0.563922 0.573014 0.073265 0.166266
C31   C     C_R   0.438589 0.428674 0.073024 0.071342
C32   C     C_R   0.439719 0.429690 0.925197 -0.029922
C33   C     C_R   0.671255 0.501260 0.500147 0.826711
C34   C     C_R   0.815319 0.508746 0.626323 -0.190872
C35   C     C_R   0.768342 0.504127 0.500217 -0.057357
C36   C     C_R   0.814369 0.502607 0.373886 -0.262638
C37   C     C_R   0.906857 0.504617 0.372775 0.112902
C38   C     C_R   0.953846 0.508123 0.499819 0.067885
Cu1   Cu    Cu3+1 0.499990 0.499990 0.640660 0.931665
Cu2   Cu    Cu3+1 0.500010 0.500010 0.359340 0.919964
H1    H     H_    0.780036 0.510184 0.724115 0.153482
H2    H     H_    0.354126 0.211486 0.658865 0.140070
H3    H     H_    0.239432 0.082442 0.779035 0.160445
H4    H     H_    0.236482 0.854280 0.767841 0.142506
H5    H     H_    0.349641 0.754321 0.640122 0.153201
H6    H     H_    0.626161 0.666323 0.248595 0.234733
H7    H     H_    0.625589 0.667744 0.745905 0.240018
H8    H     H_    0.778385 0.499249 0.276159 0.156863
H9    H     H_    0.391539 0.372012 0.867722 0.171416
H10   H     H_    0.917623 0.500137 0.148652 0.138141
H11   H     H_    0.080117 0.499391 0.148440 0.147944
H12   H     H_    0.220294 0.498580 0.275654 0.171194
H13   H     H_    0.222127 0.510120 0.723609 0.163411
H14   H     H_    0.083078 0.517096 0.850800 0.144753
H15   H     H_    0.920551 0.517601 0.850987 0.134433
H16   H     H_    0.596155 0.129151 0.355859 0.168952
N1    N     N_R   0.500860 0.501210 0.147910 -0.243903
N2    N     N_R   0.500890 0.501290 0.852040 -0.217702
O1    O     O_R   0.499990 0.319640 0.618810 -0.573187
O2    O     O_R   0.500000 0.319660 0.381240 -0.607561
O3    O     O_R   0.370250 0.499960 0.618800 -0.599551
O4    O     O_R   0.370260 0.499980 0.381230 -0.612495
O5    O     O_R   0.500000 0.680340 0.618760 -0.605474
O6    O     O_R   0.500010 0.680360 0.381190 -0.578548
O7    O     O_R   0.629740 0.500020 0.618770 -0.596158
O8    O     O_R   0.629750 0.500040 0.381200 -0.604994
O9    O     O_3   0.588784 0.893068 0.296421 -0.614660
C39   C     C_3   0.558656 0.934511 0.164245 0.079899
H17   H     H_    0.607141 0.909878 0.085118 0.198932
H18   H     H_    0.557545 0.036991 0.154783 0.133436
C40   C     C_3   0.466882 0.873384 0.127386 -0.395489
H19   H     H_    0.466456 0.771763 0.143330 0.253839
H20   H     H_    0.415448 0.908877 0.195787 0.216027
C41   C     C_3   0.442430 0.899636 0.976758 -0.851472
H21   H     H_    0.439391 0.000856 0.957644 0.269574
H22   H     H_    0.376235 0.852869 0.955263 0.259881
H23   H     H_    0.491721 0.862739 0.905559 0.266429
C42   C     C_2   0.368724 0.345817 0.141667 0.331717
H24   H     H_    0.371947 0.320073 0.249537 0.146513
O10   O     O_2   0.304765 0.302621 0.075905 -0.593711
C43   C     C_2   0.767140 0.784797 0.154947 0.366507
H25   H     H_    0.777657 0.757248 0.262409 0.108154
O11   O     O_2   0.807636 0.878427 0.110038 -0.546483
C44   C     C_2   0.772633 0.777317 0.840594 0.397934
H26   H     H_    0.837832 0.797099 0.885812 0.129221
O12   O     O_2   0.761822 0.804986 0.718427 -0.555051

loop_
_geom_bond_atom_site_label_1
_geom_bond_atom_site_label_2
_ccdc_geom_bond_type
C28   H7    S    
Cu2   O2    S    
C35   C36   A    
C32   N2    A    
C10   H12   S    
C43   H25   S    
C33   O7    A    
C7    C8    A    
C28   C29   A    
C26   C27   A    
C29   C30   A    
C41   H22   S    
C18   C24   A    
C36   C37   A    
C17   H5    S    
C18   C19   A    
C1    O1    A    
C5    C6    A    
C42   O10   D    
C15   C16   A    
C30   N1    A    
Cu2   O4    S    
C34   C35   A    
C39   H17   S    
C19   C20   A    
C8    C9    A    
C41   H23   S    
C23   C24   S    
C6    C38   A    
C9    H15   S    
C16   H4    S    
C14   H2    S    
C2    C34   A    
C23   O5    A    
Cu2   O8    S    
C21   C22   A    
Cu1   O7    S    
C34   H1    S    
C43   O11   D    
C3    H10   S    
C33   O8    A    
C13   H13   S    
Cu1   O3    S    
C41   H21   S    
C4    H11   S    
O9    C39   S    
C44   H26   S    
C1    O2    A    
C8    H14   S    
Cu1   Cu2   S    
C40   H20   S    
C42   H24   S    
C16   C17   A    
C25   C26   A    
Cu1   N2    S    
C22   O9    S    
C37   C38   A    
C21   H16   S    
C12   O4    A    
C2    C38   A    
C31   C32   A    
C7    C13   A    
Cu1   O1    S    
C17   C18   A    
C20   C21   A    
C23   O6    A    
C26   C43   S    
C22   C24   A    
C3    C4    A    
C31   C42   S    
C25   C30   A    
C27   C44   S    
C1    C20   S    
Cu2   N1    S    
C14   C19   A    
C44   O12   D    
C4    C5    A    
C40   C41   S    
C11   C12   S    
C6    C7    A    
Cu1   O5    S    
Cu2   O6    S    
C31   N1    A    
C15   H3    S    
C40   H19   S    
C12   O3    A    
C11   C13   A    
C39   C40   S    
C33   C35   S    
C36   H8    S    
C32   H9    S    
C10   C11   A    
C5    C10   A    
C29   N2    A    
C3    C37   A    
C39   H18   S    
C27   C28   A    
C14   C15   A    
C2    C9    A    
C25   H6    S    
