data_mof_unit_5440.cif
_audit_creation_date              2012-12-11T15:24:02-0500
_audit_creation_method            fapswitch 2.2
_symmetry_space_group_name_H-M    P1
_symmetry_Int_Tables_number       1
_space_group_crystal_system       triclinic
_cell_length_a                    17.357814
_cell_length_b                    24.453583
_cell_length_c                    14.898889
_cell_angle_alpha                 89.403314
_cell_angle_beta                  125.063571
_cell_angle_gamma                 90.79269
_cell_volume                      5175.76559107

loop_
_atom_site_label
_atom_site_type_symbol
_atom_type_description
_atom_site_fract_x
_atom_site_fract_y
_atom_site_fract_z
_atom_type_partial_charge
C1    C     C_R   0.316304 0.368752 0.908037 0.558465
C2    C     C_R   0.652504 0.349626 0.087658 0.516222
C3    C     C_R   0.811486 0.874806 0.912629 0.549002
C4    C     C_R   0.152060 0.849353 0.086378 0.536634
C5    C     C_R   0.316143 0.638177 0.008771 -0.154519
C6    C     C_R   0.621337 0.684156 0.998722 -0.209038
C7    C     C_R   0.814578 0.137387 0.007233 -0.143771
C8    C     C_R   0.106950 0.187718 0.998219 -0.166243
C9    C     C_R   0.590165 0.499484 0.375591 -0.090385
C10   C     C_R   0.532807 0.499432 0.701786 -0.006355
C11   C     C_R   0.092189 0.001374 0.376191 -0.088108
C12   C     C_R   0.031488 0.999677 0.700589 -0.007582
C13   C     C_R   0.202201 0.496663 0.633343 -0.251157
C14   C     C_R   0.824406 0.494860 0.274154 -0.199293
C15   C     C_R   0.702396 0.996986 0.632328 -0.267000
C16   C     C_R   0.324121 0.993257 0.271986 -0.184316
C17   C     C_2   0.978908 0.450676 0.380024 0.131402
C18   C     C_2   0.079240 0.461756 0.453099 0.215742
C19   C     C_2   0.478938 0.949424 0.379559 0.168726
C20   C     C_2   0.579209 0.961830 0.451427 0.210743
C21   C     C_2   0.922115 0.489694 0.307326 0.526735
C22   C     C_2   0.106892 0.496974 0.535314 0.520332
C23   C     C_2   0.421035 0.986545 0.302490 0.498961
C24   C     C_2   0.606334 0.996688 0.534114 0.512894
C25   C     C_R   0.159444 0.680518 0.926838 0.468393
C26   C     C_R   0.734505 0.761698 0.096669 0.501351
C27   C     C_R   0.657795 0.180178 0.923184 0.466886
C28   C     C_R   0.162739 0.285759 0.070238 0.479245
C29   C     C_R   0.640917 0.236510 0.906599 0.384028
C30   C     C_R   0.217165 0.330364 0.074830 0.426038
C31   C     C_R   0.140549 0.736530 0.907012 0.388524
C32   C     C_R   0.752381 0.817153 0.104186 0.429304
C33   C     C_R   0.683525 0.271326 0.999510 -0.370739
C34   C     C_R   0.224736 0.337777 0.986288 -0.323834
C35   C     C_R   0.184996 0.772894 0.997533 -0.374286
C36   C     C_R   0.731314 0.843441 0.008656 -0.327975
C37   C     C_R   0.758605 0.250557 0.101857 0.419565
C38   C     C_R   0.152221 0.314595 0.886369 0.414491
C39   C     C_R   0.262500 0.754001 0.099922 0.430492
C40   C     C_R   0.648290 0.827233 0.909407 0.423679
C41   C     C_R   0.279087 0.697914 0.114330 0.425856
C42   C     C_R   0.618326 0.771769 0.899125 0.338255
C43   C     C_R   0.774192 0.194346 0.112425 0.435805
C44   C     C_R   0.125242 0.260918 0.891600 0.338061
C45   C     C_R   0.409749 0.629941 0.094713 0.605507
C46   C     C_R   0.551994 0.653177 0.910254 0.746757
C47   C     C_R   0.907185 0.127430 0.094279 0.571102
C48   C     C_R   0.045178 0.154062 0.910173 0.729693
C49   C     C_R   0.246511 0.666394 0.020450 -0.265718
C50   C     C_R   0.657269 0.739885 0.997066 -0.300778
C51   C     C_R   0.743396 0.164624 0.017393 -0.257503
C52   C     C_R   0.132260 0.245203 0.988263 -0.281651
C53   C     C_R   0.592186 0.549297 0.601233 0.406800
C54   C     C_R   0.631362 0.548578 0.541949 0.450370
C55   C     C_R   0.083736 0.050130 0.594604 0.436532
C56   C     C_R   0.126045 0.050940 0.538826 0.448733
C57   C     C_R   0.628085 0.499306 0.493123 -0.363678
C58   C     C_R   0.574939 0.499293 0.637688 -0.346081
C59   C     C_R   0.128487 0.001697 0.493435 -0.365036
C60   C     C_R   0.072144 0.999992 0.635186 -0.358751
C61   C     C_R   0.633745 0.450364 0.546288 0.428870
C62   C     C_R   0.599158 0.449306 0.611421 0.433672
C63   C     C_R   0.135877 0.952672 0.547732 0.427803
C64   C     C_R   0.100559 0.950806 0.612124 0.434474
C65   C     C_R   0.567237 0.454599 0.309589 -0.071459
C66   C     C_R   0.497286 0.454895 0.726533 -0.162875
C67   C     C_R   0.071682 0.956291 0.311596 -0.072554
C68   C     C_R   0.997698 0.954824 0.726935 -0.172000
C69   C     C_R   0.253578 0.542543 0.690830 0.752013
C70   C     C_R   0.770997 0.542314 0.250939 0.598131
C71   C     C_R   0.753562 0.042821 0.690724 0.726480
C72   C     C_R   0.271558 0.041294 0.248319 0.603124
C73   C     C_R   0.550731 0.544042 0.304714 0.682444
C74   C     C_R   0.523132 0.544017 0.752730 0.632478
C75   C     C_R   0.048176 0.044524 0.303501 0.697957
C76   C     C_R   0.021050 0.044391 0.750682 0.645627
C77   C     C_R   0.245669 0.452479 0.700347 -0.205550
C78   C     C_R   0.764120 0.451618 0.245723 -0.223971
C79   C     C_R   0.746635 0.952803 0.698855 -0.139016
C80   C     C_R   0.263551 0.950741 0.245722 -0.228257
C81   C     C_R   0.310159 0.624104 0.912691 0.261069
C82   C     C_R   0.645662 0.652517 0.090538 0.370127
C83   C     C_R   0.810438 0.124690 0.911872 0.264100
C84   C     C_R   0.141520 0.154074 0.090276 0.346449
C85   C     C_R   0.398843 0.374587 0.089498 0.482654
C86   C     C_R   0.570006 0.353010 0.907191 0.514087
C87   C     C_R   0.901659 0.877295 0.094051 0.479828
C88   C     C_R   0.070401 0.853809 0.906080 0.518559
C89   C     C_R   0.309590 0.360050 0.996094 -0.172584
C90   C     C_R   0.641439 0.324014 0.996971 -0.144941
C91   C     C_R   0.809785 0.866317 0.005278 -0.158833
C92   C     C_R   0.141856 0.824912 0.995150 -0.144149
H1    H     H_    0.591444 0.413385 0.336153 0.209202
H2    H     H_    0.481881 0.415373 0.691080 0.236605
H3    H     H_    0.103896 0.917195 0.341829 0.196196
H4    H     H_    0.984301 0.914870 0.693456 0.239962
H5    H     H_    0.229045 0.410008 0.677560 0.241539
H6    H     H_    0.778817 0.409395 0.245438 0.222625
H7    H     H_    0.732307 0.910668 0.673190 0.230485
H8    H     H_    0.277628 0.908165 0.246616 0.221584
N1    N     N_R   0.395440 0.396300 0.944370 -0.152136
N2    N     N_R   0.604560 0.396300 0.055630 -0.138400
N3    N     N_R   0.895440 0.896300 0.944370 -0.152885
N4    N     N_R   0.104560 0.896300 0.055630 -0.139855
N5    N     N_R   0.449890 0.602500 0.055780 -0.149630
N6    N     N_R   0.550110 0.602500 0.944220 -0.142958
N7    N     N_R   0.949890 0.102500 0.055780 -0.153894
N8    N     N_R   0.050110 0.102500 0.944220 -0.138226
N9    N     N_R   0.525090 0.470990 0.205640 -0.085462
N10   N     N_R   0.474910 0.470990 0.794360 -0.092847
N11   N     N_R   0.025090 0.970990 0.205640 -0.082572
N12   N     N_R   0.974910 0.970990 0.794360 -0.094452
N13   N     N_R   0.320240 0.527820 0.794510 -0.108746
N14   N     N_R   0.679760 0.527820 0.205490 -0.104794
N15   N     N_R   0.820240 0.027820 0.794510 -0.107600
N16   N     N_R   0.179760 0.027820 0.205490 -0.104758
N17   N     N_R   0.524580 0.527810 0.205160 -0.140635
N18   N     N_R   0.475420 0.527810 0.794840 -0.118229
N19   N     N_R   0.024580 0.027810 0.205160 -0.141105
N20   N     N_R   0.975420 0.027810 0.794840 -0.116415
N21   N     N_R   0.320750 0.470990 0.794990 -0.088794
N22   N     N_R   0.679250 0.470990 0.205010 -0.069794
N23   N     N_R   0.820750 0.970990 0.794990 -0.088437
N24   N     N_R   0.179250 0.970990 0.205010 -0.072294
N25   N     N_R   0.393580 0.602500 0.942610 -0.130517
N26   N     N_R   0.606420 0.602500 0.057390 -0.137524
N27   N     N_R   0.893580 0.102500 0.942610 -0.128783
N28   N     N_R   0.106420 0.102500 0.057390 -0.132557
N29   N     N_R   0.451750 0.396300 0.057540 -0.136710
N30   N     N_R   0.548250 0.396300 0.942460 -0.142531
N31   N     N_R   0.951750 0.896300 0.057540 -0.139751
N32   N     N_R   0.048250 0.896300 0.942460 -0.143713
Ni1   Ni    Ni4+2 0.435420 0.434250 0.870220 0.180410
Ni2   Ni    Ni4+2 0.564580 0.434250 0.129780 0.202380
Ni3   Ni    Ni4+2 0.935420 0.934250 0.870220 0.177237
Ni4   Ni    Ni4+2 0.064580 0.934250 0.129780 0.195454
Ni5   Ni    Ni4+2 0.563400 0.564580 0.128670 0.242757
Ni6   Ni    Ni4+2 0.436600 0.564580 0.871330 0.259968
Ni7   Ni    Ni4+2 0.063400 0.064580 0.128670 0.233216
Ni8   Ni    Ni4+2 0.936600 0.064580 0.871330 0.265416
O1    O     O_3   0.274932 0.336638 0.815296 -0.577240
C93   C     C_3   0.311733 0.283140 0.846768 -0.219856
H9    H     H_    0.390058 0.283252 0.902531 0.070485
H10   H     H_    0.289407 0.259705 0.772022 0.170977
H11   H     H_    0.284414 0.260910 0.888265 0.162651
O2    O     O_3   0.679995 0.324586 0.185408 -0.554568
C94   C     C_3   0.611535 0.285135 0.164905 -0.197726
H12   H     H_    0.540534 0.303218 0.122772 0.098314
H13   H     H_    0.630950 0.267959 0.244437 0.150255
H14   H     H_    0.608364 0.250578 0.115230 0.098394
O3    O     O_3   0.750993 0.850856 0.811476 -0.581071
C95   C     C_3   0.775766 0.795364 0.817769 -0.201294
H15   H     H_    0.852133 0.787210 0.878769 0.053585
H16   H     H_    0.756067 0.782389 0.735936 0.178190
H17   H     H_    0.736261 0.769035 0.838976 0.183028
O4    O     O_3   0.175321 0.822130 0.180764 -0.561833
C96   C     C_3   0.108199 0.780070 0.152629 -0.265939
H18   H     H_    0.034946 0.795669 0.101770 0.102920
H19   H     H_    0.121690 0.762195 0.229077 0.149303
H20   H     H_    0.113873 0.746030 0.108403 0.112863
O5    O     O_3   0.961685 0.530311 0.279521 -0.612123
C97   C     C_3   0.914615 0.531233 0.164686 -0.260061
H21   H     H_    0.841864 0.546890 0.122713 0.145613
H22   H     H_    0.913666 0.490134 0.132460 0.123691
H23   H     H_    0.953075 0.559558 0.144458 0.160011
O6    O     O_3   0.043937 0.534503 0.527806 -0.629698
C98   C     C_3   0.027314 0.523578 0.608626 -0.221379
H24   H     H_    0.093029 0.522256 0.693048 0.156189
H25   H     H_    0.986204 0.485092 0.589577 0.141207
H26   H     H_    0.984392 0.557060 0.607559 0.168745
O7    O     O_3   0.458709 0.023791 0.266189 -0.619433
C99   C     C_3   0.406381 0.021564 0.150825 -0.219531
H27   H     H_    0.335557 0.039613 0.111903 0.151044
H28   H     H_    0.400148 0.978962 0.121333 0.111318
H29   H     H_    0.443837 0.046205 0.123911 0.160442
O8    O     O_3   0.540205 0.030854 0.528639 -0.645451
C100  C     C_3   0.534606 0.021177 0.618320 -0.193306
H30   H     H_    0.595269 0.040101 0.694357 0.184159
H31   H     H_    0.529633 0.976744 0.631030 0.161315
H32   H     H_    0.469777 0.040453 0.600694 0.144724
O9    O     O_3   0.104401 0.640855 0.848960 -0.548013
C101  C     C_3   0.009467 0.645944 0.811701 -0.152981
H33   H     H_    0.975295 0.680439 0.752837 0.176438
H34   H     H_    0.002118 0.650597 0.880784 0.070510
H35   H     H_    0.971231 0.608007 0.767331 0.127338
O10   O     O_3   0.801091 0.729387 0.183375 -0.540394
C102  C     C_3   0.849691 0.698505 0.151005 -0.115791
H36   H     H_    0.919083 0.686893 0.225516 0.154730
H37   H     H_    0.862844 0.721478 0.095919 0.043126
H38   H     H_    0.810935 0.660142 0.109848 0.152763
O11   O     O_3   0.602909 0.141680 0.842320 -0.551238
C103  C     C_3   0.506951 0.148318 0.799555 -0.150657
H39   H     H_    0.476458 0.183261 0.741295 0.177559
H40   H     H_    0.495724 0.153247 0.865540 0.068921
H41   H     H_    0.468063 0.110954 0.752960 0.127379
O12   O     O_3   0.135157 0.284686 0.140386 -0.526634
C104  C     C_3   0.051204 0.314750 0.091512 -0.200167
H42   H     H_    0.991864 0.293348 0.017818 0.079239
H43   H     H_    0.058677 0.357051 0.069339 0.119140
H44   H     H_    0.033414 0.318589 0.151610 0.163393
O13   O     O_3   0.603405 0.256031 0.801984 -0.558590
C105  C     C_3   0.675209 0.283154 0.800016 0.093202
H45   H     H_    0.744298 0.262014 0.849655 0.049484
H46   H     H_    0.685144 0.325821 0.829798 0.147289
H47   H     H_    0.653950 0.284620 0.714226 0.155639
O14   O     O_3   0.258127 0.365469 0.163873 -0.537065
C106  C     C_3   0.230739 0.420012 0.128091 -0.043232
H48   H     H_    0.246682 0.444767 0.198948 0.143134
H49   H     H_    0.153967 0.423523 0.063163 0.050500
H50   H     H_    0.271230 0.438182 0.098442 0.123081
O15   O     O_3   0.098101 0.754298 0.800327 -0.557895
C107  C     C_3   0.166467 0.780927 0.791233 0.084686
H51   H     H_    0.236543 0.760827 0.839970 0.054545
H52   H     H_    0.175785 0.824255 0.817318 0.152928
H53   H     H_    0.141933 0.780165 0.704220 0.151367
O16   O     O_3   0.802054 0.841110 0.206947 -0.536844
C108  C     C_3   0.761254 0.891653 0.201774 -0.043585
H54   H     H_    0.796000 0.907274 0.286457 0.150740
H55   H     H_    0.684763 0.886913 0.165460 0.087753
H56   H     H_    0.772665 0.922698 0.155330 0.118312
O17   O     O_3   0.818260 0.283371 0.192344 -0.531406
C109  C     C_3   0.864377 0.323130 0.168355 -0.025430
H57   H     H_    0.839263 0.364440 0.168108 0.114718
H58   H     H_    0.855158 0.317768 0.088469 0.020084
H59   H     H_    0.940831 0.322191 0.234415 0.169826
O18   O     O_3   0.118159 0.339775 0.786702 -0.561210
C110  C     C_3   0.080379 0.391024 0.783450 -0.190402
H60   H     H_    0.137034 0.421169 0.836753 0.130145
H61   H     H_    0.029507 0.387724 0.806182 0.079958
H62   H     H_    0.041308 0.406569 0.698242 0.186448
O19   O     O_3   0.321743 0.788463 0.187787 -0.537234
C111  C     C_3   0.363645 0.828853 0.159214 -0.049084
H63   H     H_    0.334902 0.869560 0.155550 0.104522
H64   H     H_    0.354394 0.822115 0.079685 0.038610
H65   H     H_    0.440290 0.830449 0.224546 0.176660
O20   O     O_3   0.605923 0.862106 0.819598 -0.563213
C112  C     C_3   0.581742 0.911399 0.845880 -0.207699
H66   H     H_    0.644115 0.939002 0.892337 0.150340
H67   H     H_    0.550111 0.904360 0.892407 0.090223
H68   H     H_    0.527763 0.932303 0.768640 0.146357
O21   O     O_3   0.335063 0.675418 0.218194 -0.524463
C113  C     C_3   0.288264 0.680672 0.270163 -0.153095
H69   H     H_    0.214709 0.664530 0.218160 0.070640
H70   H     H_    0.289464 0.723623 0.294319 0.210273
H71   H     H_    0.325203 0.656467 0.346696 0.100945
O22   O     O_3   0.573372 0.743830 0.799562 -0.576718
C114  C     C_3   0.503591 0.773942 0.706963 0.113224
H72   H     H_    0.535135 0.796360 0.670096 0.188597
H73   H     H_    0.463894 0.801732 0.725022 0.072336
H74   H     H_    0.451579 0.744644 0.644094 0.118060
O23   O     O_3   0.824001 0.169227 0.214111 -0.525094
C115  C     C_3   0.771640 0.173378 0.259468 -0.170654
H75   H     H_    0.695352 0.164059 0.198614 0.075033
H76   H     H_    0.781497 0.214352 0.296264 0.203025
H77   H     H_    0.797135 0.142942 0.325841 0.103244
O24   O     O_3   0.110329 0.220867 0.817000 -0.607526
C116  C     C_3   0.052464 0.238207 0.706709 0.175466
H78   H     H_    0.095588 0.257757 0.681789 0.161076
H79   H     H_    0.994273 0.265118 0.689844 0.087646
H80   H     H_    0.019242 0.201658 0.654812 0.159485
O25   O     O_3   0.572702 0.599772 0.623654 -0.535022
C117  C     C_3   0.482952 0.616368 0.534853 -0.007383
H81   H     H_    0.486520 0.631662 0.466946 0.202907
H82   H     H_    0.428879 0.583270 0.505905 0.028594
H83   H     H_    0.460265 0.650835 0.562099 0.148016
O26   O     O_3   0.654394 0.597982 0.515779 -0.535692
C118  C     C_3   0.746401 0.595393 0.541939 -0.110926
H84   H     H_    0.749167 0.568318 0.484412 0.105806
H85   H     H_    0.797927 0.581758 0.628154 0.066695
H86   H     H_    0.768048 0.636985 0.533698 0.175648
O27   O     O_3   0.050818 0.098971 0.604846 -0.543963
C119  C     C_3   0.958433 0.106862 0.511550 -0.099197
H87   H     H_    0.960950 0.125719 0.445292 0.229082
H88   H     H_    0.914917 0.068634 0.482660 0.063577
H89   H     H_    0.922489 0.135850 0.532251 0.120926
O28   O     O_3   0.143475 0.101157 0.509205 -0.535965
C120  C     C_3   0.236574 0.102629 0.538429 -0.125910
H90   H     H_    0.244899 0.075300 0.485424 0.110839
H91   H     H_    0.288331 0.091965 0.626448 0.069301
H92   H     H_    0.252963 0.144893 0.526119 0.181848
O29   O     O_3   0.664452 0.402300 0.528658 -0.612122
C121  C     C_3   0.759002 0.408879 0.564364 -0.205689
H93   H     H_    0.785408 0.368684 0.559788 0.182910
H94   H     H_    0.804679 0.422686 0.651257 0.108664
H95   H     H_    0.765259 0.437693 0.510555 0.154269
O30   O     O_3   0.592035 0.399614 0.651590 -0.608860
C122  C     C_3   0.518488 0.368037 0.563881 -0.145074
H96   H     H_    0.454016 0.392506 0.507522 0.127945
H97   H     H_    0.498449 0.334946 0.598265 0.187130
H98   H     H_    0.541771 0.347743 0.517203 0.178636
O31   O     O_3   0.168328 0.905045 0.531229 -0.614611
C123  C     C_3   0.263544 0.912363 0.570108 -0.209036
H99   H     H_    0.291013 0.872646 0.565157 0.179613
H100  H     H_    0.307417 0.925351 0.657582 0.113728
H101  H     H_    0.271172 0.942159 0.518692 0.155344
O32   O     O_3   0.094252 0.900892 0.652160 -0.615206
C124  C     C_3   0.020850 0.869326 0.564277 -0.133319
H102  H     H_    0.045783 0.847798 0.520450 0.178742
H103  H     H_    0.957330 0.893989 0.505405 0.118116
H104  H     H_    0.998235 0.837399 0.598107 0.185649
O33   O     O_3   0.462555 0.665937 0.180785 -0.513604
C125  C     C_3   0.470736 0.716184 0.138262 0.026467
H105  H     H_    0.402331 0.736172 0.082660 0.028117
H106  H     H_    0.499364 0.710814 0.088940 0.074429
H107  H     H_    0.517455 0.744353 0.207220 0.186481
O34   O     O_3   0.475047 0.672833 0.811759 -0.557367
C126  C     C_3   0.423390 0.709567 0.830667 -0.138487
H108  H     H_    0.456149 0.750604 0.854947 0.099133
H109  H     H_    0.415299 0.695613 0.895440 0.088955
H110  H     H_    0.352612 0.714601 0.753261 0.196251
O35   O     O_3   0.958005 0.158043 0.188821 -0.525691
C127  C     C_3   0.979298 0.209023 0.162614 0.032673
H111  H     H_    0.915649 0.233768 0.111080 0.030501
H112  H     H_    0.009689 0.204723 0.115018 0.115537
H113  H     H_    0.029621 0.231540 0.239556 0.200996
O36   O     O_3   0.970414 0.170469 0.806411 -0.568147
C128  C     C_3   0.918141 0.212271 0.812597 -0.165583
H114  H     H_    0.948723 0.253181 0.818673 0.099816
H115  H     H_    0.911025 0.206447 0.881700 0.100508
H116  H     H_    0.846717 0.212406 0.734972 0.209693
O37   O     O_3   0.262795 0.589880 0.644996 -0.577979
C129  C     C_3   0.263509 0.578471 0.552750 -0.171840
H117  H     H_    0.190908 0.571032 0.479247 0.163112
H118  H     H_    0.291760 0.614869 0.535259 0.151623
H119  H     H_    0.309909 0.543460 0.567604 0.107585
O38   O     O_3   0.802115 0.595082 0.256209 -0.637271
C130  C     C_3   0.874349 0.608736 0.365668 0.009728
H120  H     H_    0.873237 0.653418 0.376449 0.190466
H121  H     H_    0.866018 0.588498 0.427010 0.075181
H122  H     H_    0.943908 0.600553 0.382499 0.208434
O39   O     O_3   0.763107 0.090512 0.645977 -0.576979
C131  C     C_3   0.756507 0.080695 0.548566 -0.164428
H123  H     H_    0.682153 0.074068 0.478452 0.158240
H124  H     H_    0.782145 0.117670 0.529294 0.150563
H125  H     H_    0.801299 0.045897 0.557768 0.112450
O40   O     O_3   0.303785 0.093082 0.248152 -0.635013
C132  C     C_3   0.380905 0.107244 0.355240 -0.001890
H126  H     H_    0.386687 0.152420 0.362087 0.167363
H127  H     H_    0.372865 0.092008 0.420271 0.102882
H128  H     H_    0.447879 0.093871 0.370426 0.203850
O41   O     O_3   0.496109 0.580639 0.314788 -0.541809
C133  C     C_3   0.410621 0.553938 0.282232 -0.180319
H129  H     H_    0.422598 0.516223 0.330969 0.100865
H130  H     H_    0.367165 0.544211 0.193191 0.112266
H131  H     H_    0.369112 0.580882 0.297462 0.178560
O42   O     O_3   0.581347 0.589457 0.790649 -0.558384
C134  C     C_3   0.675318 0.573432 0.870411 -0.195285
H132  H     H_    0.706448 0.553027 0.832202 0.142187
H133  H     H_    0.680811 0.546339 0.934420 0.081602
H134  H     H_    0.718255 0.610637 0.912187 0.148138
O43   O     O_3   0.986544 0.076206 0.310861 -0.541075
C135  C     C_3   0.902710 0.045672 0.271387 -0.185323
H135  H     H_    0.916584 0.007963 0.320796 0.102682
H136  H     H_    0.865648 0.035178 0.183194 0.117210
H137  H     H_    0.853928 0.070326 0.278760 0.178972
O44   O     O_3   0.074041 0.091957 0.782356 -0.552428
C136  C     C_3   0.170193 0.079503 0.859914 -0.162093
H138  H     H_    0.201219 0.060661 0.820204 0.124283
H139  H     H_    0.181120 0.052390 0.926809 0.071873
H140  H     H_    0.209385 0.118159 0.898399 0.175378
Br1   Br    Br    0.216988 0.650428 0.768030 -0.517575
Br2   Br    Br    0.677743 0.680779 0.228927 -0.511881
Br3   Br    Br    0.720090 0.153010 0.768137 -0.526481
Br4   Br    Br    0.192398 0.179160 0.236596 -0.522895
O45   O     O_3   0.425425 0.373698 0.196181 -0.591967
C137  C     C_3   0.451950 0.320213 0.238634 -0.118143
H141  H     H_    0.527600 0.314428 0.274591 0.112836
H142  H     H_    0.408805 0.287500 0.177535 0.095186
H143  H     H_    0.442943 0.315409 0.306227 0.183256
O46   O     O_3   0.526073 0.339873 0.798683 -0.598912
C138  C     C_3   0.432958 0.323073 0.753028 -0.163644
H144  H     H_    0.393569 0.353560 0.766100 0.163388
H145  H     H_    0.432596 0.281900 0.784625 0.128874
H146  H     H_    0.396006 0.319083 0.663117 0.174095
O47   O     O_3   0.934756 0.875519 0.202839 -0.585287
C139  C     C_3   0.993337 0.829792 0.252329 -0.110763
H147  H     H_    0.061656 0.836992 0.264246 0.126796
H148  H     H_    0.959847 0.791778 0.204925 0.105454
H149  H     H_    0.007782 0.823582 0.334490 0.183064
O48   O     O_3   0.021218 0.838558 0.797945 -0.597560
C140  C     C_3   0.930684 0.820535 0.761808 -0.184077
H150  H     H_    0.890626 0.853090 0.769052 0.149947
H151  H     H_    0.935160 0.782590 0.806154 0.120074
H152  H     H_    0.891463 0.810048 0.673623 0.182248
Br5   Br    Br    0.941752 0.391293 0.434590 -0.585213
Br6   Br    Br    0.163465 0.414497 0.446198 -0.579503
Br7   Br    Br    0.442172 0.893496 0.441021 -0.580878
Br8   Br    Br    0.664592 0.917423 0.441401 -0.612570

loop_
_geom_bond_atom_site_label_1
_geom_bond_atom_site_label_2
_ccdc_geom_bond_type
C129  H118  S    
C87   O47   S    
C96   H18   S    
C87   C91   A    
O31   C123  S    
N10   N18   A    
C132  H126  S    
C39   C41   A    
O33   C125  S    
C73   O41   S    
C121  H93   S    
C136  H138  S    
C9    C73   A    
C14   C21   S    
C79   H7    S    
N28   Ni7   S    
C26   C50   A    
C129  H119  S    
O27   C119  S    
C29   C33   A    
N14   Ni5   S    
C104  H43   S    
C101  H33   S    
C85   N29   A    
C19   C20   S    
C45   N5    A    
C119  H87   S    
C106  H50   S    
C113  H70   S    
C122  H97   S    
O38   C130  S    
C139  H149  S    
C38   O18   S    
C72   O40   S    
C8    C84   A    
C5    C49   S    
C41   C49   A    
C84   Br4   S    
C97   H22   S    
C82   Br2   S    
C113  H71   S    
N15   N23   A    
C105  H45   S    
O11   C103  S    
C103  H41   S    
C94   H14   S    
C73   N17   A    
C86   C90   A    
N12   N20   A    
C133  H129  S    
C44   O24   S    
C17   C21   D    
O36   C128  S    
C16   C80   A    
C101  H35   S    
C61   O29   S    
C128  H116  S    
C19   C23   D    
C97   H23   S    
C110  H60   S    
O47   C139  S    
C135  H135  S    
C111  H64   S    
O34   C126  S    
C64   O32   S    
C66   N10   A    
C36   C91   S    
O32   C124  S    
C96   H20   S    
C140  H150  S    
C93   H10   S    
C55   O27   S    
C24   O8    S    
C1    N1    A    
C132  H128  S    
O2    C94   S    
C114  H74   S    
C3    N3    A    
C72   N16   A    
N2    N30   A    
O12   C104  S    
C133  H131  S    
C53   C58   A    
C57   C61   A    
N1    Ni1   S    
N25   Ni6   S    
C59   C63   A    
C56   C59   A    
N5    N25   A    
C60   C64   A    
C123  H100  S    
N7    N27   A    
O45   C137  S    
C119  H89   S    
C112  H66   S    
C4    N4    A    
C27   C51   A    
C19   Br7   S    
C9    C65   A    
C17   Br5   S    
C22   O6    S    
C43   O23   S    
C130  H120  S    
C23   O7    S    
C107  H51   S    
O37   C129  S    
C41   O21   S    
C126  H109  S    
O10   C102  S    
N18   Ni6   S    
C109  H57   S    
O48   C140  S    
C25   C31   A    
C7    C83   A    
C26   C32   A    
C27   C29   A    
C94   H12   S    
C25   O9    S    
O46   C138  S    
C98   H25   S    
C53   C54   A    
C12   C68   A    
C69   N13   A    
C76   N20   A    
C32   C36   A    
C47   O35   S    
C10   C58   S    
O25   C117  S    
C118  H86   S    
N11   Ni4   S    
C2    N2    A    
C135  H137  S    
C53   O25   S    
C127  H111  S    
N11   N19   A    
O21   C113  S    
C68   N12   A    
C87   N31   A    
N22   Ni2   S    
C15   C79   A    
C100  H31   S    
C56   O28   S    
C140  H152  S    
C77   H5    S    
N20   Ni8   S    
C45   O33   S    
C8    C52   S    
C86   O46   S    
C44   C52   A    
C40   C42   A    
C120  H90   S    
C67   H3    S    
C124  H103  S    
C99   H28   S    
C10   C66   A    
C74   N18   A    
C125  H106  S    
C30   C34   A    
N13   Ni6   S    
C131  H123  S    
N31   Ni4   S    
C130  H121  S    
C86   N30   A    
C109  H59   S    
C108  H54   S    
N8    N28   A    
N23   Ni3   S    
C103  H40   S    
C62   O30   S    
O17   C109  S    
C107  H53   S    
C138  H146  S    
C17   C18   S    
C75   O43   S    
C6    C50   S    
C109  H58   S    
C137  H143  S    
C42   C50   A    
C115  H77   S    
C15   C24   S    
C110  H61   S    
C16   C23   S    
N27   Ni8   S    
O22   C114  S    
C42   O22   S    
N4    Ni4   S    
C81   N25   A    
C18   C22   D    
C83   N27   A    
C118  H84   S    
C99   H29   S    
C117  H81   S    
C121  H94   S    
C127  H113  S    
C126  H110  S    
C112  H67   S    
C34   C89   S    
C11   C75   A    
C134  H134  S    
C26   O10   S    
C13   C69   A    
C46   N6    A    
C28   O12   S    
C48   O36   S    
N7    Ni7   S    
C104  H42   S    
C101  H34   S    
C77   N21   A    
N5    Ni5   S    
C63   C64   A    
C32   O16   S    
N13   N21   A    
O28   C120  S    
C121  H95   S    
C96   H19   S    
O18   C110  S    
C112  H68   S    
C106  H49   S    
C115  H75   S    
N3    N31   A    
C54   C57   A    
N1    N29   A    
C58   C62   A    
C55   C56   A    
N26   Ni5   S    
C84   N28   A    
C16   C72   A    
C131  H125  S    
O40   C132  S    
C117  H83   S    
O5    C97   S    
N9    N17   A    
O23   C115  S    
C70   O38   S    
O9    C101  S    
C139  H147  S    
C108  H56   S    
C37   O17   S    
C68   H4    S    
C105  H46   S    
C94   H13   S    
C133  H130  S    
C18   Br6   S    
C138  H144  S    
C3    C91   A    
C124  H102  S    
C128  H115  S    
C137  H141  S    
C82   N26   A    
C102  H38   S    
O43   C135  S    
C105  H47   S    
C135  H136  S    
O3    C95   S    
C76   O44   S    
C46   O34   S    
N16   Ni7   S    
C35   C92   S    
C129  H117  S    
C136  H139  S    
C55   C60   A    
C71   O39   S    
C14   C70   A    
C93   H11   S    
C11   C59   S    
C132  H127  S    
C83   Br3   S    
C114  H73   S    
C29   O13   S    
N24   Ni4   S    
C106  H48   S    
O20   C112  S    
C98   H24   S    
C65   H1    S    
C85   C89   A    
C5    C45   A    
C33   C37   A    
C126  H108  S    
C7    C47   A    
C37   C43   A    
C104  H44   S    
C35   C39   A    
O39   C131  S    
C8    C48   A    
C38   C44   A    
C5    C81   A    
O15   C107  S    
C95   H17   S    
C113  H69   S    
C122  H98   S    
C65   N9    A    
C67   N11   A    
C4    O4    S    
C107  H52   S    
C12   C76   A    
C31   C35   A    
N30   Ni1   S    
C108  H55   S    
C134  H132  S    
C115  H76   S    
C97   H21   S    
C80   N24   A    
C123  H99   S    
N16   N24   A    
N9    Ni2   S    
O14   C106  S    
C136  H140  S    
C15   C71   A    
N6    N26   A    
N19   Ni7   S    
C116  H80   S    
C7    C51   S    
C102  H36   S    
C118  H85   S    
C43   C51   A    
C48   N8    A    
C20   Br8   S    
C111  H63   S    
C127  H112  S    
C13   C22   S    
C25   C49   A    
C1    O1    S    
N29   Ni2   S    
N15   Ni8   S    
C2    C90   A    
C100  H30   S    
N4    N32   A    
C140  H151  S    
C93   H9    S    
O1    C93   S    
C4    C92   A    
O7    C99   S    
C6    C82   A    
C28   C52   A    
O13   C105  S    
C40   O20   S    
O41   C133  S    
C70   N14   A    
C125  H107  S    
C54   O26   S    
C47   N7    A    
O4    C96   S    
C131  H124  S    
C116  H78   S    
O30   C122  S    
N6    Ni6   S    
C30   O14   S    
N3    Ni3   S    
C88   C92   A    
C138  H145  S    
C78   H6    S    
C66   H2    S    
C74   O42   S    
C80   H8    S    
C63   O31   S    
C61   C62   A    
C27   O11   S    
C11   C67   A    
C98   H26   S    
C81   Br1   S    
C13   C77   A    
C21   O5    S    
C20   C24   D    
C36   C40   A    
C75   N19   A    
O16   C108  S    
N8    Ni8   S    
C117  H82   S    
O35   C127  S    
O29   C121  S    
C79   N23   A    
C111  H65   S    
C139  H148  S    
C12   C60   S    
N2    Ni2   S    
C39   O19   S    
C134  H133  S    
C88   O48   S    
C100  H32   S    
O24   C116  S    
C71   N15   A    
C95   H15   S    
C119  H88   S    
O8    C100  S    
C95   H16   S    
C85   O45   S    
C120  H91   S    
C122  H96   S    
O6    C98   S    
C124  H104  S    
C120  H92   S    
C88   N32   A    
N12   Ni3   S    
C99   H27   S    
C125  H105  S    
C1    C89   A    
C6    C46   A    
C34   C38   A    
C123  H101  S    
N17   Ni5   S    
C130  H122  S    
C114  H72   S    
C2    O2    S    
C3    O3    S    
C103  H39   S    
C28   C30   A    
C33   C90   S    
C10   C74   A    
O42   C134  S    
N32   Ni3   S    
C69   O37   S    
O44   C136  S    
C9    C57   S    
C14   C78   A    
C128  H114  S    
C78   N22   A    
C137  H142  S    
C102  H37   S    
O26   C118  S    
N14   N22   A    
C110  H62   S    
C31   O15   S    
O19   C111  S    
N10   Ni1   S    
N21   Ni1   S    
C116  H79   S    
