data_mof_unit_22924.cif
_audit_creation_date              2012-12-10T17:03:27-0500
_audit_creation_method            fapswitch 2.2
_symmetry_space_group_name_H-M    P1
_symmetry_Int_Tables_number       1
_space_group_crystal_system       triclinic
_cell_length_a                    15.060654
_cell_length_b                    11.018859
_cell_length_c                    9.828861
_cell_angle_alpha                 111.087237
_cell_angle_beta                  98.064874
_cell_angle_gamma                 90.730796
_cell_volume                      1503.29658881

loop_
_atom_site_label
_atom_site_type_symbol
_atom_type_description
_atom_site_fract_x
_atom_site_fract_y
_atom_site_fract_z
_atom_type_partial_charge
C1    C     C_R   0.493127 0.254173 0.440732 0.894460
C2    C     C_R   0.506873 0.745827 0.559268 0.894459
C3    C     C_R   0.045686 0.277124 0.489267 -0.154528
C4    C     C_R   0.954314 0.722875 0.510732 -0.154529
C5    C     C_2   0.488990 0.114859 0.407372 -0.310138
C6    C     C_2   0.511008 0.885141 0.592628 -0.310137
C7    C     C_2   0.501101 0.069587 0.516663 -0.155011
C8    C     C_2   0.498895 0.930413 0.483337 -0.155012
C9    C     C_2   0.507482 0.510403 0.081255 -0.071539
C10   C     C_2   0.492518 0.489597 0.918744 -0.071539
C11   C     C_R   0.329462 0.502502 0.502109 0.874392
C12   C     C_R   0.670538 0.497498 0.497891 0.874393
C13   C     C_R   0.812818 0.607534 0.499302 0.156648
C14   C     C_R   0.187183 0.392466 0.500698 0.156648
C15   C     C_R   0.766395 0.494546 0.494341 -0.128770
C16   C     C_R   0.233605 0.505454 0.505658 -0.128770
C17   C     C_R   0.811063 0.381389 0.489724 -0.010400
C18   C     C_R   0.188937 0.618611 0.510275 -0.010399
C19   C     C_R   0.905241 0.383549 0.490872 0.095854
C20   C     C_R   0.094759 0.616450 0.509127 0.095854
C21   C     C_R   0.952746 0.498415 0.498344 0.014758
C22   C     C_R   0.047254 0.501584 0.501656 0.014758
C23   C     C_R   0.906208 0.610169 0.502415 0.065167
C24   C     C_R   0.093792 0.389831 0.497584 0.065167
C25   C     C_R   0.953484 0.273775 0.485441 -0.221347
C26   C     C_R   0.046516 0.726224 0.514558 -0.221346
Cu1   Cu    Cu3+1 0.515770 0.521810 0.644910 0.966401
Cu2   Cu    Cu3+1 0.484230 0.478190 0.355090 0.966400
H1    H     H_    0.921323 0.182782 0.477274 0.160396
H2    H     H_    0.078677 0.817217 0.522724 0.160396
H3    H     H_    0.078263 0.189296 0.484978 0.189351
H4    H     H_    0.921737 0.810703 0.515021 0.189351
H5    H     H_    0.486740 0.864669 0.368417 0.186305
H6    H     H_    0.513255 0.135331 0.631583 0.186305
H7    H     H_    0.523064 0.951209 0.707345 0.150672
H8    H     H_    0.476935 0.048791 0.292655 0.150672
H9    H     H_    0.440430 0.417424 0.845852 0.182222
H10   H     H_    0.559570 0.582576 0.154148 0.182222
H11   H     H_    0.588471 0.622553 0.934332 0.202591
H12   H     H_    0.411529 0.377447 0.065668 0.202591
N1    N     N_2   0.460520 0.445420 0.137370 -0.288796
N2    N     N_2   0.539480 0.554580 0.862630 -0.288795
O1    O     O_R   0.508410 0.332340 0.577400 -0.580905
O2    O     O_R   0.491590 0.667660 0.422600 -0.580905
O3    O     O_R   0.481780 0.295500 0.332650 -0.575815
O4    O     O_R   0.518220 0.704500 0.667350 -0.575815
O5    O     O_R   0.383570 0.518390 0.622380 -0.566573
O6    O     O_R   0.616430 0.481610 0.377620 -0.566574
O7    O     O_R   0.356940 0.481550 0.377630 -0.572006
O8    O     O_R   0.643060 0.518450 0.622370 -0.572005
Br1   Br    Br    0.746543 0.758828 0.504763 -0.597835
Br2   Br    Br    0.253457 0.241172 0.495238 -0.597836
C27   C     C_3   0.758387 0.258854 0.481920 -0.394299
C28   C     C_3   0.741609 0.157818 0.323473 -0.378657
C29   C     C_3   0.719440 0.021491 0.321085 -0.780246
H13   H     H_    0.778557 0.987395 0.374975 0.272864
H14   H     H_    0.661799 0.021482 0.379813 0.274525
H15   H     H_    0.701859 0.952589 0.205143 0.242417
H16   H     H_    0.684722 0.186331 0.258653 0.225951
H17   H     H_    0.801539 0.154301 0.268178 0.235397
H18   H     H_    0.794303 0.218174 0.560781 0.208740
H19   H     H_    0.692472 0.279939 0.519982 0.187755
C30   C     C_3   0.241612 0.741144 0.518077 -0.394302
C31   C     C_3   0.258391 0.842182 0.676523 -0.378673
C32   C     C_3   0.280553 0.978510 0.678910 -0.780244
H20   H     H_    0.338194 0.978523 0.620183 0.274529
H21   H     H_    0.221435 0.012600 0.625018 0.272862
H22   H     H_    0.298132 0.047416 0.794851 0.242418
H23   H     H_    0.198463 0.845697 0.731819 0.235402
H24   H     H_    0.315279 0.813673 0.741341 0.225954
H25   H     H_    0.307527 0.720060 0.480016 0.187756
H26   H     H_    0.205696 0.781823 0.439215 0.208741

loop_
_geom_bond_atom_site_label_1
_geom_bond_atom_site_label_2
_ccdc_geom_bond_type
C2    O2    A    
C12   O8    A    
C29   H13   S    
C12   C15   S    
C14   Br2   S    
C15   C17   A    
C11   O7    A    
C31   H24   S    
C10   N2    D    
C1    O1    A    
C27   H19   S    
C11   O5    A    
Cu1   O8    S    
C12   O6    A    
C32   H22   S    
C31   C32   S    
C22   C24   A    
C13   C15   A    
C7    C8    S    
C28   H17   S    
C27   C28   S    
C2    O4    A    
C3    H3    S    
Cu1   N2    S    
C1    O3    A    
C3    C24   A    
C2    C6    S    
C20   C26   A    
C10   H9    S    
C1    C5    S    
C13   Br1   S    
C26   H2    S    
Cu1   O4    S    
C21   C22   A    
C9    H10   S    
C17   C19   A    
Cu2   O6    S    
C20   C22   A    
C4    C23   A    
H11   N2    S    
C18   C20   A    
C28   H16   S    
C29   H14   S    
C21   C23   A    
C25   H1    S    
C4    C26   A    
C19   C25   A    
C7    H6    S    
C14   C16   A    
C18   C30   S    
C11   C16   S    
C14   C24   A    
C4    H4    S    
C5    H8    S    
C17   C27   S    
Cu2   N1    S    
C3    C25   A    
C30   H26   S    
C13   C23   A    
C27   H18   S    
C16   C18   A    
C32   H20   S    
C9    C10   S    
C29   H15   S    
Cu1   O5    S    
Cu1   Cu2   S    
C5    C7    D    
Cu2   O3    S    
C28   C29   S    
H12   N1    S    
C6    C8    D    
C19   C21   A    
Cu1   O1    S    
C31   H23   S    
C9    N1    D    
Cu2   O2    S    
C6    H7    S    
C30   C31   S    
C30   H25   S    
C8    H5    S    
C32   H21   S    
Cu2   O7    S    
