data_mof_unit_42973.cif
_audit_creation_date              2012-12-11T14:08:35-0500
_audit_creation_method            fapswitch 2.2
_symmetry_space_group_name_H-M    P1
_symmetry_Int_Tables_number       1
_space_group_crystal_system       triclinic
_cell_length_a                    28.173264
_cell_length_b                    7.190613
_cell_length_c                    17.184208
_cell_angle_alpha                 89.910798
_cell_angle_beta                  101.848064
_cell_angle_gamma                 89.862417
_cell_volume                      3407.04591985

loop_
_atom_site_label
_atom_site_type_symbol
_atom_type_description
_atom_site_fract_x
_atom_site_fract_y
_atom_site_fract_z
_atom_type_partial_charge
O1    O     O_R   0.000700 0.436510 0.857920 -0.540885
O2    O     O_R   0.999300 0.563490 0.142080 -0.540885
O3    O     O_R   0.999300 0.936510 0.642080 -0.533383
O4    O     O_R   0.000700 0.063490 0.357920 -0.533385
O5    O     O_R   0.930080 0.766380 0.721890 -0.512055
O6    O     O_R   0.069920 0.233620 0.278110 -0.512054
O7    O     O_R   0.069920 0.266380 0.778110 -0.536096
O8    O     O_R   0.930080 0.733620 0.221890 -0.536094
C1    C     C_R   0.910502 0.597936 0.709923 0.735894
C2    C     C_R   0.089498 0.402064 0.290077 0.735892
C3    C     C_R   0.089481 0.097165 0.789812 0.740077
C4    C     C_R   0.910519 0.902836 0.210188 0.740070
O9    O     O_R   0.996180 0.766230 0.862310 -0.539941
O10   O     O_R   0.003820 0.233770 0.137690 -0.539941
O11   O     O_R   0.003820 0.266230 0.637690 -0.546993
O12   O     O_R   0.996180 0.733770 0.362310 -0.546992
O13   O     O_R   0.065870 0.936460 0.783500 -0.512532
O14   O     O_R   0.934130 0.063540 0.216500 -0.512529
O15   O     O_R   0.934130 0.436460 0.716500 -0.541730
O16   O     O_R   0.065870 0.563540 0.283500 -0.541729
C5    C     C_R   0.998476 0.596401 0.894477 0.762237
C6    C     C_R   0.001524 0.403599 0.105523 0.762239
C7    C     C_R   0.001515 0.096526 0.605489 0.756703
C8    C     C_R   0.998485 0.903474 0.394511 0.756696
O17   O     O_3   0.022790 0.603020 0.723980 -0.359309
O18   O     O_3   0.977210 0.396980 0.276020 -0.359306
O19   O     O_3   0.977210 0.103020 0.776020 -0.368354
O20   O     O_3   0.022790 0.896980 0.223980 -0.368354
V1    V     V_3+5 0.995770 0.877900 0.754830 1.559455
V2    V     V_3+5 0.004230 0.122100 0.245170 1.559459
V3    V     V_3+5 0.004230 0.377900 0.745170 1.513292
V4    V     V_3+5 0.995770 0.622100 0.254830 1.513298
C9    C     C_2   0.001690 0.082719 0.519505 -0.303165
C10   C     C_2   0.998310 0.917281 0.480495 -0.303163
C11   C     C_2   0.998270 0.582665 0.980403 -0.310702
C12   C     C_2   0.001729 0.417335 0.019597 -0.310704
H1    H     H_    0.004437 0.211607 0.487698 0.152937
H2    H     H_    0.995563 0.788393 0.512302 0.152939
H3    H     H_    0.995431 0.711582 0.012017 0.154274
H4    H     H_    0.004569 0.288418 0.987983 0.154273
C13   C     C_R   0.683657 0.955151 0.025988 0.621881
C14   C     C_R   0.316343 0.044834 0.974010 0.621879
C15   C     C_R   0.316813 0.439872 0.474727 0.621523
C16   C     C_R   0.683187 0.560128 0.525273 0.621521
O21   O     O_2   0.713653 0.971284 0.974410 -0.497893
O22   O     O_2   0.286346 0.028697 0.025589 -0.497896
O23   O     O_2   0.287860 0.406205 0.526702 -0.497324
O24   O     O_2   0.712140 0.593796 0.473298 -0.497326
N1    N     N_R   0.702597 0.928445 0.105250 -0.555119
N2    N     N_R   0.297403 0.071545 0.894748 -0.555117
N3    N     N_R   0.296922 0.458196 0.395352 -0.555108
N4    N     N_R   0.703078 0.541805 0.604648 -0.555108
C17   C     C_R   0.672769 0.906910 0.158323 0.611499
C18   C     C_R   0.327231 0.093083 0.841676 0.611496
C19   C     C_R   0.325524 0.496213 0.341777 0.612043
C20   C     C_R   0.674476 0.503787 0.658224 0.612043
C21   C     C_R   0.778612 0.067124 0.178841 -0.115914
C22   C     C_R   0.221387 0.932890 0.821145 -0.115905
C23   C     C_R   0.225218 0.291483 0.321477 -0.111459
C24   C     C_R   0.774782 0.708515 0.678525 -0.111458
C25   C     C_R   0.829139 0.063849 0.205178 0.346540
C26   C     C_R   0.170860 0.936168 0.794809 0.346542
C27   C     C_R   0.174883 0.274839 0.294999 0.349177
C28   C     C_R   0.825117 0.725158 0.705004 0.349177
C29   C     C_R   0.831871 0.764929 0.140465 -0.200392
C30   C     C_R   0.168128 0.235051 0.859546 -0.200417
C31   C     C_R   0.163942 0.564601 0.361850 -0.199772
C32   C     C_R   0.836058 0.435402 0.638148 -0.199780
C33   C     C_R   0.781463 0.770130 0.114284 -0.058110
C34   C     C_R   0.218536 0.229848 0.885728 -0.058109
C35   C     C_R   0.214140 0.579351 0.387996 -0.053231
C36   C     C_R   0.785860 0.420652 0.612002 -0.053233
C37   C     C_R   0.754543 0.921561 0.133017 0.297745
C38   C     C_R   0.245457 0.078432 0.866981 0.297732
C39   C     C_R   0.245092 0.442770 0.368207 0.293215
C40   C     C_R   0.754908 0.557230 0.631794 0.293214
C41   C     C_R   0.601909 0.955305 0.052040 -0.050994
C42   C     C_R   0.398091 0.044683 0.947959 -0.050994
C43   C     C_R   0.397559 0.485719 0.448060 -0.050925
C44   C     C_R   0.602441 0.514281 0.551941 -0.050926
C45   C     C_R   0.633048 0.966971 0.997968 -0.099927
C46   C     C_R   0.366952 0.033015 0.002030 -0.099925
C47   C     C_R   0.367325 0.455553 0.502498 -0.096549
C48   C     C_R   0.632675 0.544447 0.497502 -0.096548
C49   C     C_R   0.613061 0.978233 0.916771 -0.137390
C50   C     C_R   0.386938 0.021752 0.083227 -0.137389
C51   C     C_R   0.387610 0.454614 0.583731 -0.137424
C52   C     C_R   0.612390 0.545386 0.416269 -0.137424
C53   C     C_R   0.622004 0.918227 0.132597 -0.042855
C54   C     C_R   0.377996 0.081764 0.867402 -0.042853
C55   C     C_R   0.376178 0.512239 0.367214 -0.040731
C56   C     C_R   0.623822 0.487762 0.632787 -0.040730
C57   C     C_R   0.856647 0.911865 0.185479 -0.130937
C58   C     C_R   0.143352 0.088135 0.814521 -0.130926
C59   C     C_R   0.143330 0.412237 0.315514 -0.135347
C60   C     C_R   0.856670 0.587763 0.684486 -0.135345
H5    H     H_    0.851633 0.646549 0.124320 0.167647
H6    H     H_    0.148366 0.353417 0.875701 0.167626
H7    H     H_    0.141126 0.672280 0.378838 0.163165
H8    H     H_    0.858874 0.327726 0.621158 0.163160
H9    H     H_    0.763287 0.656228 0.079239 0.148598
H10   H     H_    0.236712 0.343734 0.920782 0.148607
H11   H     H_    0.229040 0.697567 0.423694 0.149989
H12   H     H_    0.770960 0.302438 0.576303 0.149989
H13   H     H_    0.636398 0.969844 0.873983 0.207767
H14   H     H_    0.363601 0.030140 0.126016 0.207767
H15   H     H_    0.364292 0.448951 0.626616 0.208313
H16   H     H_    0.635708 0.551049 0.373384 0.208313
C61   C     C_R   0.480034 0.038153 0.918639 0.068299
C62   C     C_R   0.519966 0.961835 0.081359 0.068298
C63   C     C_R   0.521286 0.473011 0.581693 0.071814
C64   C     C_R   0.478714 0.526989 0.418308 0.071813
C65   C     C_R   0.469135 0.996952 0.056978 -0.032927
C66   C     C_R   0.530864 0.003036 0.943020 -0.032928
C67   C     C_R   0.530302 0.521604 0.442808 -0.030380
C68   C     C_R   0.469698 0.478395 0.557192 -0.030380
C69   C     C_R   0.449266 0.023928 0.974580 0.024410
C70   C     C_R   0.550733 0.976060 0.025418 0.024409
C71   C     C_R   0.551062 0.505642 0.525409 0.022394
C72   C     C_R   0.448938 0.494358 0.474591 0.022394
C73   C     C_R   0.459038 0.102417 0.841440 -0.037886
C74   C     C_R   0.540961 0.897574 0.158559 -0.037886
C75   C     C_R   0.544584 0.420669 0.659508 -0.036252
C76   C     C_R   0.455416 0.579331 0.340492 -0.036253
C77   C     C_R   0.409045 0.116175 0.815310 -0.071568
C78   C     C_R   0.590955 0.883816 0.184689 -0.071568
C79   C     C_R   0.594532 0.435440 0.685483 -0.078766
C80   C     C_R   0.405468 0.564560 0.314518 -0.078766
O25   O     O_2   0.307906 0.126425 0.764352 -0.495707
O26   O     O_2   0.692094 0.873574 0.235648 -0.495706
O27   O     O_2   0.694975 0.479681 0.735741 -0.496775
O28   O     O_2   0.305025 0.520319 0.264260 -0.496775
C81   C     C_R   0.562943 0.983627 0.888805 0.351990
C82   C     C_R   0.437056 0.016359 0.111193 0.351988
C83   C     C_R   0.437338 0.478425 0.611416 0.349281
C84   C     C_R   0.562662 0.521574 0.388585 0.349280
H17   H     H_    0.242163 0.816334 0.806009 0.166754
H18   H     H_    0.757836 0.183693 0.193967 0.166745
H19   H     H_    0.750875 0.813646 0.694424 0.170207
H20   H     H_    0.249125 0.186349 0.305580 0.170205
H21   H     H_    0.394919 0.159596 0.754535 0.181356
H22   H     H_    0.605080 0.840398 0.245464 0.181356
H23   H     H_    0.610232 0.399698 0.746646 0.179338
H24   H     H_    0.389768 0.600302 0.253355 0.179339
H25   H     H_    0.480665 0.152537 0.801048 0.188298
H26   H     H_    0.519334 0.847453 0.198951 0.188299
H27   H     H_    0.525187 0.358185 0.700591 0.184892
H28   H     H_    0.474813 0.641815 0.299409 0.184893
Cl1   Cl    Cl    0.144536 0.750290 0.734387 -0.620247
Cl2   Cl    Cl    0.855463 0.249757 0.265585 -0.620260
Cl3   Cl    Cl    0.846033 0.916359 0.766518 -0.610480
Cl4   Cl    Cl    0.153967 0.083633 0.233487 -0.610485
Cl5   Cl    Cl    0.544538 0.921848 0.787505 -0.623205
Cl6   Cl    Cl    0.455461 0.078140 0.212494 -0.623205
Cl7   Cl    Cl    0.453208 0.550891 0.711702 -0.626228
Cl8   Cl    Cl    0.546792 0.449107 0.288299 -0.626229

loop_
_geom_bond_atom_site_label_1
_geom_bond_atom_site_label_2
_ccdc_geom_bond_type
O17   V3    S    
C47   C51   A    
N1    C17   A    
C22   C26   A    
C26   Cl1   S    
O19   V1    S    
O13   V1    S    
O3    C7    A    
C11   C12   D    
C14   C46   A    
C44   C48   A    
O4    V2    S    
O15   V3    S    
C62   C70   A    
C61   C69   A    
C68   C83   A    
C82   Cl6   S    
C42   C54   A    
O1    C5    A    
C76   H28   S    
C17   O26   S    
C41   C53   A    
C32   C60   A    
C81   Cl5   S    
C23   H20   S    
C63   C71   A    
N3    C39   S    
C18   C54   A    
N2    C38   S    
C11   H3    S    
C52   H16   S    
C25   C57   A    
C31   C35   A    
C67   C84   A    
C27   C59   A    
O1    V3    S    
C15   C47   A    
O2    V4    S    
C14   O22   S    
C21   C37   A    
O3    V1    S    
C34   C38   A    
C19   C55   A    
C73   C77   A    
C1    O15   A    
C77   H21   S    
C7    C9    S    
O2    C6    A    
C33   C37   A    
C63   C68   A    
O14   V2    S    
C25   Cl2   S    
C43   C55   A    
C31   H7    S    
C76   C80   A    
C16   N4    A    
O11   C7    A    
C44   C71   A    
O12   C8    A    
C31   C59   A    
C50   H14   S    
O10   V2    S    
C49   H13   S    
C13   N1    A    
C50   C82   A    
O5    V1    S    
C53   C78   A    
O7    V3    S    
C55   C80   A    
C28   Cl3   S    
C63   C75   A    
O8    V4    S    
C51   C83   A    
C12   H4    S    
C42   C69   A    
C28   C60   A    
C41   C70   A    
C83   Cl7   S    
C2    O16   A    
C64   C72   A    
O18   V4    S    
C36   H12   S    
N4    C40   S    
C46   C50   A    
O11   V3    S    
C24   C40   A    
C8    C10   S    
C68   C72   A    
C32   C36   A    
C74   C78   A    
O7    C3    A    
C32   H8    S    
O5    C1    A    
C54   C77   A    
C42   C46   A    
C75   C79   A    
C1    C60   S    
C41   C45   A    
O8    C4    A    
C13   C45   A    
C43   C72   A    
C9    C10   D    
O9    C5    A    
C36   C40   A    
C79   H23   S    
C21   C25   A    
C44   C56   A    
C80   H24   S    
C62   C65   A    
C52   C84   A    
C66   C70   A    
C61   C66   A    
C14   N2    A    
C65   C69   A    
C22   H17   S    
O6    V2    S    
C75   H27   S    
C67   C71   A    
C65   C82   A    
C26   C58   A    
C17   C53   A    
O10   C6    A    
C73   H25   S    
N1    C37   S    
C4    C57   S    
C56   C79   A    
C23   C39   A    
C22   C38   A    
O16   V4    S    
O9    V1    S    
C18   O25   S    
C35   H11   S    
C3    O13   A    
C10   H2    S    
C48   C52   A    
C3    C58   S    
C16   C48   A    
O6    C2    A    
C34   H10   S    
C64   C76   A    
C5    C11   S    
C33   H9    S    
O12   V4    S    
C6    C12   S    
C23   C27   A    
C30   C58   A    
C24   C28   A    
C30   H6    S    
O20   V2    S    
C29   H5    S    
N2    C18   A    
C62   C74   A    
C35   C39   A    
C15   N3    A    
C30   C34   A    
C2    C59   S    
O4    C8    A    
C29   C33   A    
C29   C57   A    
C66   C81   A    
C78   H22   S    
C21   H18   S    
N3    C19   A    
C74   H26   S    
C84   Cl8   S    
C9    H1    S    
C27   Cl4   S    
C20   O27   S    
C24   H19   S    
C43   C47   A    
N4    C20   A    
C20   C56   A    
C51   H15   S    
C19   O28   S    
C4    O14   A    
C13   O21   S    
C61   C73   A    
C15   O23   S    
C64   C67   A    
C45   C49   A    
C16   O24   S    
C49   C81   A    
