data_mof_unit_29371.cif
_audit_creation_date              2012-12-10T17:17:23-0500
_audit_creation_method            fapswitch 2.2
_symmetry_space_group_name_H-M    P1
_symmetry_Int_Tables_number       1
_space_group_crystal_system       triclinic
_cell_length_a                    10.196747
_cell_length_b                    10.707284
_cell_length_c                    12.204386
_cell_angle_alpha                 90.992593
_cell_angle_beta                  109.347905
_cell_angle_gamma                 97.262412
_cell_volume                      1244.63276615

loop_
_atom_site_label
_atom_site_type_symbol
_atom_type_description
_atom_site_fract_x
_atom_site_fract_y
_atom_site_fract_z
_atom_type_partial_charge
C1    C     C_R   0.056290 0.733432 0.497582 1.019479
C2    C     C_R   0.203653 0.507807 0.839933 -0.122573
C3    C     C_2   0.091358 0.867976 0.494612 -0.410341
C4    C     C_R   0.132709 0.507097 0.714567 0.922394
C5    C     C_2   0.031835 0.944403 0.546074 0.345309
C6    C     C_2   0.924507 0.137123 0.534899 -0.394198
C7    C     C_2   0.969595 0.050431 0.481882 0.317549
C8    C     C_2   0.433782 0.512880 0.509599 -0.118618
C9    C     C_2   0.566155 0.487120 0.490378 -0.117827
C10   C     C_R   0.946904 0.267066 0.508447 0.971871
C11   C     C_R   0.865067 0.484441 0.285272 0.967930
C12   C     C_R   0.419326 0.483301 0.992599 0.046013
C13   C     C_R   0.708569 0.293394 0.998918 0.382823
C14   C     C_R   0.785143 0.450764 0.162636 -0.241168
C15   C     C_R   0.167201 0.587436 0.914072 -0.316882
C16   C     C_R   0.255649 0.614816 0.030202 0.509499
C17   C     C_R   0.380492 0.562484 0.067933 -0.224023
C18   C     C_3   0.033022 0.360105 0.087334 0.139945
C19   C     C_3   0.154318 0.283586 0.109609 -0.666212
C20   C     C_3   0.398814 0.172466 0.669378 0.116433
C21   C     C_3   0.454241 0.086195 0.599954 -0.699388
C22   C     C_3   0.138449 0.779177 0.062451 0.066113
C23   C     C_R   0.321280 0.444210 0.883340 0.010730
C24   C     C_3   0.145483 0.875817 0.157578 -0.694380
C25   C     C_R   0.551841 0.440994 0.023466 0.001804
C26   C     C_R   0.577998 0.343127 0.955302 -0.137890
C27   C     C_R   0.473738 0.299523 0.846877 0.561259
C28   C     C_R   0.343861 0.345647 0.817201 -0.301696
C29   C     C_R   0.660360 0.498670 0.119706 -0.299819
C30   C     C_R   0.814591 0.353387 0.099519 0.367302
H1    H     H_    0.906193 0.122516 0.616421 0.216637
H2    H     H_    0.258500 0.306113 0.740837 0.153478
H3    H     H_    0.075404 0.458761 0.122758 0.156454
H4    H     H_    0.981032 0.359690 0.991177 0.136951
H5    H     H_    0.114287 0.183877 0.077274 0.277935
H6    H     H_    0.225737 0.321986 0.063278 0.187855
H7    H     H_    0.214168 0.287093 0.204018 0.240741
H8    H     H_    0.079831 0.028733 0.850730 0.392834
H9    H     H_    0.352742 0.246083 0.611316 0.146371
H10   H     H_    0.317533 0.114398 0.696284 0.192726
H11   H     H_    0.498469 0.008880 0.653440 0.272374
H12   H     H_    0.128684 0.898202 0.424553 0.167214
H13   H     H_    0.367564 0.044507 0.520829 0.195253
H14   H     H_    0.537474 0.140738 0.573100 0.260916
H15   H     H_    0.606303 0.966283 0.875957 0.376776
H16   H     H_    0.027593 0.733658 0.023732 0.152012
H17   H     H_    0.173155 0.830170 0.995766 0.194829
H18   H     H_    0.254544 0.924683 0.197724 0.255068
H19   H     H_    0.075260 0.946736 0.120019 0.251901
H20   H     H_    0.111396 0.828129 0.225611 0.265552
H21   H     H_    0.843200 0.918526 0.181994 0.408217
H22   H     H_    0.561312 0.411156 0.428508 0.165462
H23   H     H_    0.438431 0.589298 0.570944 0.173608
H24   H     H_    0.686694 0.624830 0.603040 0.201415
H25   H     H_    0.313971 0.373632 0.398840 0.175951
H26   H     H_    0.649351 0.581313 0.166077 0.191964
H27   H     H_    0.071918 0.629353 0.879644 0.185907
H28   H     H_    0.443128 0.582075 0.158556 0.168683
N1    N     N_2   0.313640 0.446500 0.454900 -0.191846
N2    N     N_2   0.686360 0.553430 0.545150 -0.175966
O1    O     O_R   0.936910 0.692950 0.509080 -0.543717
O2    O     O_2   0.879454 0.876921 0.683497 -0.304405
O3    O     O_2   0.115214 0.814387 0.740392 -0.343778
O4    O     O_3   0.095170 0.048680 0.776584 -0.604926
O5    O     O_3   0.511188 0.228258 0.767511 -0.550124
O6    O     O_2   0.775049 0.166510 0.836695 -0.281467
O7    O     O_2   0.848062 0.088023 0.031220 -0.266899
O8    O     O_3   0.585421 0.043238 0.909403 -0.513272
O9    O     O_3   0.225811 0.688109 0.112217 -0.625392
O10   O     O_2   0.823820 0.136035 0.276503 -0.259015
O11   O     O_2   0.069082 0.108457 0.308165 -0.302997
O12   O     O_R   0.138320 0.658600 0.480130 -0.620866
O13   O     O_3   0.882019 0.908033 0.266532 -0.599531
O14   O     O_R   0.002900 0.525670 0.675280 -0.589365
O15   O     O_R   0.204310 0.491320 0.646330 -0.628289
O16   O     O_R   0.861680 0.341400 0.519870 -0.607342
O17   O     O_R   0.063090 0.307050 0.490920 -0.587515
O18   O     O_R   0.795690 0.508680 0.353670 -0.617043
O19   O     O_R   0.997100 0.474330 0.324720 -0.564647
O20   O     O_3   0.940953 0.306929 0.144041 -0.497794
S1    S     S_3+6 0.028594 0.916154 0.689369 -0.016615
S2    S     S_3+6 0.734494 0.145796 0.943435 0.078151
S3    S     S_3+6 0.936476 0.055302 0.329106 0.037033
Zn1   Zn    Zn3+2 0.865520 0.522940 0.519330 1.020206
Zn2   Zn    Zn3+2 0.134480 0.477060 0.480670 0.990904

loop_
_geom_bond_atom_site_label_1
_geom_bond_atom_site_label_2
_ccdc_geom_bond_type
C7    S3    S    
C3    H12   S    
H25   N1    S    
O16   Zn1   S    
O12   Zn2   S    
H24   N2    S    
C12   C23   A    
C26   C27   A    
O3    S1    D    
C19   H6    S    
C8    N1    D    
C20   H10   S    
C11   C14   S    
C15   C16   A    
C18   C19   S    
C4    O15   A    
C19   H7    S    
C21   H13   S    
C10   O16   A    
O15   Zn2   S    
C8    C9    S    
C12   C17   A    
C22   O9    S    
C4    O14   A    
C17   H28   S    
C30   O20   S    
C6    H1    S    
O17   Zn2   S    
C24   H20   S    
C15   H27   S    
C9    H22   S    
C14   C30   A    
C10   O17   A    
O11   S3    D    
C25   C29   A    
C1    O12   A    
C24   H18   S    
O10   S3    D    
C13   C30   A    
C28   H2    S    
C5    C7    S    
C20   H9    S    
C16   C17   A    
C25   C26   A    
C13   S2    S    
C1    C3    S    
C2    C4    S    
N1    Zn2   S    
C27   O5    S    
C11   O18   A    
O6    S2    D    
C21   H14   S    
C5    S1    S    
C20   O5    S    
H15   O8    S    
C23   C28   A    
C2    C15   A    
C18   H4    S    
C11   O19   A    
C21   H11   S    
C22   H16   S    
O2    S1    D    
C22   C24   S    
C13   C26   A    
C14   C29   A    
O19   Zn2   S    
C24   H19   S    
C16   O9    S    
H21   O13   S    
O14   Zn1   S    
C3    C5    D    
O1    Zn1   S    
C1    O1    A    
C8    H23   S    
C6    C10   S    
C6    C7    D    
C29   H26   S    
C12   C25   A    
C9    N2    D    
O8    S2    S    
C19   H5    S    
N2    Zn1   S    
C22   H17   S    
C18   H3    S    
O4    S1    S    
O18   Zn1   S    
C20   C21   S    
O7    S2    D    
C18   O20   S    
C2    C23   A    
H8    O4    S    
O13   S3    S    
C27   C28   A    
