data_mof_unit_47707.cif
_audit_creation_date              2013-03-05T15:45:31-0500
_audit_creation_method            fapswitch 2.2
_symmetry_space_group_name_H-M    P1
_symmetry_Int_Tables_number       1
_space_group_crystal_system       triclinic
_cell_length_a                    9.846542
_cell_length_b                    11.054071
_cell_length_c                    13.425154
_cell_angle_alpha                 95.252955
_cell_angle_beta                  80.599295
_cell_angle_gamma                 111.762304
_cell_volume                      1338.11695236

loop_
_atom_site_label
_atom_site_type_symbol
_atom_site_description
_atom_site_fract_x
_atom_site_fract_y
_atom_site_fract_z
_atom_type_partial_charge
O1    O     O_R   0.426290 0.668220 0.490680 -0.547497
O2    O     O_R   0.659360 0.703290 0.520190 -0.559766
C1    C     C_R   0.557164 0.745640 0.507304 0.872219
O3    O     O_R   0.326580 0.473880 0.629020 -0.526165
O4    O     O_R   0.559660 0.508940 0.658530 -0.582715
C2    C     C_R   0.421368 0.485924 0.690783 0.780447
Cu1   Cu    Cu3+1 0.362000 0.479240 0.482530 1.057661
Cu2   Cu    Cu3+1 0.638000 0.520760 0.517470 1.021346
O5    O     O_R   0.340640 0.296710 0.479810 -0.526696
O6    O     O_R   0.573710 0.331780 0.509320 -0.594571
O7    O     O_R   0.440340 0.491060 0.341470 -0.583673
O8    O     O_R   0.673420 0.526120 0.370980 -0.538397
C3    C     C_R   0.442541 0.254158 0.492687 0.774740
C4    C     C_R   0.576915 0.505488 0.309307 0.840253
C5    C     C_R   0.729967 0.394327 0.055157 -0.230438
H1    H     H_    0.806152 0.346065 0.023905 0.178140
C6    C     C_R   0.616075 0.487848 0.199772 -0.167970
C7    C     C_R   0.271057 0.540023 0.841690 -0.141670
C8    C     C_R   0.242545 0.561951 0.944968 -0.122150
C9    C     C_R   0.326295 0.538807 0.009624 -0.144833
C10   C     C_R   0.439233 0.489343 0.972026 0.089221
C11   C     C_R   0.456073 0.452992 0.867638 0.076361
C12   C     C_R   0.534976 0.473554 0.034676 0.086625
C13   C     C_R   0.637191 0.413093 0.994096 0.081827
C14   C     C_R   0.642041 0.367086 0.893916 -0.162253
C15   C     C_R   0.551439 0.384746 0.832105 -0.165251
C16   C     C_R   0.532235 0.515784 0.136652 -0.266483
C17   C     C_R   0.717052 0.427214 0.158427 0.357124
C18   C     C_R   0.377089 0.486021 0.801378 -0.110305
H2    H     H_    0.298582 0.559667 0.088606 0.159159
H3    H     H_    0.158713 0.602263 0.974864 0.173204
H4    H     H_    0.555604 0.342003 0.756487 0.165921
H5    H     H_    0.623463 0.134911 0.510072 0.178599
H6    H     H_    0.372135 0.861023 0.496880 0.247169
C19   C     C_2   0.590492 0.885517 0.509351 -0.339178
C20   C     C_2   0.483657 0.929197 0.501063 -0.070063
C21   C     C_2   0.408340 0.113528 0.486516 0.191126
C22   C     C_2   0.513484 0.068099 0.498484 -0.241776
H7    H     H_    0.702242 0.952493 0.515840 0.183495
H8    H     H_    0.875069 0.422382 0.430129 0.200080
N1    N     N_2   0.845330 0.551960 0.543750 -0.265335
C23   C     C_2   0.920626 0.486741 0.491841 -0.096913
H9    H     H_    0.121778 0.410242 0.387299 0.200870
N2    N     N_2   0.154690 0.448120 0.456210 -0.329864
C24   C     C_2   0.066904 0.494873 0.517040 0.427807
H10   H     H_    0.890645 0.614999 0.601049 0.262518
N3    N     N_R   0.795956 0.386545 0.220893 0.115524
O9    O     O_R   0.722551 0.299663 0.288250 -0.385218
O10   O     O_R   0.936848 0.412015 0.195200 -0.384417
N4    N     N_R   0.263667 0.027543 0.466820 0.128975
O11   O     O_R   0.146577 0.043539 0.517222 -0.331593
O12   O     O_R   0.249584 0.947047 0.388782 -0.338039
N5    N     N_R   0.102407 0.547010 0.614727 0.132031
O13   O     O_R   0.013854 0.488805 0.693245 -0.416766
O14   O     O_R   0.187639 0.668340 0.624633 -0.385440
H11   H     H_    0.715798 0.316272 0.863164 0.170404
H12   H     H_    0.462263 0.568072 0.170410 0.167445
H13   H     H_    0.214893 0.571606 0.793137 0.235146

loop_
_geom_bond_atom_site_label_1
_geom_bond_atom_site_label_2
_geom_bond_distance
_ccdc_geom_bond_type
O4    Cu2   1.921393 S    
C19   H7    1.087161 S    
N1    H10   1.029488 S    
C17   N3    1.431747 S    
C15   H4    1.080942 S    
C21   C22   1.343313 D    
C11   C18   1.423194 A    
C12   C16   1.404685 A    
N1    C23   1.300246 D    
C3    C21   1.460891 S    
H5    C22   1.087794 S    
C14   H11   1.084193 S    
Cu2   O8    1.942887 S    
H9    N2    1.030836 S    
C8    H3    1.082970 S    
H8    C23   1.081940 S    
N4    O11   1.301073 A    
C24   N5    1.426980 S    
Cu1   Cu2   2.695998 S    
N3    O10   1.301797 A    
C7    C18   1.399168 A    
C9    H2    1.076719 S    
C10   C11   1.422433 A    
C13   C14   1.393390 A    
Cu1   O7    1.921393 S    
C21   N4    1.440716 S    
C4    C6    1.472131 S    
C5    C17   1.398167 A    
O3    Cu1   1.942888 S    
C20   C22   1.454996 S    
C5    C13   1.402084 A    
O8    C4    1.304699 A    
O2    C1    1.297181 A    
H6    C20   1.084287 S    
N5    O14   1.299992 A    
C10   C12   1.426386 A    
C16   H12   1.076797 S    
O4    C2    1.295032 A    
O7    C4    1.297782 A    
C23   C24   1.501566 S    
C12   C13   1.417548 A    
C1    C19   1.455382 S    
C5    H1    1.084594 S    
C6    C16   1.400150 A    
N3    O9    1.301260 A    
C2    C18   1.477553 S    
C9    C10   1.416810 A    
O3    C2    1.310284 A    
C7    C8    1.386277 A    
C11   C15   1.411207 A    
N4    O12   1.301476 A    
Cu1   O5    1.947056 S    
O5    C3    1.295926 A    
O1    Cu1   1.943400 S    
Cu2   N1    2.025340 S    
C14   C15   1.386811 A    
Cu1   N2    2.025516 S    
C6    C17   1.411262 A    
O6    C3    1.300614 A    
Cu2   O6    1.943403 S    
O2    Cu2   1.947054 S    
N2    C24   1.305586 D    
C8    C9    1.389207 A    
N5    O13   1.301282 A    
C7    H13   1.074807 S    
O1    C1    1.297712 A    
C19   C20   1.332978 D    
