data_mof_unit_30926.cif
_audit_creation_date              2012-12-11T17:06:33-0500
_audit_creation_method            fapswitch 2.2
_symmetry_space_group_name_H-M    P1
_symmetry_Int_Tables_number       1
_space_group_crystal_system       triclinic
_cell_length_a                    6.96599
_cell_length_b                    14.533258
_cell_length_c                    15.954636
_cell_angle_alpha                 90.533296
_cell_angle_beta                  90.097283
_cell_angle_gamma                 89.95388
_cell_volume                      1615.1510959

loop_
_atom_site_label
_atom_site_type_symbol
_atom_type_description
_atom_site_fract_x
_atom_site_fract_y
_atom_site_fract_z
_atom_type_partial_charge
O1    O     O_R   0.494400 0.415450 0.412630 -0.534562
O2    O     O_R   0.823940 0.405730 0.586760 -0.546158
O3    O     O_R   0.994240 0.584550 0.587370 -0.538347
C1    C     C_R   0.655287 0.383604 0.615304 0.688862
O4    O     O_R   0.824110 0.404430 0.413240 -0.546205
O5    O     O_R   0.994420 0.583240 0.412620 -0.540095
C2    C     C_R   0.655293 0.382281 0.384234 0.712987
O6    O     O_R   0.494230 0.416760 0.587380 -0.539461
O7    O     O_3   0.660800 0.558670 0.500000 -0.363700
V1    V     V_3+5 0.935650 0.489120 0.500000 1.401725
O8    O     O_R   0.324140 0.594270 0.413240 -0.521773
C3    C     C_R   0.155020 0.615422 0.383818 0.719581
O9    O     O_R   0.323960 0.595570 0.586760 -0.544503
C4    C     C_R   0.155248 0.617677 0.615582 0.672589
V2    V     V_3+5 0.435660 0.510880 0.500000 1.434827
O10   O     O_3   0.160640 0.441330 0.500000 -0.377686
C5    C     C_3   0.055895 0.668031 0.772226 -0.144253
C6    C     C_3   0.228922 0.716492 0.814938 -0.143451
H1    H     H_    0.307925 0.690850 0.870541 0.097987
H2    H     H_    0.992413 0.601553 0.791717 0.097942
C7    C     C_3   0.121089 0.808796 0.810187 -0.003784
C8    C     C_3   0.947862 0.761132 0.768266 -0.116711
C9    C     C_3   0.037103 0.779625 0.681140 -0.138334
C10   C     C_3   0.210134 0.828082 0.723849 -0.139637
C11   C     C_3   0.318162 0.734982 0.727811 -0.113585
C12   C     C_3   0.144932 0.687325 0.685889 -0.004614
H3    H     H_    0.795072 0.772148 0.785276 0.106458
H4    H     H_    0.958102 0.805265 0.625536 0.108771
H5    H     H_    0.273657 0.894545 0.704347 0.101774
H6    H     H_    0.470949 0.723959 0.710798 0.107041
C13   C     C_R   0.272307 0.815711 0.240474 0.063806
C14   C     C_R   0.119122 0.815148 0.183098 -0.114676
C15   C     C_R   0.970422 0.751263 0.196711 -0.139189
H7    H     H_    0.849721 0.747762 0.154113 0.141492
C16   C     C_R   0.981929 0.687052 0.262242 -0.172337
H8    H     H_    0.872143 0.635334 0.267907 0.187354
C17   C     C_R   0.141444 0.684566 0.316233 -0.106964
C18   C     C_R   0.284283 0.750475 0.304227 0.016588
C19   C     C_3   0.493207 0.735390 0.288833 0.155188
C20   C     C_3   0.482634 0.810740 0.223191 -0.086745
H9    H     H_    0.584033 0.751604 0.344330 0.152387
H10   H     H_    0.515599 0.787879 0.158097 0.126095
C21   C     C_R   0.493358 0.315788 0.741267 0.097898
C22   C     C_R   0.647776 0.317285 0.685146 -0.109406
C23   C     C_R   0.799275 0.255057 0.699304 -0.177816
H11   H     H_    0.921743 0.253733 0.657866 0.134638
C24   C     C_R   0.787907 0.189328 0.763405 -0.177389
H12   H     H_    0.902742 0.139759 0.769764 0.127387
C25   C     C_R   0.624311 0.183618 0.814977 -0.107667
C26   C     C_R   0.481707 0.250496 0.804465 0.099216
C27   C     C_3   0.271112 0.238681 0.792006 -0.408822
C28   C     C_3   0.283697 0.310268 0.723459 -0.397786
H13   H     H_    0.187152 0.262278 0.847364 0.173482
H14   H     H_    0.234827 0.168789 0.768008 0.166212
H15   H     H_    0.207821 0.375438 0.739356 0.164684
H16   H     H_    0.253822 0.282133 0.659738 0.172131
C29   C     C_R   0.492422 0.315559 0.256677 0.117299
C30   C     C_R   0.647314 0.316491 0.312824 -0.113521
C31   C     C_R   0.799562 0.255128 0.296569 -0.177362
H17   H     H_    0.922311 0.253404 0.337973 0.135995
C32   C     C_R   0.788746 0.190780 0.230199 -0.141131
H18   H     H_    0.904039 0.141623 0.222354 0.145248
C33   C     C_R   0.624871 0.185516 0.178394 -0.101374
C34   C     C_R   0.481140 0.251478 0.191300 0.083873
C35   C     C_3   0.271098 0.238303 0.203642 -0.407725
C36   C     C_3   0.283203 0.308538 0.274551 -0.396174
H19   H     H_    0.236787 0.167755 0.225336 0.185235
H20   H     H_    0.185768 0.262566 0.149209 0.169585
H21   H     H_    0.255010 0.278966 0.337345 0.172926
H22   H     H_    0.205627 0.373615 0.260976 0.168122
O11   O     O_R   0.771650 0.079500 0.908680 -0.542679
O12   O     O_R   0.441690 0.091800 0.082800 -0.534918
O13   O     O_R   0.271460 0.912980 0.083410 -0.532362
C37   C     C_R   0.610888 0.114683 0.111247 0.746938
O14   O     O_R   0.441930 0.090510 0.909280 -0.542795
O15   O     O_R   0.271690 0.911670 0.908660 -0.540302
C38   C     C_R   0.610855 0.112549 0.880651 0.683962
O16   O     O_R   0.771410 0.080810 0.083440 -0.535732
O17   O     O_3   0.605100 0.937580 0.996050 -0.366203
V3    V     V_3+5 0.330220 0.007110 0.996030 1.418253
O18   O     O_R   0.941980 0.900620 0.909250 -0.545621
C39   C     C_R   0.110716 0.878483 0.880469 0.663451
O19   O     O_R   0.941740 0.901920 0.082770 -0.530625
C40   C     C_R   0.110701 0.880356 0.111974 0.724577
V4    V     V_3+5 0.830220 0.985300 0.996000 1.422181
O20   O     O_3   0.105210 0.054870 0.996020 -0.372974
I1    I     I_    0.622839 0.934313 0.263888 -0.456100
O21   O     O_3   0.530662 0.647333 0.254782 -0.656964
H23   H     H_    0.447628 0.637245 0.204830 0.283475

loop_
_geom_bond_atom_site_label_1
_geom_bond_atom_site_label_2
_ccdc_geom_bond_type
C6    C7    S    
C16   H8    S    
O11   C38   A    
C29   C36   S    
C1    O6    A    
O18   C39   A    
C19   H9    S    
V4    O20   S    
O19   C40   A    
C5    C12   S    
C20   I1    S    
C16   C17   A    
O5    C3    A    
C18   C19   S    
C21   C28   S    
C36   H21   S    
V2    O10   S    
C5    H2    S    
C13   C20   S    
C6    H1    S    
C9    C12   S    
C3    C17   S    
C32   C33   A    
C10   H5    S    
V3    O20   S    
O11   V4    S    
O8    V2    S    
C13   C14   A    
C35   H19   S    
C9    C10   S    
O1    V2    S    
O14   V3    S    
O13   C40   A    
C28   H15   S    
C20   H10   S    
C31   H17   S    
O9    C4    A    
C6    C11   S    
C19   O21   S    
C15   H7    S    
C23   C24   A    
C14   C40   S    
C31   C32   A    
C27   C28   S    
C10   C11   S    
O12   C37   A    
O15   C39   A    
C19   C20   S    
O4    C2    A    
C1    C22   S    
C26   C27   S    
C30   C31   A    
C23   H11   S    
O17   V3    S    
C27   H13   S    
O2    C1    A    
C21   C22   A    
C17   C18   A    
C24   H12   S    
C35   H20   S    
C5    C6    S    
C9    H4    S    
C4    C12   S    
O14   C38   A    
O3    C4    A    
O16   V4    S    
O19   V4    S    
C35   C36   S    
O6    V2    S    
C8    H3    S    
O9    V2    S    
O2    V1    S    
O17   V4    S    
C22   C23   A    
C29   C34   A    
O7    V1    S    
C11   H6    S    
C2    C30   S    
O1    C2    A    
O15   V3    S    
O5    V1    S    
O8    C3    A    
C21   C26   A    
C33   C37   S    
C24   C25   A    
C5    C8    S    
C13   C18   A    
C27   H14   S    
C14   C15   A    
C11   C12   S    
O4    V1    S    
O12   V3    S    
O3    V1    S    
V1    O10   S    
C34   C35   S    
C7    C39   S    
C29   C30   A    
C36   H22   S    
C15   C16   A    
O13   V3    S    
C25   C38   S    
O7    V2    S    
C32   H18   S    
C33   C34   A    
O21   H23   S    
C25   C26   A    
C37   O16   A    
C7    C10   S    
C8    C9    S    
C7    C8    S    
O18   V4    S    
C28   H16   S    
