data_mof_unit_21846.cif
_audit_creation_date              2013-03-05T15:56:43-0500
_audit_creation_method            fapswitch 2.2
_symmetry_space_group_name_H-M    P1
_symmetry_Int_Tables_number       1
_space_group_crystal_system       triclinic
_cell_length_a                    20.41292
_cell_length_b                    22.259186
_cell_length_c                    13.928554
_cell_angle_alpha                 89.992537
_cell_angle_beta                  89.998607
_cell_angle_gamma                 89.99437
_cell_volume                      6328.78640201

loop_
_atom_site_label
_atom_site_type_symbol
_atom_site_description
_atom_site_fract_x
_atom_site_fract_y
_atom_site_fract_z
_atom_type_partial_charge
O1    O     O_R   0.064880 0.435140 0.582280 -0.589703
O2    O     O_R   0.935120 0.564860 0.417720 -0.589600
O3    O     O_R   0.935120 0.564860 0.582280 -0.589788
O4    O     O_R   0.064880 0.435140 0.417720 -0.589681
O5    O     O_R   0.935120 0.435140 0.417720 -0.589284
O6    O     O_R   0.064880 0.564860 0.582280 -0.589441
O7    O     O_R   0.064880 0.564860 0.417720 -0.589072
O8    O     O_R   0.935120 0.435140 0.582280 -0.589255
O9    O     O_R   0.564880 0.935140 0.582280 -0.589601
O10   O     O_R   0.435120 0.064860 0.417720 -0.589703
O11   O     O_R   0.435120 0.064860 0.582280 -0.589681
O12   O     O_R   0.564880 0.935140 0.417720 -0.589788
O13   O     O_R   0.435120 0.935140 0.417720 -0.589440
O14   O     O_R   0.564880 0.064860 0.582280 -0.589284
O15   O     O_R   0.564880 0.064860 0.417720 -0.589255
O16   O     O_R   0.435120 0.935140 0.582280 -0.589071
C1    C     C_R   0.085984 0.414797 0.500002 0.796071
C2    C     C_R   0.914016 0.585203 0.499998 0.796065
C3    C     C_R   0.914355 0.414511 0.500004 0.796615
C4    C     C_R   0.085645 0.585490 0.499996 0.796587
C5    C     C_R   0.585984 0.914797 0.500002 0.796066
C6    C     C_R   0.414016 0.085203 0.499998 0.796071
C7    C     C_R   0.414355 0.914510 0.500004 0.796587
C8    C     C_R   0.585645 0.085489 0.499996 0.796614
Cu1   Cu    Cu3+1 1.000000 0.500000 0.597420 0.931710
Cu2   Cu    Cu3+1 1.000000 0.500000 0.402580 0.931943
Cu3   Cu    Cu3+1 0.500000 0.000000 0.597420 0.931944
Cu4   Cu    Cu3+1 0.500000 1.000000 0.402580 0.931710
C9    C     C_R   0.155007 0.658859 0.586587 -0.225572
C10   C     C_R   0.843893 0.342049 0.586650 -0.225551
C11   C     C_R   0.841042 0.655550 0.586661 -0.225869
C12   C     C_R   0.159041 0.344507 0.586662 -0.225798
C13   C     C_R   0.656108 0.157950 0.413349 -0.225551
C14   C     C_R   0.344992 0.841142 0.413411 -0.225575
C15   C     C_R   0.340959 0.155493 0.413338 -0.225798
C16   C     C_R   0.658959 0.844451 0.413339 -0.225870
C17   C     C_R   0.133481 0.634497 0.499977 -0.080657
C18   C     C_R   0.866519 0.365505 0.500007 -0.080704
C19   C     C_R   0.864567 0.632856 0.499997 -0.081856
C20   C     C_R   0.135433 0.367144 0.500003 -0.081857
C21   C     C_R   0.633482 0.134495 0.499993 -0.080704
C22   C     C_R   0.366519 0.865504 0.500021 -0.080657
C23   C     C_R   0.364567 0.132856 0.499997 -0.081858
C24   C     C_R   0.635433 0.867144 0.500002 -0.081856
C25   C     C_R   0.157187 0.657044 0.413324 -0.225438
C26   C     C_R   0.843911 0.342051 0.413361 -0.225541
C27   C     C_R   0.840944 0.655481 0.413338 -0.225711
C28   C     C_R   0.158974 0.344463 0.413340 -0.225781
C29   C     C_R   0.656089 0.157948 0.586639 -0.225541
C30   C     C_R   0.342811 0.842957 0.586673 -0.225436
C31   C     C_R   0.341026 0.155537 0.586659 -0.225781
C32   C     C_R   0.659057 0.844520 0.586661 -0.225711
C33   C     C_R   0.203036 0.703899 0.411435 0.070914
C34   C     C_R   0.798133 0.295136 0.411510 0.070914
C35   C     C_R   0.794260 0.701650 0.411522 0.071311
C36   C     C_R   0.205655 0.298293 0.411519 0.071300
C37   C     C_R   0.701869 0.204863 0.588490 0.070914
C38   C     C_R   0.296962 0.796103 0.588560 0.070932
C39   C     C_R   0.294345 0.201707 0.588481 0.071300
C40   C     C_R   0.705741 0.798352 0.588478 0.071313
C41   C     C_R   0.226331 0.727187 0.499974 -0.030042
C42   C     C_R   0.773668 0.272814 0.500002 -0.030081
C43   C     C_R   0.772465 0.726178 0.500000 -0.030629
C44   C     C_R   0.227536 0.273822 0.500000 -0.030631
C45   C     C_R   0.726333 0.227185 0.499998 -0.030081
C46   C     C_R   0.273666 0.772815 0.500021 -0.030041
C47   C     C_R   0.272464 0.226178 0.500000 -0.030631
C48   C     C_R   0.727537 0.773823 0.499999 -0.030630
C49   C     C_R   0.200716 0.705833 0.588394 0.070766
C50   C     C_R   0.798113 0.295133 0.588496 0.070931
C51   C     C_R   0.794362 0.701721 0.588483 0.071307
C52   C     C_R   0.205724 0.298338 0.588479 0.071325
C53   C     C_R   0.701888 0.204865 0.411504 0.070931
C54   C     C_R   0.299282 0.794168 0.411601 0.070747
C55   C     C_R   0.294276 0.201662 0.411521 0.071325
C56   C     C_R   0.705640 0.798280 0.411517 0.071306
C57   C     C_R   0.226150 0.727271 0.322915 0.166557
C58   C     C_R   0.776243 0.270751 0.323053 0.166337
C59   C     C_R   0.769807 0.723941 0.323100 0.168851
C60   C     C_R   0.230021 0.275944 0.323091 0.168832
C61   C     C_R   0.723759 0.229248 0.676947 0.166337
C62   C     C_R   0.273846 0.772732 0.677078 0.166561
C63   C     C_R   0.269979 0.224056 0.676909 0.168832
C64   C     C_R   0.730195 0.776061 0.676899 0.168852
C65   C     C_R   0.776203 0.270744 0.676952 0.166345
C66   C     C_R   0.221403 0.731235 0.676757 0.166134
C67   C     C_R   0.230161 0.276033 0.676901 0.168833
C68   C     C_R   0.770013 0.724084 0.676912 0.168811
C69   C     C_R   0.278595 0.768767 0.323236 0.166128
C70   C     C_R   0.723799 0.229254 0.323048 0.166345
C71   C     C_R   0.729989 0.775918 0.323087 0.168812
C72   C     C_R   0.269839 0.223968 0.323099 0.168832
H1    H     H_    0.136674 0.639778 0.652684 0.173792
H2    H     H_    0.861382 0.361829 0.652686 0.173523
H3    H     H_    0.860963 0.637826 0.652739 0.175000
H4    H     H_    0.139185 0.362276 0.652745 0.174996
H5    H     H_    0.638618 0.138171 0.347314 0.173523
H6    H     H_    0.363328 0.860221 0.347314 0.173792
H7    H     H_    0.360815 0.137724 0.347255 0.174996
H8    H     H_    0.639038 0.862174 0.347261 0.175000
H9    H     H_    0.140526 0.636564 0.347370 0.173181
H10   H     H_    0.861415 0.361832 0.347325 0.173540
H11   H     H_    0.860788 0.637702 0.347254 0.175007
H12   H     H_    0.139064 0.362196 0.347262 0.175012
H13   H     H_    0.638586 0.138167 0.652675 0.173540
H14   H     H_    0.359472 0.863437 0.652628 0.173181
H15   H     H_    0.360936 0.137804 0.652738 0.175012
H16   H     H_    0.639213 0.862299 0.652745 0.175008
C73   C     C_R   0.058709 0.500801 0.794463 0.284386
C74   C     C_R   0.941290 0.499221 0.205534 0.284725
C75   C     C_R   0.941290 0.499209 0.794469 0.284719
C76   C     C_R   0.058710 0.500767 0.205528 0.285079
C77   C     C_R   0.558709 0.000780 0.794466 0.284725
C78   C     C_R   0.441291 0.999198 0.205537 0.284386
C79   C     C_R   0.441290 0.999233 0.794472 0.285079
C80   C     C_R   0.558709 0.000792 0.205531 0.284720
N1    N     N_R   1.000000 0.500000 0.743810 -0.183854
N2    N     N_R   1.000000 0.500000 0.256190 -0.183831
N3    N     N_R   0.500000 1.000000 0.743810 -0.183831
N4    N     N_R   0.500000 0.000000 0.256190 -0.183854
C81   C     C_R   0.940768 0.498826 0.897078 -0.001189
C82   C     C_R   0.059232 0.501157 0.102918 -0.001183
C83   C     C_R   0.059232 0.501181 0.897072 -0.001228
C84   C     C_R   0.940768 0.498831 0.102924 -0.001208
C85   C     C_R   0.440768 0.998843 0.897082 -0.001183
C86   C     C_R   0.559232 0.001175 0.102922 -0.001189
C87   C     C_R   0.559232 0.001169 0.897076 -0.001208
C88   C     C_R   0.440768 0.998819 0.102928 -0.001228
C89   C     C_R   1.000000 0.500000 0.948396 0.031199
C90   C     C_R   1.000000 0.499998 0.051601 0.031056
C91   C     C_R   0.500000 0.000002 0.948399 0.031056
C92   C     C_R   0.500000 1.000000 0.051604 0.031199
C93   C     C_R   0.881907 0.497374 0.950141 -0.195365
C94   C     C_R   0.118093 0.502606 0.049855 -0.195191
C95   C     C_R   0.118092 0.502632 0.950129 -0.195494
C96   C     C_R   0.881907 0.497379 0.049867 -0.195322
C97   C     C_R   0.381907 0.997394 0.950145 -0.195191
C98   C     C_R   0.618093 0.002627 0.049859 -0.195365
C99   C     C_R   0.618093 0.002621 0.950133 -0.195322
C100  C     C_R   0.381908 0.997367 0.049871 -0.195495
H17   H     H_    0.834388 0.496162 0.916075 0.149811
H18   H     H_    0.165614 0.503796 0.083919 0.149785
H19   H     H_    0.165611 0.503859 0.916057 0.149841
H20   H     H_    0.834387 0.496172 0.083937 0.149810
H21   H     H_    0.334386 0.996203 0.916081 0.149786
H22   H     H_    0.665612 0.003839 0.083925 0.149811
H23   H     H_    0.665613 0.003829 0.916063 0.149810
H24   H     H_    0.334389 0.996140 0.083943 0.149841
C101  C     C_3   0.192429 0.710253 0.229422 -0.883138
H25   H     H_    0.138405 0.711342 0.238613 0.230389
H26   H     H_    0.201706 0.742693 0.170644 0.244098
H27   H     H_    0.208011 0.664623 0.206676 0.228367
C102  C     C_3   0.811282 0.286664 0.230121 -0.883007
H28   H     H_    0.865158 0.285830 0.241018 0.230289
H29   H     H_    0.802952 0.253441 0.172193 0.244115
H30   H     H_    0.795924 0.331947 0.205385 0.228720
C103  C     C_3   0.783341 0.690248 0.230245 -0.886123
H31   H     H_    0.777117 0.641189 0.241421 0.222169
H32   H     H_    0.747970 0.701133 0.172484 0.244631
H33   H     H_    0.833923 0.699717 0.205177 0.234991
C104  C     C_3   0.216396 0.309576 0.230196 -0.886125
H34   H     H_    0.222632 0.358642 0.241255 0.222166
H35   H     H_    0.251709 0.298653 0.172380 0.244642
H36   H     H_    0.165789 0.300091 0.205259 0.234952
C105  C     C_3   0.688720 0.213334 0.769880 -0.883005
H37   H     H_    0.634845 0.214169 0.758984 0.230288
H38   H     H_    0.704078 0.168050 0.794613 0.228719
H39   H     H_    0.697053 0.246556 0.827809 0.244115
C106  C     C_3   0.307565 0.789752 0.770568 -0.883201
H40   H     H_    0.361588 0.788662 0.761382 0.230396
H41   H     H_    0.291986 0.835381 0.793311 0.228375
H42   H     H_    0.298285 0.757314 0.829341 0.244117
C107  C     C_3   0.283605 0.190425 0.769804 -0.886126
H43   H     H_    0.277368 0.141358 0.758745 0.222167
H44   H     H_    0.334212 0.199909 0.794740 0.234953
H45   H     H_    0.248292 0.201348 0.827620 0.244642
C108  C     C_3   0.716662 0.809755 0.769753 -0.886126
H46   H     H_    0.722884 0.858814 0.758576 0.222169
H47   H     H_    0.666081 0.800284 0.794826 0.234992
H48   H     H_    0.752035 0.798872 0.827512 0.244631
C109  C     C_3   0.811222 0.286654 0.769894 -0.883008
H49   H     H_    0.802880 0.253427 0.827827 0.244111
H50   H     H_    0.865100 0.285823 0.759019 0.230292
H51   H     H_    0.795856 0.331935 0.794611 0.228721
C110  C     C_3   0.185070 0.716428 0.769102 -0.882537
H52   H     H_    0.192469 0.750434 0.826150 0.244027
H53   H     H_    0.131356 0.716983 0.756537 0.230132
H54   H     H_    0.200200 0.671515 0.795814 0.229018
C111  C     C_3   0.216609 0.309711 0.769763 -0.886103
H55   H     H_    0.251972 0.298820 0.827531 0.244637
H56   H     H_    0.222829 0.358772 0.758610 0.222197
H57   H     H_    0.166024 0.300233 0.794811 0.234955
C112  C     C_3   0.783658 0.690469 0.769816 -0.886094
H58   H     H_    0.748355 0.701400 0.827642 0.244645
H59   H     H_    0.777423 0.641400 0.758782 0.222196
H60   H     H_    0.834269 0.699960 0.794729 0.234911
C113  C     C_3   0.314927 0.783575 0.230888 -0.882467
H61   H     H_    0.307523 0.749573 0.173827 0.244010
H62   H     H_    0.299803 0.828494 0.204185 0.229004
H63   H     H_    0.368643 0.783011 0.243455 0.230127
C114  C     C_3   0.688781 0.213343 0.230106 -0.883008
H64   H     H_    0.697125 0.246569 0.172172 0.244112
H65   H     H_    0.704146 0.168062 0.205391 0.228720
H66   H     H_    0.634903 0.214176 0.240980 0.230292
C115  C     C_3   0.716345 0.809534 0.230183 -0.886092
H67   H     H_    0.751650 0.798605 0.172359 0.244643
H68   H     H_    0.665735 0.800041 0.205267 0.234911
H69   H     H_    0.722579 0.858603 0.241219 0.222196
C116  C     C_3   0.283392 0.190290 0.230237 -0.886103
H70   H     H_    0.248029 0.201181 0.172468 0.244637
H71   H     H_    0.333977 0.199767 0.205189 0.234955
H72   H     H_    0.277171 0.141229 0.241389 0.222197
C117  C     C_3   0.124827 0.501183 0.744702 -0.797876
H73   H     H_    0.151857 0.542695 0.764405 0.191111
H74   H     H_    0.153402 0.461152 0.767331 0.188857
H75   H     H_    0.125010 0.499865 0.667002 0.275075
C118  C     C_3   0.875171 0.498886 0.255289 -0.798399
H76   H     H_    0.848080 0.457423 0.235513 0.190652
H77   H     H_    0.874985 0.500137 0.332993 0.274999
H78   H     H_    0.846652 0.538960 0.232708 0.189029
C119  C     C_3   0.875172 0.498865 0.744718 -0.798367
H79   H     H_    0.874987 0.500118 0.667013 0.275028
H80   H     H_    0.848086 0.457400 0.764514 0.190657
H81   H     H_    0.846647 0.538938 0.767280 0.189026
C120  C     C_3   0.124830 0.501060 0.255273 -0.798895
H82   H     H_    0.125017 0.499880 0.332982 0.274944
H83   H     H_    0.153294 0.460939 0.232765 0.189197
H84   H     H_    0.151982 0.542472 0.235395 0.190212
C121  C     C_3   0.624829 0.001115 0.744711 -0.798399
H85   H     H_    0.625015 0.999863 0.667007 0.274999
H86   H     H_    0.651919 0.042578 0.764487 0.190652
H87   H     H_    0.653348 0.961040 0.767292 0.189029
C122  C     C_3   0.375173 0.998817 0.255298 -0.797874
H88   H     H_    0.374990 0.000135 0.332998 0.275075
H89   H     H_    0.346597 0.038847 0.232668 0.188856
H90   H     H_    0.348143 0.957305 0.235595 0.191109
C123  C     C_3   0.375169 0.998940 0.744727 -0.798897
H91   H     H_    0.374982 0.000120 0.667018 0.274944
H92   H     H_    0.348018 0.957528 0.764605 0.190213
H93   H     H_    0.346706 0.039060 0.767235 0.189197
C124  C     C_3   0.624828 0.001135 0.255282 -0.798368
H94   H     H_    0.625013 0.999882 0.332987 0.275028
H95   H     H_    0.653353 0.961063 0.232719 0.189026
H96   H     H_    0.651914 0.042601 0.235486 0.190656

loop_
_geom_bond_atom_site_label_1
_geom_bond_atom_site_label_2
_geom_bond_distance
_ccdc_geom_bond_type
C113  H63   1.110445 S    
C63   C67   1.413859 A    
C103  H31   1.110338 S    
O8    Cu1   1.970612 S    
O5    Cu2   1.970565 S    
C75   C81   1.429256 A    
C106  H41   1.110453 S    
C114  H64   1.107698 S    
C14   C22   1.393813 A    
C61   C105  1.520676 S    
C23   C31   1.393895 A    
C74   N2    1.390833 A    
C110  H53   1.110417 S    
C104  H34   1.110336 S    
O15   Cu4   1.970609 S    
C29   C37   1.401659 A    
C12   C52   1.401673 A    
C117  H73   1.110745 S    
O10   C6    1.305392 A    
C118  H78   1.110573 S    
C26   H10   1.080488 S    
C99   H23   1.080199 S    
C105  H37   1.110343 S    
C7    C22   1.464118 S    
O12   Cu4   1.970380 S    
C54   C69   1.418851 A    
C97   H21   1.080197 S    
C39   C63   1.418441 A    
C53   C70   1.418649 A    
C119  H81   1.110577 S    
C73   C117  1.517227 S    
C101  H26   1.107885 S    
C40   C64   1.418443 A    
C108  H48   1.107804 S    
C117  H75   1.082664 S    
O6    Cu1   1.970562 S    
O2    C2    1.305392 A    
C41   C49   1.419841 A    
C46   C54   1.419840 A    
C116  H72   1.110337 S    
C45   C53   1.419638 A    
O13   C7    1.305354 A    
O3    C2    1.305362 A    
C111  H56   1.110337 S    
C124  H94   1.082677 S    
C75   C119  1.517218 S    
O14   C8    1.305349 A    
C113  H62   1.110508 S    
C74   C118  1.517218 S    
C20   C28   1.393894 A    
C82   C94   1.411001 A    
C32   C40   1.401670 A    
C74   C84   1.429268 A    
C77   N3    1.390831 A    
C33   C41   1.419824 A    
C41   C46   1.401919 A    
C38   C46   1.419826 A    
C11   C19   1.393897 A    
C112  H59   1.110339 S    
C35   C43   1.419474 A    
C93   C96   1.389038 A    
C36   C44   1.419454 A    
O13   Cu4   1.970565 S    
O11   Cu3   1.970380 S    
O14   Cu3   1.970562 S    
C102  H29   1.107696 S    
C15   C23   1.393879 A    
C122  H88   1.082663 S    
C118  H77   1.082677 S    
C59   C71   1.413861 A    
C61   C65   1.414013 A    
C67   C111  1.520417 S    
C70   C114  1.520675 S    
C39   C47   1.419454 A    
O16   C7    1.305385 A    
C24   C32   1.393886 A    
O16   Cu3   1.970612 S    
C107  H44   1.110159 S    
C62   C106  1.520922 S    
C25   C33   1.401631 A    
C105  H38   1.110319 S    
C80   C86   1.429256 A    
C123  H91   1.082692 S    
C83   C89   1.404850 A    
O1    Cu1   1.970413 S    
C8    C21   1.464114 S    
C114  H65   1.110320 S    
C42   C50   1.419637 A    
C100  H24   1.080199 S    
C72   C116  1.520418 S    
C113  H61   1.107943 S    
C87   C99   1.410989 A    
C15   H7    1.080731 S    
C88   C92   1.404850 A    
C21   C29   1.393640 A    
C104  H36   1.110160 S    
C10   C50   1.401676 A    
C121  H85   1.082677 S    
C120  H82   1.082693 S    
C78   C122  1.517225 S    
C9    C49   1.401681 A    
C109  H50   1.110341 S    
C120  H83   1.110575 S    
C97   C100  1.389036 A    
O8    C3    1.305383 A    
C27   H11   1.080733 S    
C78   C88   1.429260 A    
C71   C115  1.520427 S    
C9    H1    1.080717 S    
C73   N1    1.390813 A    
C30   C38   1.401631 A    
C44   C47   1.402007 A    
C64   C68   1.413861 A    
O3    Cu1   1.970380 S    
C9    C17   1.393799 A    
C38   C62   1.418882 A    
O2    Cu2   1.970413 S    
Cu4   N4    2.039001 S    
C101  H27   1.110495 S    
C57   C101  1.520956 S    
C79   C123  1.517207 S    
C84   C96   1.410991 A    
C73   C83   1.429260 A    
C110  H54   1.110455 S    
C104  H35   1.107799 S    
C34   C42   1.419621 A    
C85   C97   1.411003 A    
Cu1   Cu2   2.713838 S    
C109  H49   1.107697 S    
O12   C5    1.305361 A    
C58   C70   1.414015 A    
C80   N4    1.390826 A    
C83   C95   1.410977 A    
C124  H95   1.110575 S    
C1    C20   1.464162 S    
C60   C72   1.413859 A    
C111  H57   1.110160 S    
C33   C57   1.418909 A    
C2    C19   1.464163 S    
C76   C82   1.429265 A    
C119  H79   1.082678 S    
C3    C18   1.464114 S    
C94   H18   1.080199 S    
C5    C24   1.464165 S    
C35   C59   1.418444 A    
C85   C91   1.404837 A    
O4    Cu2   1.970380 S    
C6    C23   1.464162 S    
C86   C92   1.404843 A    
C112  H60   1.110164 S    
C57   C69   1.414023 A    
C26   C34   1.401659 A    
C116  H70   1.107802 S    
C84   C90   1.404846 A    
C16   H8    1.080735 S    
C106  H40   1.110429 S    
C48   C56   1.419463 A    
C102  H30   1.110319 S    
C122  H89   1.110576 S    
C40   C48   1.419473 A    
C25   H9    1.080531 S    
C55   C72   1.418436 A    
C22   C30   1.393771 A    
C77   C87   1.429268 A    
O4    C1    1.305361 A    
C13   C53   1.401676 A    
O15   C8    1.305383 A    
C12   H4    1.080732 S    
C43   C51   1.419464 A    
O7    C4    1.305382 A    
C105  H39   1.107698 S    
C79   N3    1.390844 A    
C12   C20   1.393879 A    
C123  H92   1.110663 S    
C121  H86   1.110707 S    
C114  H66   1.110341 S    
C37   C61   1.418656 A    
C15   C55   1.401671 A    
C31   C39   1.401657 A    
C103  H32   1.107806 S    
C120  H84   1.110665 S    
C52   C67   1.418436 A    
C69   C113  1.520881 S    
O9    Cu3   1.970413 S    
C19   C27   1.393885 A    
C89   C90   1.437487 A    
C115  H68   1.110164 S    
C115  H69   1.110341 S    
O10   Cu4   1.970413 S    
C111  H55   1.107801 S    
C28   C36   1.401658 A    
C115  H67   1.107808 S    
C80   C124  1.517218 S    
C86   C98   1.410988 A    
C65   C109  1.520676 S    
C76   C120  1.517207 S    
C109  H51   1.110321 S    
C42   C45   1.401935 A    
O1    C1    1.305392 A    
C68   C112  1.520424 S    
Cu2   N2    2.039001 S    
C81   C89   1.404843 A    
Cu1   N1    2.039001 S    
C59   C103  1.520425 S    
C29   H13   1.080487 S    
C107  H45   1.107800 S    
C77   C121  1.517218 S    
C94   C95   1.389036 A    
O5    C3    1.305349 A    
Cu3   N3    2.039001 S    
C103  H33   1.110165 S    
C121  H87   1.110573 S    
O6    C4    1.305356 A    
C43   C48   1.402006 A    
O11   C6    1.305361 A    
C93   H17   1.080201 S    
C36   C60   1.418442 A    
C75   N1    1.390827 A    
C119  H80   1.110706 S    
C124  H96   1.110706 S    
C13   C21   1.393622 A    
C63   C107  1.520417 S    
C118  H76   1.110706 S    
C117  H74   1.110575 S    
C96   H20   1.080199 S    
C62   C66   1.414018 A    
C101  H25   1.110457 S    
C76   N2    1.390842 A    
C4    C17   1.464119 S    
C58   C102  1.520677 S    
O9    C5    1.305392 A    
C110  H52   1.107866 S    
O7    Cu2   1.970609 S    
C98   H22   1.080200 S    
C11   H3    1.080737 S    
C79   C85   1.429265 A    
C11   C51   1.401657 A    
C95   H19   1.080201 S    
C14   H6    1.080706 S    
C34   C58   1.418653 A    
C108  H47   1.110162 S    
C13   H5    1.080489 S    
C44   C52   1.419468 A    
C88   C100  1.410978 A    
C64   C108  1.520423 S    
C122  H90   1.110746 S    
C87   C91   1.404846 A    
C60   C104  1.520416 S    
C18   C26   1.393639 A    
C16   C24   1.393898 A    
C98   C99   1.389038 A    
C108  H46   1.110338 S    
C56   C71   1.418447 A    
C107  H43   1.110334 S    
C51   C68   1.418446 A    
C27   C35   1.401670 A    
C16   C56   1.401658 A    
C47   C55   1.419468 A    
C32   H16   1.080733 S    
C66   C110  1.520849 S    
C31   H15   1.080727 S    
C112  H58   1.107803 S    
C123  H93   1.110575 S    
C10   H2    1.080489 S    
Cu3   Cu4   2.713838 S    
C30   H14   1.080543 S    
C116  H71   1.110159 S    
C14   C54   1.401682 A    
C106  H42   1.107809 S    
C10   C18   1.393622 A    
C81   C93   1.410988 A    
C102  H28   1.110340 S    
C50   C65   1.418649 A    
C17   C25   1.393786 A    
C82   C90   1.404839 A    
C78   N4    1.390815 A    
C49   C66   1.418824 A    
C91   C92   1.437487 A    
C37   C45   1.419622 A    
C28   H12   1.080726 S    
