data_mof_unit_61415.cif
_audit_creation_date              2013-03-05T15:44:59-0500
_audit_creation_method            fapswitch 2.2
_symmetry_space_group_name_H-M    P1
_symmetry_Int_Tables_number       1
_space_group_crystal_system       triclinic
_cell_length_a                    21.785607
_cell_length_b                    21.755847
_cell_length_c                    22.214511
_cell_angle_alpha                 60.598404
_cell_angle_beta                  119.259028
_cell_angle_gamma                 89.875697
_cell_volume                      7585.61305841

loop_
_atom_site_label
_atom_site_type_symbol
_atom_site_description
_atom_site_fract_x
_atom_site_fract_y
_atom_site_fract_z
_atom_type_partial_charge
O1    O     O_R   0.590210 0.447820 0.500000 -0.546301
O2    O     O_R   0.590150 0.552170 0.500020 -0.582595
C1    C     C_R   0.617078 0.501260 0.497246 0.816755
O3    O     O_R   0.439580 0.508290 0.379070 -0.503609
O4    O     O_R   0.439510 0.612640 0.379090 -0.587430
C2    C     C_R   0.421691 0.580182 0.339905 0.880003
Cu1   Cu    Cu3+1 0.500040 0.438210 0.499990 1.145194
Cu2   Cu    Cu3+1 0.499960 0.561790 0.500010 1.082902
O5    O     O_R   0.409850 0.447830 0.499980 -0.569374
O6    O     O_R   0.409790 0.552180 0.500000 -0.574037
O7    O     O_R   0.560490 0.387360 0.620910 -0.563437
O8    O     O_R   0.560420 0.491710 0.620930 -0.570013
C3    C     C_R   0.377888 0.503205 0.493308 0.848569
C4    C     C_R   0.580002 0.419874 0.660062 0.768336
C5    C     C_3   0.273779 0.719786 0.970625 -0.298579
C6    C     C_3   0.320013 0.747309 0.025743 0.336267
H1    H     H_    0.293392 0.694291 0.947844 0.212843
H2    H     H_    0.261016 0.876824 0.947156 0.201454
C7    C     C_1   0.377556 0.625291 0.250300 0.024060
C8    C     C_1   0.124728 0.875449 0.749667 -0.076315
C9    C     C_3   0.245757 0.682642 0.027871 0.239265
C10   C     C_3   0.293303 0.708754 0.083420 -0.089927
C11   C     C_3   0.181088 0.753816 0.973514 0.322622
C12   C     C_3   0.208370 0.792049 0.916486 -0.032240
C13   C     C_3   0.227713 0.781117 0.028686 -0.258327
C14   C     C_3   0.255766 0.820161 0.970757 -0.207866
C15   C     C_1   0.339791 0.663066 0.175032 0.166949
C16   C     C_1   0.162367 0.837929 0.824937 0.134581
C17   C     C_R   0.754477 0.460343 0.647168 -0.117867
C18   C     C_R   0.818622 0.448422 0.717648 -0.086983
H3    H     H_    0.819656 0.431744 0.772849 0.194013
C19   C     C_R   0.880754 0.459590 0.716462 -0.104400
C20   C     C_R   0.879953 0.480171 0.645901 -0.061383
H4    H     H_    0.929126 0.490997 0.648793 0.205026
C21   C     C_R   0.816543 0.489257 0.574324 0.100761
C22   C     C_R   0.751679 0.482830 0.573966 0.037657
C23   C     C_R   0.685175 0.499520 0.500507 -0.182360
C24   C     C_R   0.682882 0.520459 0.428347 0.306557
C25   C     C_R   0.747659 0.522825 0.430718 -0.218815
C26   C     C_R   0.814602 0.506151 0.502492 -0.145982
C27   C     C_3   0.733679 0.187010 0.028312 0.243087
C28   C     C_3   0.679867 0.266038 0.972782 0.206898
C29   C     C_1   0.625112 0.374966 0.749483 -0.061635
C30   C     C_1   0.875475 0.124675 0.250514 -0.083299
C31   C     C_3   0.763503 0.211895 0.973106 0.202705
C32   C     C_3   0.708790 0.291284 0.916197 -0.157551
C33   C     C_3   0.824061 0.231795 0.029187 -0.276635
C34   C     C_3   0.792497 0.207539 0.083904 -0.066876
C35   C     C_3   0.768014 0.310842 0.973019 0.304666
C36   C     C_3   0.737963 0.287548 0.028816 -0.250528
C37   C     C_1   0.662974 0.337231 0.824669 0.201804
C38   C     C_1   0.838082 0.162141 0.175317 0.146148
C39   C     C_R   0.245403 0.475361 0.379587 0.258119
C40   C     C_R   0.194509 0.441773 0.347609 0.297556
C41   C     C_R   0.148559 0.418904 0.375461 -0.209374
C42   C     C_R   0.146314 0.436406 0.426581 -0.193445
H5    H     H_    0.106913 0.420618 0.442946 0.154605
C43   C     C_R   0.193758 0.473197 0.455962 0.030745
C44   C     C_R   0.250242 0.484570 0.441082 -0.031538
C45   C     C_R   0.307523 0.506046 0.487228 -0.108732
C46   C     C_R   0.301804 0.524160 0.537014 -0.204929
C47   C     C_R   0.241028 0.522454 0.542698 0.325200
C48   C     C_R   0.185952 0.498077 0.500592 -0.156776
O9    O     O_R   0.052170 0.909710 0.500000 -0.587385
O10   O     O_R   0.947780 0.909820 0.499990 -0.569477
C49   C     C_R   0.998182 0.883240 0.496043 0.792282
O11   O     O_R   0.112650 0.939420 0.620930 -0.575206
O12   O     O_R   0.008260 0.939530 0.620910 -0.549514
C50   C     C_R   0.080014 0.919988 0.660098 0.784718
Cu3   Cu    Cu3+1 0.061810 0.999860 0.500010 1.077610
Cu4   Cu    Cu3+1 0.938190 0.999990 0.499990 1.084269
O13   O     O_R   0.052220 0.090030 0.500010 -0.531692
O14   O     O_R   0.947830 0.090140 0.500000 -0.580881
O15   O     O_R   0.991740 0.060320 0.379090 -0.566734
O16   O     O_R   0.887350 0.060430 0.379070 -0.561687
C51   C     C_R   0.999974 0.118712 0.499735 0.807237
C52   C     C_R   0.920030 0.079991 0.339963 0.804742
O17   O     O_R   0.964960 0.625150 0.430050 -0.587380
O18   O     O_R   0.034940 0.555150 0.570020 -0.538261
C53   C     C_R   0.000802 0.619102 0.499661 0.885452
O19   O     O_R   0.874830 0.535020 0.430000 -0.569135
O20   O     O_R   0.944810 0.465010 0.569970 -0.620832
C54   C     C_R   0.881096 0.503429 0.500593 0.842078
Cu5   Cu    Cu3+1 0.958570 0.541460 0.417120 1.072294
Cu6   Cu    Cu3+1 0.041430 0.458560 0.582880 1.059877
O21   O     O_R   0.965060 0.444870 0.429980 -0.579707
O22   O     O_R   0.035040 0.374860 0.569950 -0.592629
O23   O     O_R   0.055190 0.535000 0.430030 -0.576021
O24   O     O_R   0.125170 0.465000 0.570000 -0.546482
C55   C     C_R   0.996564 0.380912 0.500232 0.780998
C56   C     C_R   0.119020 0.500655 0.500292 0.837325
C57   C     C_R   0.028980 0.868390 0.387390 -0.186595
H6    H     H_    0.018927 0.923486 0.374442 0.171684
C58   C     C_R   0.053266 0.857263 0.344916 -0.166978
C59   C     C_R   0.065089 0.788309 0.355853 0.368177
C60   C     C_R   0.048858 0.731637 0.407345 -0.151027
C61   C     C_R   0.022313 0.742411 0.449451 0.009468
C62   C     C_R   0.016451 0.810348 0.443130 0.100332
C63   C     C_R   0.996561 0.818689 0.491321 -0.138121
C64   C     C_R   0.976719 0.763292 0.538616 -0.210829
C65   C     C_R   0.976651 0.698827 0.540106 0.338605
C66   C     C_R   0.001345 0.687085 0.497560 -0.170217
C67   C     C_R   0.011546 0.115236 0.637001 -0.210299
C68   C     C_R   0.007320 0.114728 0.698243 0.375608
C69   C     C_R   0.992890 0.182018 0.690084 -0.182868
H7    H     H_    0.987011 0.183852 0.734884 0.194486
C70   C     C_R   0.986251 0.247850 0.624410 -0.202167
C71   C     C_R   0.994552 0.248360 0.564921 0.108726
C72   C     C_R   0.002539 0.181993 0.568330 0.000462
C73   C     C_R   0.001699 0.183786 0.503263 -0.180099
C74   C     C_R   0.996529 0.250009 0.437798 0.321110
C75   C     C_R   0.992969 0.313676 0.437767 -0.236585
C76   C     C_R   0.993411 0.313436 0.500972 -0.140505
N1    N     N_R   0.396220 0.745321 0.052457 0.161366
O25   O     O_R   0.411377 0.780442 0.996880 -0.284847
O26   O     O_R   0.449224 0.709223 0.131405 -0.275454
H8    H     H_    0.929893 0.452579 0.770449 0.182307
H9    H     H_    0.745743 0.536361 0.375798 0.210535
N2    N     N_R   0.602419 0.282318 0.945286 0.181549
O27   O     O_R   0.586060 0.257269 0.000307 -0.260638
O28   O     O_R   0.549416 0.321825 0.866146 -0.302604
N3    N     N_R   0.712914 0.119577 0.055848 0.183370
O29   O     O_R   0.661701 0.110223 0.000876 -0.240196
O30   O     O_R   0.745306 0.068493 0.135015 -0.305990
H10   H     H_    0.727169 0.319580 0.050968 0.216017
N4    N     N_R   0.788511 0.378377 0.944949 0.161855
O31   O     O_R   0.839723 0.388024 0.999618 -0.264146
O32   O     O_R   0.756125 0.429153 0.865695 -0.345281
H11   H     H_    0.883441 0.218380 0.051632 0.210702
N5    N     N_R   0.778534 0.168363 0.945919 0.178170
O33   O     O_R   0.826328 0.101695 0.001147 -0.265917
O34   O     O_R   0.744791 0.195691 0.866833 -0.306376
H12   H     H_    0.345448 0.540150 0.572085 0.201454
N6    N     N_R   0.283740 0.508635 0.341241 0.119662
O35   O     O_R   0.272189 0.579952 0.304666 -0.362917
O36   O     O_R   0.316631 0.471990 0.327480 -0.263545
N7    N     N_R   0.185260 0.435003 0.282737 0.171938
O37   O     O_R   0.174092 0.492860 0.214861 -0.188461
O38   O     O_R   0.173562 0.375830 0.284104 -0.272738
H13   H     H_    0.110127 0.392254 0.352428 0.213885
N8    N     N_R   0.237510 0.543992 0.593080 0.140574
O39   O     O_R   0.175288 0.584045 0.568092 -0.380055
O40   O     O_R   0.298308 0.531100 0.659575 -0.287684
H14   H     H_    0.959461 0.770960 0.573381 0.205530
H15   H     H_    0.063150 0.902838 0.303622 0.198951
N9    N     N_R   0.092594 0.776056 0.314092 0.146179
O41   O     O_R   0.105877 0.829280 0.264655 -0.291349
O42   O     O_R   0.105638 0.711302 0.325974 -0.319323
H16   H     H_    0.057743 0.679033 0.414425 0.189073
N10   N     N_R   0.946160 0.648258 0.579922 0.117951
O43   O     O_R   0.891783 0.631300 0.537036 -0.392303
O44   O     O_R   0.961202 0.632140 0.651354 -0.317460
N11   N     N_R   0.992869 0.254283 0.369495 0.112825
O45   O     O_R   0.940759 0.307709 0.293151 -0.308193
O46   O     O_R   0.049360 0.215949 0.382931 -0.297535
H17   H     H_    0.022604 0.062918 0.643947 0.166656
N12   N     N_R   0.016673 0.046308 0.767766 0.139078
O47   O     O_R   0.030398 0.983534 0.775750 -0.323820
O48   O     O_R   0.012285 0.046006 0.824274 -0.295204
H18   H     H_    0.972874 0.298185 0.620261 0.172998
H19   H     H_    0.991472 0.363575 0.388490 0.191103
H20   H     H_    0.207934 0.805983 0.051851 0.222490
N13   N     N_R   0.104971 0.755395 0.946977 0.177338
O49   O     O_R   0.089969 0.720063 0.002664 -0.232889
O50   O     O_R   0.051763 0.792120 0.868037 -0.267769
N14   N     N_R   0.237674 0.608819 0.056282 0.179864
O51   O     O_R   0.194921 0.594624 0.001886 -0.253984
O52   O     O_R   0.273079 0.556820 0.135612 -0.231994
N15   N     N_R   0.615199 0.541210 0.351374 0.119379
O53   O     O_R   0.603771 0.592823 0.280196 -0.264727
O54   O     O_R   0.569997 0.502270 0.351347 -0.323272
H21   H     H_    0.707210 0.451791 0.650775 0.129458

loop_
_geom_bond_atom_site_label_1
_geom_bond_atom_site_label_2
_geom_bond_distance
_ccdc_geom_bond_type
C49   C63   1.457986 S    
C18   C19   1.386336 A    
C41   C42   1.384109 A    
C27   C28   1.532093 S    
C65   C66   1.407634 A    
N15   O53   1.301431 A    
C21   C22   1.416858 A    
H2    C14   1.110085 S    
C19   H8    1.082714 S    
O13   C51   1.292807 A    
C35   C36   1.549107 S    
N1    O25   1.300185 A    
C39   C44   1.430203 A    
C46   H12   1.084181 S    
Cu1   Cu2   2.688805 S    
C33   C35   1.549186 S    
C3    C45   1.470018 S    
C31   C32   1.541520 S    
C42   H5    1.081954 S    
Cu1   O7    1.947221 S    
C35   N4    1.456869 S    
N7    O38   1.301434 A    
C32   C35   1.541676 S    
C23   C24   1.408620 A    
C33   H11   1.110062 S    
C30   C52   1.431604 S    
N13   O50   1.300191 A    
C12   C14   1.550329 S    
C34   C38   1.463076 S    
O2    C1    1.293913 A    
N8    O40   1.301571 A    
O4    C2    1.296718 A    
O7    C4    1.296710 A    
O17   C53   1.279754 A    
C28   N2    1.457027 S    
C40   N7    1.436580 S    
C5    C6    1.545681 S    
C65   N10   1.433893 S    
C71   C72   1.414010 A    
C5    H1    1.110093 S    
C28   C32   1.541642 S    
C55   C76   1.462140 S    
C74   N11   1.435394 S    
O5    C3    1.295521 A    
C73   C74   1.409008 A    
C75   C76   1.396809 A    
N12   O47   1.301749 A    
C59   C60   1.402201 A    
O12   C50   1.298341 A    
O15   C52   1.297592 A    
Cu3   O15   1.946734 S    
N4    O32   1.300228 A    
C70   C71   1.413668 A    
Cu3   Cu4   2.692917 S    
O9    Cu3   1.973051 S    
O24   C56   1.278637 A    
C17   C18   1.390118 A    
C7    C15   1.204648 T    
C68   N12   1.440944 S    
N9    O42   1.301899 A    
C61   C66   1.419925 A    
C30   C38   1.203534 T    
C58   H15   1.082568 S    
C34   C36   1.554756 S    
C31   N5    1.456899 S    
N12   O48   1.301603 A    
C9    C10   1.536150 S    
N14   O52   1.300142 A    
N15   O54   1.300387 A    
C26   C54   1.471589 S    
C58   C59   1.398246 A    
C59   N9    1.440938 S    
O3    Cu1   1.945906 S    
C68   C69   1.398798 A    
O19   C54   1.297045 A    
C61   C62   1.413679 A    
C11   N13   1.456989 S    
Cu6   O22   1.973162 S    
C6    C14   1.543186 S    
C24   C25   1.388266 A    
Cu3   O13   1.972368 S    
C57   C62   1.413832 A    
Cu5   O23   1.975286 S    
Cu5   Cu6   2.652944 S    
O3    C2    1.298055 A    
O21   C55   1.288190 A    
C25   C26   1.399099 A    
Cu4   O14   1.973055 S    
Cu6   O24   1.975264 S    
N6    O36   1.301325 A    
C8    C16   1.204685 T    
C43   C44   1.415394 A    
O10   Cu4   1.972366 S    
C32   C37   1.464870 S    
C10   C13   1.552776 S    
C41   H13   1.083329 S    
C53   C66   1.456941 S    
C45   C46   1.398732 A    
O11   C50   1.298529 A    
O9    C49   1.293949 A    
C71   C76   1.419056 A    
N5    O34   1.300182 A    
C47   C48   1.410162 A    
C2    C7    1.434161 S    
C69   C70   1.393512 A    
C33   C34   1.554876 S    
C17   C22   1.417485 A    
O23   C56   1.287226 A    
C5    C9    1.547553 S    
C13   H20   1.110062 S    
Cu2   O8    1.945907 S    
C60   C61   1.416933 A    
C57   C58   1.393011 A    
C20   H4    1.075125 S    
O12   Cu4   1.946735 S    
C36   H10   1.110065 S    
O16   C52   1.298319 A    
N2    O28   1.300182 A    
C28   C36   1.550737 S    
C27   N3    1.457187 S    
C5    C12   1.551509 S    
O8    C4    1.296482 A    
C62   C63   1.417962 A    
C10   C15   1.466322 S    
C9    C11   1.527204 S    
C64   H14   1.084290 S    
N14   O51   1.300208 A    
O14   C51   1.297267 A    
N10   O44   1.301225 A    
C8    C50   1.433559 S    
N11   O46   1.300510 A    
C47   N8    1.441090 S    
N3    O30   1.300151 A    
O20   Cu6   1.975284 S    
O18   Cu6   1.971614 S    
O19   Cu5   1.975264 S    
C24   N15   1.440960 S    
N9    O41   1.301591 A    
C69   H7    1.082587 S    
C43   C48   1.412849 A    
Cu1   O5    1.975386 S    
C40   C41   1.392047 A    
C22   C23   1.413753 A    
C6    C10   1.536062 S    
C74   C75   1.386788 A    
O1    Cu1   1.975859 S    
O2    Cu2   1.975386 S    
C39   N6    1.428228 S    
C12   C16   1.465217 S    
Cu5   O21   1.971616 S    
O6    C3    1.303123 A    
C6    N1    1.456635 S    
O4    Cu2   1.947219 S    
N1    O26   1.300021 A    
N2    O27   1.300212 A    
C39   C40   1.418174 A    
N6    O35   1.300575 A    
C25   H9    1.083645 S    
N7    O37   1.301424 A    
C63   C64   1.395055 A    
C67   C72   1.416254 A    
O11   Cu3   1.946457 S    
C19   C20   1.393505 A    
C21   C26   1.428722 A    
C13   C14   1.564878 S    
C70   H18   1.079756 S    
C72   C73   1.417712 A    
Cu4   O16   1.946455 S    
C29   C37   1.203354 T    
C18   H3    1.082581 S    
N4    O31   1.300180 A    
C60   H16   1.079121 S    
C57   H6    1.079931 S    
C20   C21   1.420818 A    
C27   C34   1.537430 S    
C42   C43   1.411417 A    
N5    O33   1.300229 A    
O10   C49   1.299566 A    
C17   H21   1.080862 S    
C46   C47   1.389039 A    
C51   C73   1.455389 S    
N13   O49   1.300255 A    
C75   H19   1.084458 S    
C9    N14   1.457203 S    
C11   C12   1.534124 S    
O18   C53   1.286818 A    
O17   Cu5   1.972943 S    
C67   H17   1.080480 S    
C44   C45   1.431351 A    
C11   C13   1.545022 S    
C31   C33   1.550953 S    
C1    C23   1.449000 S    
Cu2   O6    1.975861 S    
O20   C54   1.280456 A    
O22   C55   1.284083 A    
C48   C56   1.455763 S    
C67   C68   1.402538 A    
C27   C31   1.532230 S    
N10   O43   1.300331 A    
C64   C65   1.386557 A    
O1    C1    1.290820 A    
N3    O29   1.300234 A    
N8    O39   1.299744 A    
C4    C29   1.431185 S    
N11   O45   1.301077 A    
