data_mof_unit_19570.cif
_audit_creation_date              2012-12-10T18:59:16-0500
_audit_creation_method            fapswitch 2.2
_symmetry_space_group_name_H-M    P1
_symmetry_Int_Tables_number       1
_space_group_crystal_system       triclinic
_cell_length_a                    10.85786
_cell_length_b                    10.834852
_cell_length_c                    9.518077
_cell_angle_alpha                 89.776688
_cell_angle_beta                  90.595446
_cell_angle_gamma                 90.298357
_cell_volume                      1119.6541274

loop_
_atom_site_label
_atom_site_type_symbol
_atom_type_description
_atom_site_fract_x
_atom_site_fract_y
_atom_site_fract_z
_atom_type_partial_charge
C1    C     C_R   0.502001 0.262300 0.500269 0.803530
C2    C     C_R   0.063667 0.526700 0.632258 0.067022
C3    C     C_R   0.128000 0.518028 0.503282 -0.098072
C4    C     C_R   0.062491 0.499667 0.377767 -0.199249
C5    C     C_R   0.935699 0.488982 0.378738 -0.200027
C6    C     C_R   0.872631 0.484137 0.506295 -0.106706
C7    C     C_R   0.506291 0.063085 0.626745 0.104155
C8    C     C_R   0.512731 0.129315 0.500872 -0.082616
C9    C     C_R   0.532536 0.065065 0.375088 -0.215644
C10   C     C_R   0.530644 0.936437 0.374521 -0.211114
C11   C     C_R   0.508575 0.870945 0.499521 -0.086495
C12   C     C_R   0.262405 0.509416 0.500254 0.803618
C13   C     C_R   0.501158 0.936031 0.625454 0.076968
C14   C     C_3   0.406991 0.931501 0.739560 -0.211887
C15   C     C_3   0.415338 0.071742 0.743159 -0.502081
C16   C     C_R   0.535868 0.602822 0.073598 0.254003
C17   C     C_R   0.450266 0.404564 0.074291 -0.058403
C18   C     C_R   0.450247 0.404604 0.925272 -0.072561
C19   C     C_R   0.534442 0.603386 0.926158 0.229732
C20   C     C_3   0.654856 0.669364 0.919711 -0.495464
C21   C     C_3   0.658346 0.665730 0.079243 -0.493658
C22   C     C_R   0.500341 0.737733 0.499711 0.807971
C23   C     C_R   0.737870 0.491463 0.501534 0.801794
C24   C     C_R   0.118308 0.570357 0.758702 -0.249062
C25   C     C_R   0.061073 0.551900 0.889410 0.496528
C26   C     C_R   0.951278 0.484961 0.891905 -0.212405
C27   C     C_R   0.890393 0.454384 0.766891 -0.271926
C28   C     C_R   0.940056 0.488100 0.635243 0.101869
Cu1   Cu    Cu3+1 0.499990 0.499980 0.640670 0.935730
Cu2   Cu    Cu3+1 0.500010 0.500020 0.359330 0.940749
H1    H     H_    0.109198 0.493678 0.278178 0.215693
H2    H     H_    0.440572 0.885573 0.837183 0.133750
H3    H     H_    0.329859 0.121178 0.710935 0.199900
H4    H     H_    0.459010 0.106539 0.841520 0.176447
H5    H     H_    0.411749 0.326398 0.129760 0.139756
H6    H     H_    0.411265 0.326907 0.869437 0.141898
H7    H     H_    0.727704 0.613840 0.870633 0.231073
H8    H     H_    0.645107 0.764225 0.876280 0.192381
H9    H     H_    0.732230 0.605467 0.122439 0.213110
H10   H     H_    0.653781 0.758825 0.126947 0.188468
H11   H     H_    0.204002 0.620447 0.756411 0.163493
H12   H     H_    0.910102 0.460635 0.991474 0.148737
H13   H     H_    0.806186 0.401620 0.775714 0.186520
H14   H     H_    0.887277 0.482535 0.278957 0.162612
H15   H     H_    0.544162 0.113644 0.276392 0.157693
H16   H     H_    0.541024 0.889071 0.275616 0.152593
N1    N     N_R   0.500790 0.500930 0.147930 -0.186916
N2    N     N_R   0.500790 0.500890 0.852020 -0.190614
O1    O     O_R   0.500000 0.319640 0.618810 -0.586394
O2    O     O_R   0.500010 0.319680 0.381230 -0.593152
O3    O     O_R   0.319640 0.499980 0.618820 -0.587529
O4    O     O_R   0.319650 0.500020 0.381230 -0.583779
O5    O     O_R   0.499990 0.680320 0.618770 -0.585775
O6    O     O_R   0.500000 0.680360 0.381190 -0.589512
O7    O     O_R   0.680350 0.499980 0.618770 -0.589539
O8    O     O_R   0.680360 0.500020 0.381180 -0.582945
O9    O     O_3   0.114249 0.585479 0.017548 -0.602440
C29   C     C_3   0.175705 0.700763 0.010383 0.044391
H17   H     H_    0.121970 0.769588 0.947902 0.158208
H18   H     H_    0.268741 0.689221 0.964725 0.141572
C30   C     C_3   0.192971 0.751659 0.158028 -0.772541
H19   H     H_    0.252274 0.689011 0.221192 0.264892
H20   H     H_    0.238076 0.843794 0.153052 0.199395
H21   H     H_    0.102304 0.760830 0.209861 0.254409
C31   C     C_1   0.285475 0.887368 0.690208 0.251913
N3    N     N_1   0.189999 0.853609 0.650702 -0.324068

loop_
_geom_bond_atom_site_label_1
_geom_bond_atom_site_label_2
_ccdc_geom_bond_type
C10   H16   S    
C30   H21   S    
C23   O7    A    
Cu1   Cu2   S    
C20   H7    S    
C1    C8    S    
C20   H8    S    
C1    O2    A    
C11   C22   S    
Cu1   O7    S    
C19   C20   S    
C21   H9    S    
C7    C13   A    
Cu2   O8    S    
C29   C30   S    
C7    C15   S    
C17   C18   A    
O9    C29   S    
C23   O8    A    
C22   O6    A    
C25   C26   A    
Cu1   O1    S    
C13   C14   S    
C20   C21   S    
C9    H15   S    
C24   H11   S    
Cu2   O6    S    
C26   C27   A    
C16   C21   S    
C21   H10   S    
C18   H6    S    
C16   C19   A    
C5    C6    A    
C6    C23   S    
C16   N1    A    
C17   H5    S    
C12   O4    A    
C14   C31   S    
Cu1   O3    S    
C2    C3    A    
C22   O5    A    
C2    C24   A    
C30   H19   S    
Cu2   O2    S    
C4    H1    S    
C7    C8    A    
C10   C11   A    
Cu1   N2    S    
C29   H18   S    
C3    C4    A    
C25   O9    S    
C27   H13   S    
Cu2   N1    S    
C11   C13   A    
C12   O3    A    
C24   C25   A    
C26   H12   S    
C31   N3    T    
C9    C10   A    
C14   H2    S    
C27   C28   A    
C30   H20   S    
Cu2   O4    S    
C14   C15   S    
C4    C5    A    
C2    C28   A    
C3    C12   S    
C15   H4    S    
C29   H17   S    
C19   N2    A    
C1    O1    A    
C5    H14   S    
C6    C28   A    
C17   N1    A    
C15   H3    S    
C8    C9    A    
Cu1   O5    S    
C18   N2    A    
