data_mof_unit_16771.cif
_audit_creation_date              2012-12-10T17:59:43-0500
_audit_creation_method            fapswitch 2.2
_symmetry_space_group_name_H-M    P1
_symmetry_Int_Tables_number       1
_space_group_crystal_system       triclinic
_cell_length_a                    10.894971
_cell_length_b                    9.531991
_cell_length_c                    15.908977
_cell_angle_alpha                 89.98553
_cell_angle_beta                  90.78079
_cell_angle_gamma                 89.945743
_cell_volume                      1652.00523649

loop_
_atom_site_label
_atom_site_type_symbol
_atom_type_description
_atom_site_fract_x
_atom_site_fract_y
_atom_site_fract_z
_atom_type_partial_charge
C1    C     C_R   0.261743 0.500050 0.501807 0.830187
C2    C     C_3   0.637423 0.505474 0.952791 0.281998
C3    C     C_3   0.633493 0.505353 0.051230 -0.380860
C4    C     C_1   0.499791 0.499951 0.824558 -0.109879
C5    C     C_1   0.499267 0.500058 0.175488 0.029384
C6    C     C_1   0.499418 0.500051 0.250861 -0.166395
C7    C     C_R   0.061421 0.371669 0.509234 0.122599
C8    C     C_R   0.060993 0.628618 0.505118 0.123095
C9    C     C_R   0.934035 0.373240 0.508089 -0.244578
C10   C     C_R   0.933677 0.626791 0.504173 -0.244958
C11   C     C_R   0.870324 0.499924 0.504084 -0.065965
C12   C     C_R   0.126945 0.500119 0.505246 -0.042212
C13   C     C_R   0.431028 0.075116 0.442158 0.247144
C14   C     C_R   0.431228 0.925165 0.442036 0.246766
C15   C     C_R   0.499720 0.500016 0.340291 0.828578
C16   C     C_R   0.568820 0.925620 0.557335 -0.089529
C17   C     C_R   0.568890 0.074177 0.557295 -0.089381
C18   C     C_R   0.737442 0.499946 0.501202 0.800798
C19   C     C_R   0.500057 0.499984 0.659736 0.818486
C20   C     C_3   0.425395 0.628764 0.048891 -0.058323
C21   C     C_3   0.433598 0.365739 0.049041 -0.059037
C22   C     C_3   0.436099 0.362726 0.950559 -0.043537
C23   C     C_3   0.427664 0.631849 0.950403 -0.043822
C24   C     C_1   0.499900 0.499952 0.749166 -0.198974
C25   C     C_3   0.499337 0.500036 0.083270 0.155122
C26   C     C_3   0.499799 0.499980 0.917028 0.186355
Cu1   Cu    Cu3+1 0.500020 0.640660 0.500000 0.974523
Cu2   Cu    Cu3+1 0.500020 0.359340 0.500000 0.974787
H1    H     H_    0.328641 0.615011 0.069419 0.173728
H2    H     H_    0.336217 0.371830 0.069535 0.173504
H3    H     H_    0.488445 0.269614 0.929025 0.115202
H4    H     H_    0.474026 0.728879 0.928735 0.115284
H5    H     H_    0.680831 0.599117 0.077605 0.175213
H6    H     H_    0.686562 0.415595 0.077710 0.175251
H7    H     H_    0.885277 0.274253 0.510294 0.156877
H8    H     H_    0.884682 0.725825 0.503147 0.157732
N1    N     N_R   0.500030 0.852070 0.500020 -0.156196
N2    N     N_R   0.500030 0.147930 0.500020 -0.155889
O1    O     O_R   0.319660 0.618740 0.500000 -0.532048
O2    O     O_R   0.319660 0.381260 0.500000 -0.532034
O3    O     O_R   0.500020 0.618840 0.379440 -0.550223
O4    O     O_R   0.500020 0.381160 0.379440 -0.550146
O5    O     O_R   0.680370 0.618830 0.500010 -0.594127
O6    O     O_R   0.680370 0.381170 0.500010 -0.593891
O7    O     O_R   0.500010 0.618730 0.620560 -0.584325
O8    O     O_R   0.500010 0.381270 0.620560 -0.583885
N3    N     N_3   0.301555 0.637582 0.916612 -0.540677
H9    H     H_    0.304524 0.655665 0.851850 0.229150
H10   H     H_    0.258128 0.725822 0.941669 0.203934
N4    N     N_3   0.310684 0.346900 0.916756 -0.541232
H11   H     H_    0.314813 0.329018 0.852020 0.229285
H12   H     H_    0.272896 0.255443 0.941925 0.202715
H13   H     H_    0.624317 0.869675 0.603220 0.135731
H14   H     H_    0.624448 0.129965 0.603145 0.135224
N5    N     N_3   0.484577 0.236732 0.086177 -0.605421
H15   H     H_    0.428248 0.152733 0.068363 0.210236
H16   H     H_    0.571493 0.215926 0.062488 0.214439
N6    N     N_3   0.468241 0.761526 0.085854 -0.606162
H17   H     H_    0.406816 0.840840 0.067951 0.209735
H18   H     H_    0.553634 0.789144 0.062117 0.214127
N7    N     N_3   0.703122 0.631950 0.924573 -0.561840
H19   H     H_    0.669761 0.723603 0.951698 0.185027
H20   H     H_    0.697135 0.642369 0.859259 0.218880
N8    N     N_3   0.710874 0.384520 0.924717 -0.560862
H21   H     H_    0.705529 0.373577 0.859418 0.218873
H22   H     H_    0.683354 0.290470 0.951972 0.185500
N9    N     N_3   0.122622 0.238790 0.515569 -0.561955
H23   H     H_    0.097276 0.191702 0.572105 0.211134
H24   H     H_    0.090700 0.174929 0.466534 0.200802
N10   N     N_3   0.121618 0.762001 0.506651 -0.562247
H25   H     H_    0.096583 0.814239 0.561617 0.211266
H26   H     H_    0.088746 0.821029 0.455703 0.200010
N11   N     N_3   0.359226 0.151220 0.381478 -0.521123
H27   H     H_    0.267466 0.121577 0.386582 0.189961
H28   H     H_    0.389151 0.124539 0.321421 0.195912
N12   N     N_3   0.360482 0.849418 0.380726 -0.519731
H29   H     H_    0.268863 0.880311 0.384482 0.190201
H30   H     H_    0.392201 0.875519 0.321025 0.196708

loop_
_geom_bond_atom_site_label_1
_geom_bond_atom_site_label_2
_ccdc_geom_bond_type
N5    H15   S    
C11   C18   S    
N11   H27   S    
C19   O8    A    
N3    H10   S    
Cu2   O8    S    
N12   H30   S    
C5    C6    T    
C4    C24   T    
C20   C25   S    
C3    H5    S    
N6    H18   S    
C23   C26   S    
N7    H20   S    
C16   H13   S    
C1    O2    A    
C6    C15   S    
Cu1   O1    S    
C16   C17   A    
N4    H12   S    
N10   H25   S    
C2    N7    S    
C16   N1    A    
C22   N4    S    
Cu1   O7    S    
C21   C22   S    
N11   H28   S    
C1    C12   S    
C2    N8    S    
C20   H1    S    
C7    C12   A    
C23   N3    S    
C22   H3    S    
N9    H23   S    
C3    C25   S    
N12   H29   S    
C15   O3    A    
C21   N5    S    
C3    H6    S    
N6    H17   S    
N10   H26   S    
N9    H24   S    
N8    H22   S    
C18   O6    A    
Cu1   O3    S    
N3    H9    S    
C20   C23   S    
Cu2   N2    S    
C8    C12   A    
N4    H11   S    
C2    C26   S    
C9    C11   A    
C13   N2    A    
C5    C25   S    
C13   N11   S    
N5    H16   S    
C20   N6    S    
C7    C9    A    
C21   C25   S    
C15   O4    A    
C4    C26   S    
C19   O7    A    
C21   H2    S    
C8    N10   S    
C23   H4    S    
C19   C24   S    
C18   O5    A    
N8    H21   S    
C14   N1    A    
Cu1   N1    S    
Cu2   O4    S    
Cu2   O6    S    
C2    C3    S    
C17   N2    A    
N7    H19   S    
C10   C11   A    
C1    O1    A    
C7    N9    S    
Cu1   O5    S    
C8    C10   A    
C22   C26   S    
Cu1   Cu2   S    
C9    H7    S    
Cu2   O2    S    
C10   H8    S    
C13   C14   A    
C17   H14   S    
C14   N12   S    
