data_mof_unit_62044.cif
_audit_creation_date              2012-12-11T17:26:11-0500
_audit_creation_method            fapswitch 2.2
_symmetry_space_group_name_H-M    P1
_symmetry_Int_Tables_number       1
_space_group_crystal_system       triclinic
_cell_length_a                    6.948353
_cell_length_b                    18.956154
_cell_length_c                    20.73243
_cell_angle_alpha                 107.572961
_cell_angle_beta                  90.267734
_cell_angle_gamma                 90.530579
_cell_volume                      2603.12547563

loop_
_atom_site_label
_atom_site_type_symbol
_atom_type_description
_atom_site_fract_x
_atom_site_fract_y
_atom_site_fract_z
_atom_type_partial_charge
O1    O     O_R   0.505770 0.444240 0.557370 -0.533864
O2    O     O_R   0.169820 0.415250 0.421330 -0.534442
O3    O     O_R   0.005590 0.555760 0.442630 -0.534325
C1    C     C_R   0.338701 0.393649 0.395280 0.719565
O4    O     O_R   0.175660 0.435500 0.555540 -0.537152
O5    O     O_R   0.011460 0.576150 0.577800 -0.532883
C2    C     C_R   0.344511 0.421152 0.575648 0.727912
O6    O     O_R   0.499890 0.423850 0.422200 -0.532860
O7    O     O_3   0.341200 0.546120 0.507150 -0.367388
V1    V     V_3+5 0.063980 0.491440 0.498670 1.429921
O8    O     O_R   0.682100 0.584750 0.578670 -0.536129
C3    C     C_R   0.852047 0.606241 0.604596 0.721479
O9    O     O_R   0.676270 0.564500 0.444460 -0.538944
C4    C     C_R   0.845114 0.578864 0.424393 0.725343
V2    V     V_3+5 0.564720 0.508560 0.501330 1.426534
O10   O     O_3   0.837360 0.453880 0.492850 -0.365515
C5    C     C_R   0.037096 0.735769 0.199988 -0.221681
H1    H     H_    0.146462 0.724522 0.161204 0.122238
C6    C     C_R   0.906730 0.793301 0.205149 0.096222
C7    C     C_R   0.765929 0.807412 0.255572 -0.148328
H2    H     H_    0.663734 0.851479 0.260342 0.128200
C8    C     C_R   0.755247 0.764661 0.300211 -0.235799
H3    H     H_    0.644308 0.776373 0.338425 0.134154
C9    C     C_R   0.885288 0.707043 0.295404 0.090036
C10   C     C_R   0.028970 0.692869 0.245036 0.308365
C11   C     C_1   0.917895 0.837952 0.159003 -0.036790
C12   C     C_1   0.867844 0.662234 0.341381 -0.011219
C13   C     C_1   0.855887 0.624525 0.379421 -0.191001
C14   C     C_1   0.926994 0.875564 0.120787 -0.190100
C15   C     C_1   0.916317 0.831612 0.833091 -0.195414
C16   C     C_1   0.900962 0.780174 0.780819 0.006699
C17   C     C_1   0.881459 0.719789 0.719199 0.006604
C18   C     C_1   0.866107 0.668350 0.666928 -0.195974
C19   C     C_1   0.352922 0.331325 0.332754 -0.193973
C20   C     C_1   0.375694 0.280100 0.280638 0.009211
C21   C     C_1   0.406764 0.220043 0.219266 0.008621
C22   C     C_1   0.429532 0.168798 0.167163 -0.195480
H4    H     H_    0.688994 0.292663 0.706659 0.112433
C23   C     C_R   0.571863 0.231417 0.769911 -0.153251
H5    H     H_    0.712592 0.217443 0.784820 0.111654
C24   C     C_R   0.404950 0.206847 0.794965 0.135793
C25   C     C_R   0.224397 0.225784 0.774678 -0.152557
H6    H     H_    0.093797 0.207391 0.793327 0.112479
C26   C     C_R   0.210930 0.268638 0.730076 -0.153364
H7    H     H_    0.070200 0.282610 0.715167 0.111613
C27   C     C_R   0.377841 0.293207 0.705022 0.135788
C28   C     C_R   0.558395 0.274270 0.725309 -0.152683
C29   C     C_1   0.418574 0.162121 0.841009 -0.056078
C30   C     C_1   0.364206 0.337929 0.658974 -0.056260
C31   C     C_1   0.354152 0.375568 0.620789 -0.186978
C32   C     C_1   0.428585 0.124478 0.879192 -0.186308
O11   O     O_R   0.282550 0.076220 0.077760 -0.533063
O12   O     O_R   0.606940 0.064510 0.944450 -0.537242
O13   O     O_R   0.770980 0.923830 0.922210 -0.532962
C33   C     C_R   0.438129 0.078887 0.924328 0.727374
O14   O     O_R   0.612630 0.084760 0.078660 -0.534910
O15   O     O_R   0.776710 0.944230 0.057380 -0.534535
C34   C     C_R   0.443743 0.106430 0.104668 0.719793
O16   O     O_R   0.276820 0.055820 0.942590 -0.534332
O17   O     O_3   0.441200 0.953910 0.992830 -0.366358
V3    V     V_3+5 0.718480 0.008550 0.001330 1.431217
O18   O     O_R   0.106020 0.935440 0.055580 -0.536927
C35   C     C_R   0.937178 0.921105 0.075653 0.726050
O19   O     O_R   0.100330 0.915180 0.921370 -0.536328
C36   C     C_R   0.930386 0.893720 0.895424 0.721336
V4    V     V_3+5 0.217720 0.991360 0.998720 1.432124
O20   O     O_3   0.945130 0.046090 0.007170 -0.366215
N1    N     N_2   0.161831 0.634201 0.237772 -0.523471
H8    H     H_    0.218011 0.612447 0.189962 0.253918
C37   C     C_3   0.303080 0.643911 0.291569 -0.518823
H9    H     H_    0.449701 0.648052 0.271825 0.191384
H10   H     H_    0.297303 0.595222 0.310708 0.207886
H11   H     H_    0.277423 0.694635 0.334544 0.189964

loop_
_geom_bond_atom_site_label_1
_geom_bond_atom_site_label_2
_ccdc_geom_bond_type
C14   C35   S    
C33   O16   A    
C24   C25   A    
C6    C7    A    
C9    C12   S    
C1    O6    A    
C23   C24   A    
O13   C36   A    
C27   C30   S    
C21   C22   T    
O16   V4    S    
O5    C3    A    
C15   C16   T    
V2    O10   S    
C19   C20   T    
C6    C11   S    
O8    V2    S    
C29   C32   T    
C20   C21   S    
N1    H8    S    
C37   H9    S    
O1    V2    S    
O7    V1    S    
C22   C34   S    
V4    O20   S    
O17   V4    S    
O9    C4    A    
C10   N1    S    
C25   C26   A    
C26   C27   A    
O15   C35   A    
O12   C33   A    
C1    C19   S    
O18   V4    S    
C9    C10   A    
C23   H5    S    
O4    C2    A    
O17   V3    S    
O19   V4    S    
O2    C1    A    
O18   C35   A    
V3    O20   S    
C16   C17   S    
C37   H11   S    
C5    H1    S    
H4    C28   S    
O3    C4    A    
O11   C34   A    
C7    C8    A    
O6    V2    S    
O9    V2    S    
C8    C9    A    
C25   H6    S    
O12   V3    S    
O2    V1    S    
O11   V4    S    
C26   H7    S    
C23   C28   A    
C27   C28   A    
O1    C2    A    
C8    H3    S    
C2    C31   S    
O5    V1    S    
O8    C3    A    
O15   V3    S    
O13   V3    S    
C5    C10   A    
C17   C18   T    
O7    V2    S    
O4    V1    S    
O3    V1    S    
V1    O10   S    
O19   C36   A    
C5    C6    A    
C24   C29   S    
O14   C34   A    
C32   C33   S    
C15   C36   S    
C7    H2    S    
C11   C14   T    
N1    C37   S    
C30   C31   T    
C12   C13   T    
O14   V3    S    
C37   H10   S    
C4    C13   S    
C3    C18   S    
