data_mof_unit_60620.cif
_audit_creation_date              2013-03-05T16:19:52-0500
_audit_creation_method            fapswitch 2.2
_symmetry_space_group_name_H-M    P1
_symmetry_Int_Tables_number       1
_space_group_crystal_system       triclinic
_cell_length_a                    30.2042
_cell_length_b                    30.577862
_cell_length_c                    21.611307
_cell_angle_alpha                 90.000841
_cell_angle_beta                  134.350379
_cell_angle_gamma                 90.0
_cell_volume                      14272.7979781

loop_
_atom_site_label
_atom_site_type_symbol
_atom_site_description
_atom_site_fract_x
_atom_site_fract_y
_atom_site_fract_z
_atom_type_partial_charge
O1    O     O_R   0.321150 0.768980 0.142380 -0.569670
O2    O     O_R   0.678850 0.768980 0.857620 -0.569606
O3    O     O_R   0.821150 0.268980 0.142380 -0.569676
O4    O     O_R   0.178850 0.268980 0.857620 -0.569599
O5    O     O_R   0.268980 0.821170 0.038000 -0.593364
O6    O     O_R   0.731020 0.821170 0.962000 -0.593422
O7    O     O_R   0.768980 0.321170 0.038000 -0.593358
O8    O     O_R   0.231020 0.321170 0.962000 -0.593430
C1    C     C_R   0.309494 0.809655 0.118441 0.829549
C2    C     C_R   0.690513 0.809657 0.881559 0.829449
C3    C     C_R   0.809495 0.309655 0.118441 0.829561
C4    C     C_R   0.190514 0.309657 0.881559 0.829436
O9    O     O_R   0.340930 0.723870 0.052190 -0.590645
O10   O     O_R   0.659070 0.723870 0.947810 -0.590672
O11   O     O_R   0.840930 0.223870 0.052190 -0.590646
O12   O     O_R   0.159070 0.223870 0.947810 -0.590671
O13   O     O_R   0.288760 0.776060 0.947810 -0.588229
O14   O     O_R   0.711240 0.776060 0.052190 -0.588257
O15   O     O_R   0.788760 0.276060 0.947810 -0.588234
O16   O     O_R   0.211240 0.276060 0.052190 -0.588251
C5    C     C_R   0.335625 0.749940 0.999982 0.796291
C6    C     C_R   0.664373 0.749941 0.000017 0.796349
C7    C     C_R   0.835625 0.249940 0.999982 0.796293
C8    C     C_R   0.164374 0.249941 0.000017 0.796347
Cu1   Cu    Cu3+1 0.280880 0.719080 0.061820 0.999698
Cu2   Cu    Cu3+1 0.719120 0.719080 0.938180 0.999676
Cu3   Cu    Cu3+1 0.780880 0.219080 0.061820 0.999678
Cu4   Cu    Cu3+1 0.219120 0.219080 0.938180 0.999692
Cu5   Cu    Cu3+1 0.219090 0.780890 0.938220 0.953992
Cu6   Cu    Cu3+1 0.780910 0.780890 0.061780 0.953929
Cu7   Cu    Cu3+1 0.719090 0.280890 0.938220 0.953987
Cu8   Cu    Cu3+1 0.280910 0.280890 0.061780 0.953932
O17   O     O_R   0.230990 0.678800 0.962040 -0.588504
O18   O     O_R   0.769010 0.678800 0.037960 -0.588560
O19   O     O_R   0.730990 0.178800 0.962040 -0.588512
O20   O     O_R   0.269010 0.178800 0.037960 -0.588554
O21   O     O_R   0.178820 0.731000 0.857660 -0.596239
O22   O     O_R   0.821180 0.731000 0.142340 -0.596331
O23   O     O_R   0.678820 0.231000 0.857660 -0.596253
O24   O     O_R   0.321180 0.231000 0.142340 -0.596323
O25   O     O_R   0.211210 0.723910 0.052230 -0.540542
O26   O     O_R   0.788790 0.723910 0.947770 -0.540475
O27   O     O_R   0.711210 0.223910 0.052230 -0.540554
O28   O     O_R   0.288790 0.223910 0.947770 -0.540464
O29   O     O_R   0.159040 0.776100 0.947850 -0.593916
O30   O     O_R   0.840960 0.776100 0.052150 -0.593901
O31   O     O_R   0.659040 0.276100 0.947850 -0.593904
O32   O     O_R   0.340960 0.276100 0.052150 -0.593911
C9    C     C_R   0.190516 0.690485 0.881353 0.790719
C10   C     C_R   0.809479 0.690483 0.118652 0.790785
C11   C     C_R   0.690516 0.190485 0.881353 0.790723
C12   C     C_R   0.309480 0.190483 0.118652 0.790784
C13   C     C_R   0.164929 0.750521 0.001080 0.874972
C14   C     C_R   0.835065 0.750526 0.998907 0.874976
C15   C     C_R   0.664928 0.250520 0.001079 0.874982
C16   C     C_R   0.335065 0.250526 0.998906 0.874966
C17   C     C_R   0.594330 0.789642 0.002928 -0.240513
C18   C     C_R   0.405713 0.789643 0.997163 -0.240512
C19   C     C_R   0.094327 0.289642 0.002922 -0.240511
C20   C     C_R   0.905710 0.289643 0.997157 -0.240514
C21   C     C_R   0.615983 0.749915 0.000005 -0.053585
C22   C     C_R   0.384014 0.749914 0.999992 -0.053501
C23   C     C_R   0.115983 0.249915 0.000005 -0.053582
C24   C     C_R   0.884014 0.249914 0.999992 -0.053505
C25   C     C_R   0.591417 0.710175 0.997078 -0.239659
C26   C     C_R   0.408529 0.710173 0.002819 -0.239688
C27   C     C_R   0.091420 0.210175 0.997086 -0.239662
C28   C     C_R   0.908533 0.210173 0.002826 -0.239684
C29   C     C_R   0.545851 0.709856 0.998568 0.109613
C30   C     C_R   0.454094 0.709855 0.001325 0.109637
C31   C     C_R   0.045854 0.209856 0.998576 0.109616
C32   C     C_R   0.954097 0.209855 0.001333 0.109634
C33   C     C_R   0.523291 0.749902 0.999997 0.060780
C34   C     C_R   0.476702 0.749902 0.999995 0.060774
C35   C     C_R   0.023292 0.249902 0.999998 0.060780
C36   C     C_R   0.976703 0.249902 0.999995 0.060774
C37   C     C_R   0.547277 0.789950 0.001431 0.109512
C38   C     C_R   0.452767 0.789951 0.998660 0.109522
C39   C     C_R   0.047273 0.289951 0.001424 0.109511
C40   C     C_R   0.952764 0.289951 0.998654 0.109523
C41   C     C_R   0.522565 0.670260 0.998885 -0.206910
C42   C     C_R   0.477329 0.670259 0.000909 -0.206953
C43   C     C_R   0.022572 0.170260 0.998900 -0.206914
C44   C     C_R   0.977337 0.170259 0.000924 -0.206945
C45   C     C_R   0.476416 0.829546 0.999076 -0.206175
C46   C     C_R   0.523676 0.829546 0.001111 -0.206177
C47   C     C_R   0.976409 0.329547 0.999063 -0.206177
C48   C     C_R   0.023670 0.329546 0.001098 -0.206174
H1    H     H_    0.613265 0.820246 0.004517 0.142108
H2    H     H_    0.386815 0.820248 0.995649 0.142043
H3    H     H_    0.113260 0.320246 0.004506 0.142110
H4    H     H_    0.886810 0.320248 0.995638 0.142043
H5    H     H_    0.608777 0.679577 0.995496 0.141425
H6    H     H_    0.391131 0.679574 0.004326 0.141313
H7    H     H_    0.108783 0.179577 0.995508 0.141417
H8    H     H_    0.891138 0.179575 0.004339 0.141325
H9    H     H_    0.539601 0.639296 0.998069 0.144692
H10   H     H_    0.460255 0.639295 0.001649 0.144660
H11   H     H_    0.039611 0.139296 0.998089 0.144691
H12   H     H_    0.960265 0.139295 0.001669 0.144664
H13   H     H_    0.458600 0.860511 0.998330 0.146191
H14   H     H_    0.541530 0.860510 0.001934 0.146205
H15   H     H_    0.958591 0.360511 0.998312 0.146190
H16   H     H_    0.041521 0.360510 0.001916 0.146207
C49   C     C_R   0.353633 0.838579 0.258748 0.202051
C50   C     C_R   0.646221 0.838525 0.741133 0.201971
C51   C     C_R   0.853617 0.338585 0.258734 0.202052
C52   C     C_R   0.146201 0.338518 0.741116 0.201970
C53   C     C_R   0.340465 0.844040 0.183203 -0.100110
C54   C     C_R   0.659566 0.844047 0.816803 -0.100337
C55   C     C_R   0.840469 0.344039 0.183203 -0.100088
C56   C     C_R   0.159571 0.344048 0.816804 -0.100370
C57   C     C_R   0.354007 0.884490 0.168340 -0.229579
C58   C     C_R   0.646223 0.884560 0.831782 -0.228758
C59   C     C_R   0.854032 0.384483 0.168353 -0.229659
C60   C     C_R   0.146256 0.384570 0.831800 -0.228634
H17   H     H_    0.341754 0.890516 0.108522 0.160986
H18   H     H_    0.658626 0.890639 0.891695 0.161116
H19   H     H_    0.841794 0.390504 0.108545 0.160968
H20   H     H_    0.158680 0.390656 0.891726 0.161134
C61   C     C_R   0.387236 0.916409 0.233395 -0.220427
C62   C     C_R   0.612994 0.916481 0.766732 -0.220982
C63   C     C_R   0.887260 0.416401 0.233408 -0.220352
C64   C     C_R   0.113028 0.416491 0.766750 -0.221063
H21   H     H_    0.399701 0.946698 0.222763 0.144063
H22   H     H_    0.600687 0.946822 0.777465 0.143976
H23   H     H_    0.899741 0.446685 0.222787 0.144069
H24   H     H_    0.100743 0.446840 0.777497 0.143965
C65   C     C_R   0.405295 0.908525 0.312387 -0.066665
C66   C     C_R   0.594711 0.908525 0.687606 -0.067002
C67   C     C_R   0.905295 0.408525 0.312385 -0.066631
C68   C     C_R   0.094712 0.408525 0.687605 -0.067057
C69   C     C_R   0.384915 0.870602 0.321945 0.122615
C70   C     C_R   0.614924 0.870541 0.677926 0.122546
C71   C     C_R   0.884896 0.370609 0.321930 0.122622
C72   C     C_R   0.114902 0.370533 0.677909 0.122535
C73   C     C_3   0.422438 0.837468 0.392614 -0.551630
C74   C     C_3   0.577257 0.837403 0.607278 -0.551551
C75   C     C_3   0.922403 0.337475 0.392601 -0.551636
C76   C     C_3   0.077216 0.337395 0.607264 -0.551537
C77   C     C_3   0.387530 0.802412 0.323403 -0.388354
C78   C     C_3   0.612186 0.802354 0.676502 -0.388469
C79   C     C_3   0.887498 0.302419 0.323392 -0.388342
C80   C     C_3   0.112148 0.302346 0.676489 -0.388486
H25   H     H_    0.472024 0.839006 0.427783 0.200981
H26   H     H_    0.527703 0.839000 0.572253 0.201060
H27   H     H_    0.971993 0.339007 0.427787 0.200972
H28   H     H_    0.027666 0.339000 0.572258 0.201070
H29   H     H_    0.412649 0.837508 0.433543 0.215381
H30   H     H_    0.586930 0.837379 0.566213 0.215279
H31   H     H_    0.912600 0.337523 0.433515 0.215391
H32   H     H_    0.086873 0.337362 0.566180 0.215265
H33   H     H_    0.417414 0.783316 0.320559 0.197640
H34   H     H_    0.582346 0.783318 0.679500 0.197634
H35   H     H_    0.917387 0.283316 0.320566 0.197642
H36   H     H_    0.082313 0.283319 0.679507 0.197632
H37   H     H_    0.356803 0.782509 0.323499 0.250256
H38   H     H_    0.642817 0.782394 0.676285 0.249995
H39   H     H_    0.856759 0.282522 0.323474 0.250285
H40   H     H_    0.142765 0.282379 0.676256 0.249960
C81   C     C_R   0.866324 0.750347 0.918045 0.300713
C82   C     C_R   0.133660 0.750395 0.081926 0.300844
C83   C     C_R   0.366322 0.250343 0.918041 0.300696
C84   C     C_R   0.633658 0.250399 0.081922 0.300858
C85   C     C_R   0.882534 0.751382 0.997136 -0.170116
C86   C     C_R   0.117453 0.751372 0.002836 -0.170022
C87   C     C_R   0.382532 0.251384 0.997132 -0.170114
C88   C     C_R   0.617451 0.251371 0.002833 -0.170025
C89   C     C_R   0.944659 0.752389 0.075855 -0.300728
C90   C     C_R   0.055328 0.752323 0.924112 -0.300779
C91   C     C_R   0.444657 0.252395 0.075851 -0.300726
C92   C     C_R   0.555326 0.252317 0.924108 -0.300781
C93   C     C_R   0.991549 0.751598 0.077454 0.120961
C94   C     C_R   0.008437 0.751535 0.922513 0.121003
C95   C     C_R   0.491546 0.251603 0.077449 0.120961
C96   C     C_R   0.508435 0.251530 0.922509 0.121002
C97   C     C_R   0.976191 0.750661 0.999036 0.038775
C98   C     C_R   0.023795 0.750657 0.000933 0.038748
C99   C     C_R   0.476189 0.250661 0.999032 0.038778
C100  C     C_R   0.523793 0.250657 0.000929 0.038745
C101  C     C_R   0.913387 0.750397 0.918821 -0.009318
C102  C     C_R   0.086598 0.750447 0.081148 -0.009331
C103  C     C_R   0.413385 0.250393 0.918817 -0.009317
C104  C     C_R   0.586596 0.250451 0.081144 -0.009332
C105  C     C_R   0.053632 0.752006 0.156520 -0.206715
C106  C     C_R   0.946353 0.751892 0.843446 -0.206718
C107  C     C_R   0.553630 0.252015 0.156516 -0.206718
C108  C     C_R   0.446351 0.251884 0.843442 -0.206716
C109  C     C_R   0.100689 0.751434 0.158480 -0.146168
C110  C     C_R   0.899296 0.751326 0.841488 -0.146182
C111  C     C_R   0.600687 0.251442 0.158475 -0.146169
C112  C     C_R   0.399294 0.251318 0.841484 -0.146182
H41   H     H_    0.956437 0.752959 0.136168 0.163182
H42   H     H_    0.043552 0.752850 0.863800 0.163060
H43   H     H_    0.456436 0.252968 0.136164 0.163181
H44   H     H_    0.543550 0.252841 0.863796 0.163065
H45   H     H_    0.065871 0.752902 0.217099 0.147198
H46   H     H_    0.934113 0.752743 0.782865 0.147166
H47   H     H_    0.565868 0.252914 0.217095 0.147195
H48   H     H_    0.434111 0.252732 0.782860 0.147171
H49   H     H_    0.148019 0.752281 0.221024 0.196794
H50   H     H_    0.851965 0.752132 0.778941 0.196792
H51   H     H_    0.648017 0.252291 0.221020 0.196793
H52   H     H_    0.351963 0.252122 0.778937 0.196793
C113  C     C_R   0.174765 0.613814 0.831686 0.070341
C114  C     C_R   0.825713 0.613710 0.168115 0.070560
C115  C     C_R   0.674706 0.113802 0.831711 0.070369
C116  C     C_R   0.325676 0.113717 0.168130 0.070545
C117  C     C_R   0.156481 0.657367 0.814228 -0.079925
C118  C     C_R   0.843496 0.657366 0.185791 -0.080327
C119  C     C_R   0.656483 0.157367 0.814225 -0.079973
C120  C     C_R   0.343498 0.157366 0.185790 -0.080297
C121  C     C_R   0.103070 0.668374 0.727320 -0.196285
C122  C     C_R   0.896389 0.668470 0.272923 -0.196134
C123  C     C_R   0.603135 0.168386 0.727289 -0.196270
C124  C     C_R   0.396432 0.168462 0.272905 -0.196145
H53   H     H_    0.086146 0.701694 0.709407 0.165114
H54   H     H_    0.912913 0.701875 0.291045 0.165409
H55   H     H_    0.586258 0.201716 0.709351 0.165150
H56   H     H_    0.412987 0.201862 0.291011 0.165386
C125  C     C_R   0.070583 0.635982 0.662496 -0.210492
C126  C     C_R   0.928862 0.636074 0.337732 -0.210507
C127  C     C_R   0.570650 0.135994 0.662467 -0.210491
C128  C     C_R   0.428906 0.136068 0.337715 -0.210502
H57   H     H_    0.029681 0.644889 0.596388 0.137345
H58   H     H_    0.969348 0.645062 0.404019 0.137075
H59   H     H_    0.529797 0.144911 0.596337 0.137305
H60   H     H_    0.469425 0.145049 0.403988 0.137089
C129  C     C_R   0.091597 0.592460 0.683686 -0.071714
C130  C     C_R   0.908383 0.592438 0.316290 -0.071305
C131  C     C_R   0.591599 0.092458 0.683689 -0.071663
C132  C     C_R   0.408384 0.092440 0.316292 -0.071337
C133  C     C_R   0.143927 0.582963 0.769115 0.050543
C134  C     C_R   0.856562 0.582838 0.230646 0.049850
C135  C     C_R   0.643868 0.082948 0.769145 0.050459
C136  C     C_R   0.356523 0.082848 0.230664 0.049914
C137  C     C_3   0.185612 0.546873 0.829843 0.045253
C138  C     C_3   0.815434 0.546651 0.169650 0.044760
C139  C     C_3   0.685485 0.046845 0.829906 0.045186
C140  C     C_3   0.315351 0.046668 0.169688 0.044793
C141  C     C_3   0.221655 0.582220 0.901495 -0.488074
C142  C     C_3   0.779403 0.582014 0.098038 -0.487050
C143  C     C_3   0.721525 0.082195 0.901554 -0.487955
C144  C     C_3   0.279322 0.082030 0.098072 -0.487139
H61   H     H_    0.161478 0.522069 0.835218 0.136872
H62   H     H_    0.840086 0.522121 0.164751 0.136940
H63   H     H_    0.661286 0.022075 0.835221 0.136880
H64   H     H_    0.339964 0.022115 0.164755 0.136937
H65   H     H_    0.218490 0.578112 0.949395 0.189526
H66   H     H_    0.783134 0.578212 0.050680 0.189320
H67   H     H_    0.718288 0.078124 0.949385 0.189500
H68   H     H_    0.283012 0.078203 0.050675 0.189338
H69   H     H_    0.268866 0.589227 0.929638 0.196415
H70   H     H_    0.731941 0.588679 0.069243 0.196680
H71   H     H_    0.768768 0.089160 0.929780 0.196449
H72   H     H_    0.231878 0.088722 0.069324 0.196661
O33   O     O_R   0.992480 0.545070 0.409820 -0.590630
O34   O     O_R   0.007520 0.545070 0.590180 -0.590654
O35   O     O_R   0.492480 0.045070 0.409820 -0.590632
O36   O     O_R   0.507520 0.045070 0.590180 -0.590651
O37   O     O_R   0.917370 0.545120 0.409780 -0.573556
O38   O     O_R   0.082630 0.545120 0.590220 -0.573099
O39   O     O_R   0.417370 0.045120 0.409780 -0.573515
O40   O     O_R   0.582630 0.045120 0.590220 -0.573151
C145  C     C_R   0.940612 0.558992 0.381110 0.800250
C146  C     C_R   0.059372 0.559011 0.618861 0.800024
C147  C     C_R   0.440613 0.058994 0.381112 0.800232
C148  C     C_R   0.559374 0.059009 0.618864 0.800053
O41   O     O_R   0.492430 0.954900 0.409810 -0.589668
O42   O     O_R   0.507570 0.954900 0.590190 -0.589527
O43   O     O_R   0.992430 0.454900 0.409810 -0.589681
O44   O     O_R   0.007570 0.454900 0.590190 -0.589506
O45   O     O_R   0.417320 0.954950 0.409780 -0.572452
O46   O     O_R   0.582680 0.954950 0.590220 -0.572415
O47   O     O_R   0.917320 0.454950 0.409780 -0.572457
O48   O     O_R   0.082680 0.454950 0.590220 -0.572410
C149  C     C_R   0.440392 0.940743 0.380979 0.800184
C150  C     C_R   0.559608 0.940742 0.619018 0.799956
C151  C     C_R   0.940391 0.440743 0.380979 0.800206
C152  C     C_R   0.059609 0.440742 0.619018 0.799924
Cu9   Cu    Cu3+1 0.544430 0.999980 0.499990 0.972038
Cu10  Cu    Cu3+1 0.455570 0.999980 0.500010 0.971880
Cu11  Cu    Cu3+1 0.044430 0.499980 0.499990 0.972062
Cu12  Cu    Cu3+1 0.955570 0.499980 0.500010 0.971859
N1    N     N_R   0.802394 0.751256 0.837612 0.111143
O49   O     O_R   0.778022 0.718114 0.784962 -0.368650
O50   O     O_R   0.767727 0.784280 0.819139 -0.404285
N2    N     N_R   0.197588 0.751380 0.162352 0.111059
O51   O     O_R   0.222030 0.718279 0.215105 -0.368732
O52   O     O_R   0.232178 0.784436 0.180724 -0.404540
N3    N     N_R   0.302391 0.251244 0.837608 0.111153
O53   O     O_R   0.278028 0.218099 0.784965 -0.368637
O54   O     O_R   0.267715 0.284263 0.819127 -0.404253
N4    N     N_R   0.697585 0.251390 0.162347 0.111049
O55   O     O_R   0.722035 0.218293 0.215109 -0.368745
O56   O     O_R   0.732167 0.284452 0.180713 -0.404568
N5    N     N_2   0.220044 0.528634 0.811895 -0.396871
H73   H     H_    0.240927 0.551312 0.803704 0.267021
C153  C     C_3   0.259665 0.492216 0.866327 -0.653750
H74   H     H_    0.280528 0.478581 0.843905 0.230274
H75   H     H_    0.232416 0.465950 0.862502 0.239893
H76   H     H_    0.297369 0.503171 0.934521 0.221444
N6    N     N_2   0.780658 0.527960 0.186706 -0.397391
H77   H     H_    0.759559 0.550388 0.194924 0.267157
C154  C     C_3   0.741141 0.491681 0.131480 -0.653870
H78   H     H_    0.720216 0.477555 0.153491 0.230625
H79   H     H_    0.768468 0.465695 0.134848 0.239911
H80   H     H_    0.703484 0.502948 0.063500 0.221341
N7    N     N_2   0.719962 0.028552 0.812072 -0.396933
H81   H     H_    0.740874 0.051200 0.803882 0.267037
C155  C     C_3   0.759570 0.992150 0.866602 -0.653755
H82   H     H_    0.780450 0.978458 0.844241 0.230313
H83   H     H_    0.732308 0.965915 0.862821 0.239896
H84   H     H_    0.797262 0.003143 0.934773 0.221432
N8    N     N_2   0.280598 0.028014 0.186810 -0.397346
H85   H     H_    0.259510 0.050462 0.195013 0.267146
C156  C     C_3   0.241078 0.991721 0.131649 -0.653876
H86   H     H_    0.220135 0.977645 0.153667 0.230588
H87   H     H_    0.268410 0.965706 0.135091 0.239925
H88   H     H_    0.203433 0.002956 0.063644 0.221358

loop_
_geom_bond_atom_site_label_1
_geom_bond_atom_site_label_2
_geom_bond_distance
_ccdc_geom_bond_type
C27   H7    1.084695 S    
C69   C73   1.491169 S    
N3    O53   1.300968 A    
C52   C80   1.491141 S    
C72   C76   1.491181 S    
C73   H29   1.111523 S    
N6    C154  1.444999 S    
C138  N6    1.451599 S    
C71   C75   1.491170 S    
C76   H32   1.111524 S    
Cu5   O21   1.969030 S    
C125  H57   1.083478 S    
C140  C144  1.547306 S    
C143  H71   1.112045 S    
Cu6   O22   1.969070 S    
C133  C137  1.488399 S    
C122  C126  1.408686 A    
O33   C145  1.289015 A    
O48   C152  1.291522 A    
C30   C34   1.412133 A    
C80   H40   1.111081 S    
C116  C136  1.350966 A    
O5    Cu5   1.973485 S    
O43   C151  1.294957 A    
C131  C148  1.431684 S    
O40   Cu9   1.973134 S    
C42   H10   1.083591 S    
O41   Cu9   1.971192 S    
C66   C70   1.394292 A    
C111  H51   1.081581 S    
C15   C88   1.460986 S    
C78   H38   1.111078 S    
C128  H60   1.083470 S    
C50   C78   1.491144 S    
Cu1   Cu5   2.687146 S    
O18   C10   1.297160 A    
C83   C103  1.409815 A    
C44   H12   1.083595 S    
C76   C80   1.514326 S    
Cu4   Cu8   2.687089 S    
C141  H65   1.111258 S    
C91   H43   1.085138 S    
Cu1   O25   1.970587 S    
C87   C91   1.397525 A    
Cu3   O19   1.973485 S    
Cu4   O28   1.970585 S    
O13   C5    1.296744 A    
Cu5   O29   1.970342 S    
C106  C110  1.392158 A    
C156  H88   1.111093 S    
O15   C7    1.296745 A    
C35   C36   1.407131 A    
C124  C128  1.408692 A    
O37   Cu12  1.973175 S    
C101  C110  1.407359 A    
O11   Cu3   1.970342 S    
N6    H77   1.032569 S    
C28   C32   1.399017 A    
C112  H52   1.081580 S    
C104  C111  1.407348 A    
C137  H61   1.112878 S    
O2    Cu2   1.969307 S    
C19   H3    1.084671 S    
O10   Cu2   1.970341 S    
C79   H39   1.111053 S    
C5    C22   1.461387 S    
C32   C44   1.402648 A    
C97   C98   1.409493 A    
C47   H15   1.083591 S    
C77   H37   1.111052 S    
C7    C24   1.461388 S    
O6    Cu6   1.973525 S    
C8    C23   1.461418 S    
O19   C11   1.297116 A    
C92   H44   1.085136 S    
C14   C85   1.461002 S    
C51   C79   1.491177 S    
C139  N7    1.451558 S    
C49   C69   1.383004 A    
C90   C94   1.392582 A    
C17   C21   1.401836 A    
C19   C23   1.401837 A    
C20   C24   1.401834 A    
N1    O50   1.300407 A    
C118  C122  1.416852 A    
C26   C30   1.399020 A    
C130  C134  1.382574 A    
C30   C42   1.402648 A    
O3    C3    1.297652 A    
C21   C25   1.401981 A    
C13   C86   1.460986 S    
C144  H72   1.112055 S    
C12   C120  1.449886 S    
C33   C37   1.412115 A    
C139  C143  1.547359 S    
C105  H45   1.083882 S    
C35   C39   1.412115 A    
O16   C8    1.296735 A    
C81   C85   1.411484 A    
C100  C104  1.416364 A    
O44   Cu12  1.971231 S    
O23   C11   1.291863 A    
C62   H22   1.083179 S    
C115  C135  1.350957 A    
C45   C46   1.397070 A    
C61   H21   1.083168 S    
C93   C105  1.398746 A    
O45   Cu10  1.970626 S    
C24   C28   1.401970 A    
N3    O54   1.300408 A    
C127  H59   1.083479 S    
C108  H48   1.083881 S    
C132  C136  1.382571 A    
C64   C68   1.402871 A    
O43   Cu11  1.971190 S    
C154  H79   1.110856 S    
C113  C117  1.389088 A    
O36   C148  1.289009 A    
O39   C147  1.290259 A    
O20   C12   1.297155 A    
O8    C4    1.292021 A    
C25   H5    1.084699 S    
O29   C13   1.296433 A    
O44   C152  1.294993 A    
C115  C119  1.389086 A    
N5    C153  1.444952 S    
C113  C141  1.492642 S    
C48   H16   1.083584 S    
C31   C43   1.402657 A    
N7    C155  1.444956 S    
C68   C152  1.447263 S    
C31   C35   1.412121 A    
C143  H67   1.111258 S    
C22   C26   1.401969 A    
O35   C147  1.289018 A    
C122  H54   1.082857 S    
C110  H50   1.081580 S    
C78   H34   1.112214 S    
C60   H20   1.083147 S    
N2    O52   1.300363 A    
C80   H36   1.112214 S    
O5    C1    1.292052 A    
C114  C118  1.389093 A    
C63   H23   1.083166 S    
C43   C44   1.397234 A    
C68   C72   1.394290 A    
O41   C149  1.294957 A    
O42   Cu10  1.971233 S    
O25   C13   1.295290 A    
C57   H17   1.083150 S    
C38   C45   1.402580 A    
O27   C15   1.295291 A    
Cu2   Cu6   2.687089 S    
C59   H19   1.083151 S    
C155  H83   1.110948 S    
C141  H69   1.112047 S    
C125  C129  1.406138 A    
C46   H14   1.083584 S    
C56   C60   1.408635 A    
Cu2   O26   1.970585 S    
O16   Cu8   1.970587 S    
C49   C53   1.394172 A    
C20   C40   1.398824 A    
C96   C108  1.398746 A    
O14   C6    1.296733 A    
C51   C55   1.394169 A    
Cu6   O30   1.970342 S    
C36   C40   1.412105 A    
C105  C109  1.392145 A    
C137  C141  1.547367 S    
C114  C134  1.350967 A    
O10   C6    1.296697 A    
O3    Cu3   1.969265 S    
C6    C21   1.461423 S    
C77   H33   1.112222 S    
C74   H26   1.109787 S    
C97   C101  1.416370 A    
C16   C87   1.461000 S    
C75   H31   1.111527 S    
C129  C133  1.382528 A    
C153  H76   1.111119 S    
C95   C107  1.398747 A    
C96   C100  1.410300 A    
C57   C61   1.401319 A    
C10   C118  1.449894 S    
Cu11  Cu12  2.684247 S    
O33   Cu11  1.971189 S    
C89   C93   1.392558 A    
C131  C135  1.382533 A    
C92   C96   1.392588 A    
Cu1   O17   1.973485 S    
O34   C146  1.289009 A    
C18   C22   1.401833 A    
C47   C48   1.397070 A    
O13   Cu5   1.970587 S    
C33   C34   1.407131 A    
C4    C56   1.452319 S    
O15   Cu7   1.970587 S    
C103  C112  1.407360 A    
C140  N8    1.451596 S    
C84   N4    1.434608 S    
C28   H8    1.084693 S    
O39   Cu10  1.973175 S    
C17   H1    1.084671 S    
C73   H25   1.109744 S    
N4    O55   1.300977 A    
O17   C9    1.297105 A    
C139  H63   1.112872 S    
C134  C138  1.488543 S    
C156  H87   1.110847 S    
C51   C71   1.383008 A    
C82   C86   1.411445 A    
C121  C125  1.408733 A    
C137  N5    1.451552 S    
C29   C33   1.412123 A    
O4    C4    1.297702 A    
C94   C98   1.410303 A    
C67   C151  1.447294 S    
C64   H24   1.083178 S    
N8    H85   1.032567 S    
Cu7   O31   1.970342 S    
C85   C89   1.397526 A    
Cu8   O32   1.970342 S    
O46   Cu9   1.970666 S    
C39   C48   1.402572 A    
C127  C131  1.406133 A    
C1    C53   1.452213 S    
C3    C55   1.452206 S    
C142  H66   1.111272 S    
C17   C37   1.398819 A    
C59   C63   1.401319 A    
C74   C78   1.514317 S    
C19   C39   1.398821 A    
C90   H42   1.085137 S    
Cu3   Cu7   2.687146 S    
O45   C149  1.291570 A    
C52   C56   1.394166 A    
C107  H47   1.083882 S    
C43   H11   1.083600 S    
O47   C151  1.291574 A    
C153  H74   1.110245 S    
O37   C145  1.290256 A    
N1    O49   1.300965 A    
C123  H55   1.082848 S    
O21   C9    1.291866 A    
O28   C16   1.295257 A    
C50   C70   1.382967 A    
O36   Cu10  1.971151 S    
C84   C88   1.411437 A    
O30   C14   1.296440 A    
O1    C1    1.297655 A    
C18   H2    1.084678 S    
C73   C77   1.514277 S    
C60   C64   1.401347 A    
C63   C67   1.402875 A    
C135  C139  1.488421 S    
C116  C144  1.492555 S    
O35   Cu9   1.971189 S    
C61   C65   1.402872 A    
O6    C2    1.292023 A    
C89   H41   1.085140 S    
C82   C102  1.409779 A    
C132  C147  1.431584 S    
C108  C112  1.392157 A    
C79   H35   1.112217 S    
O42   C150  1.294991 A    
O26   C14   1.295260 A    
C25   C29   1.399019 A    
C2    C54   1.452310 S    
C27   C31   1.399021 A    
C117  C121  1.416785 A    
C29   C41   1.402656 A    
C18   C38   1.398822 A    
C99   C100  1.409495 A    
Cu3   O27   1.970587 S    
C88   C92   1.397526 A    
Cu4   O20   1.973524 S    
C154  H78   1.110242 S    
C34   C38   1.412106 A    
C9    C117  1.449740 S    
C140  H64   1.112857 S    
C106  H46   1.083881 S    
C20   H4    1.084677 S    
C81   C101  1.409811 A    
C83   N3    1.434661 S    
O12   Cu4   1.970341 S    
C119  C123  1.416794 A    
C155  H82   1.110256 S    
N5    H73   1.032547 S    
C32   C36   1.412134 A    
C76   H28   1.109794 S    
C41   C42   1.397234 A    
N7    H81   1.032548 S    
C74   H30   1.111522 S    
O7    C3    1.292054 A    
C75   H27   1.109736 S    
C52   C72   1.382960 A    
C40   C47   1.402583 A    
C67   C71   1.394290 A    
C128  C132  1.406059 A    
C49   C77   1.491172 S    
C126  H58   1.083469 S    
Cu2   O18   1.973524 S    
O38   Cu11  1.973134 S    
C65   C149  1.447287 S    
O14   Cu6   1.970587 S    
C102  C109  1.407351 A    
C107  C111  1.392146 A    
C116  C120  1.389095 A    
C26   H6    1.084696 S    
O11   C7    1.296706 A    
C70   C74   1.491184 S    
O12   C8    1.296699 A    
O1    Cu1   1.969267 S    
O9    Cu1   1.970342 S    
C114  C142  1.492549 S    
C75   C79   1.514271 S    
O4    Cu4   1.969307 S    
C81   N1    1.434654 S    
C99   C103  1.416370 A    
C23   C27   1.401978 A    
N8    C156  1.444997 S    
O7    Cu7   1.973485 S    
O9    C5    1.296706 A    
O8    Cu8   1.973525 S    
C120  C124  1.416848 A    
C121  H53   1.082852 S    
C95   C99   1.410300 A    
C109  H49   1.081580 S    
Cu9   Cu10  2.684247 S    
O24   C12   1.291864 A    
C91   C95   1.392554 A    
C136  C140  1.488535 S    
C66   C150  1.447268 S    
C83   C87   1.411493 A    
C84   C104  1.409778 A    
C115  C143  1.492634 S    
C138  H62   1.112857 S    
C93   C97   1.410297 A    
O40   C148  1.290306 A    
C154  H80   1.111098 S    
C98   C102  1.416365 A    
O47   Cu12  1.970626 S    
C153  H75   1.110937 S    
C126  C130  1.406050 A    
C58   H18   1.083145 S    
C37   C46   1.402572 A    
C142  H70   1.112054 S    
C65   C69   1.394290 A    
O2    C2    1.297696 A    
C45   H13   1.083593 S    
O31   C15   1.296431 A    
C50   C54   1.394168 A    
O32   C16   1.296444 A    
C54   C58   1.408625 A    
C144  H68   1.111270 S    
O46   C150  1.291528 A    
C123  C127  1.408728 A    
O38   C146  1.290314 A    
O34   Cu12  1.971151 S    
C129  C146  1.431699 S    
O22   C10   1.291865 A    
O48   Cu11  1.970666 S    
C53   C57   1.408560 A    
C138  C142  1.547296 S    
N2    O51   1.300979 A    
C113  C133  1.350953 A    
C94   C106  1.398747 A    
N4    O56   1.300362 A    
C41   H9    1.083602 S    
C86   C90   1.397525 A    
Cu7   O23   1.969030 S    
Cu8   O24   1.969070 S    
C156  H86   1.110237 S    
C58   C62   1.401346 A    
C11   C119  1.449755 S    
C155  H84   1.111128 S    
C55   C59   1.408553 A    
C124  H56   1.082854 S    
C62   C66   1.402871 A    
C130  C145  1.431571 S    
C82   N2    1.434614 S    
