data_mof_unit_51792.cif
_audit_creation_date              2012-10-26T18:40:41-0400
_audit_creation_method            fapswitch 2.2
_symmetry_space_group_name_H-M    P1
_symmetry_Int_Tables_number       1
_space_group_crystal_system       triclinic
_cell_length_a                    15.079069
_cell_length_b                    13.92305
_cell_length_c                    11.694848
_cell_angle_alpha                 90.097032
_cell_angle_beta                  90.94411
_cell_angle_gamma                 90.275829
_cell_volume                      2454.9283166

loop_
_atom_site_label
_atom_site_type_symbol
_atom_type_description
_atom_site_fract_x
_atom_site_fract_y
_atom_site_fract_z
_atom_type_partial_charge
C1    C     C_R   0.330019 0.499763 0.498604 0.542945
C2    C     C_R   0.500209 0.500072 0.716014 0.544351
C3    C     C_R   0.562644 0.108159 0.562818 -0.150419
C4    C     C_R   0.453257 0.891478 0.415387 -0.146032
C5    C     C_R   0.434842 0.108133 0.438380 -0.146373
C6    C     C_R   0.541813 0.892675 0.586976 -0.149736
C7    C     C_1   0.499949 0.499778 0.162355 -0.051023
C8    C     C_1   0.500238 0.500208 0.837669 -0.010776
C9    C     C_1   0.500041 0.499909 0.059888 -0.065827
C10   C     C_1   0.500174 0.500137 0.940145 -0.047502
C11   C     C_R   0.562570 0.210091 0.562909 0.384968
C12   C     C_R   0.670111 0.500206 0.497650 0.540864
C13   C     C_R   0.453999 0.789536 0.416103 0.389175
C14   C     C_R   0.438590 0.209702 0.434778 0.383159
C15   C     C_R   0.545957 0.790822 0.583638 0.387363
C16   C     C_R   0.096576 0.567316 0.419137 0.254976
C17   C     C_R   0.902798 0.424850 0.430231 0.251707
C18   C     C_R   0.908432 0.577683 0.533253 0.250069
C19   C     C_R   0.093358 0.428626 0.546500 0.252491
C20   C     C_R   0.189031 0.569388 0.428883 -0.139489
C21   C     C_R   0.810415 0.423785 0.439191 -0.165179
C22   C     C_R   0.815538 0.578890 0.533522 -0.149631
C23   C     C_R   0.233595 0.499145 0.492777 -0.075905
C24   C     C_R   0.185868 0.427607 0.549271 -0.131743
C25   C     C_3   0.708508 0.234098 0.627624 -0.009454
C26   C     C_3   0.740432 0.191781 0.741047 -0.400083
C27   C     C_3   0.411100 0.764519 0.225481 -0.015227
C28   C     C_3   0.323855 0.803246 0.177411 -0.395702
C29   C     C_3   0.372022 0.236429 0.257415 -0.010676
C30   C     C_3   0.278644 0.204012 0.223589 -0.391244
C31   C     C_3   0.667756 0.778520 0.711637 -0.022536
C32   C     C_3   0.657083 0.816267 0.833113 -0.395409
C33   C     C_3   0.063821 0.614833 0.237357 -0.015860
C34   C     C_R   0.766728 0.500744 0.490552 -0.081072
C35   C     C_3   0.000436 0.675985 0.166367 -0.368687
C36   C     C_3   0.925463 0.346605 0.261171 -0.015149
C37   C     C_3   0.996404 0.290299 0.199352 -0.370505
C38   C     C_3   0.934275 0.672225 0.693167 -0.019386
C39   C     C_3   0.013476 0.715172 0.757517 -0.367109
C40   C     C_3   0.040280 0.388973 0.720820 -0.016396
C41   C     C_3   0.970570 0.328005 0.779435 -0.371527
C42   C     C_R   0.048697 0.498254 0.480620 0.099785
C43   C     C_R   0.951570 0.500815 0.479950 0.103835
C44   C     C_R   0.498424 0.054849 0.500482 -0.048518
C45   C     C_R   0.497987 0.945282 0.500641 -0.046763
C46   C     C_R   0.499867 0.499921 0.283992 0.532465
Cu1   Cu    Cu3+1 0.500000 0.596430 0.500000 1.051166
Cu2   Cu    Cu3+1 0.500000 0.403570 0.500000 1.043219
H1    H     H_    0.612937 0.071565 0.612205 0.097410
H2    H     H_    0.722652 0.183815 0.555916 0.103937
H3    H     H_    0.700710 0.127456 0.763419 0.139784
H4    H     H_    0.811127 0.170753 0.734785 0.105910
H5    H     H_    0.734258 0.246021 0.810182 0.156299
H6    H     H_    0.427993 0.699458 0.175563 0.161671
H7    H     H_    0.465798 0.817012 0.210602 0.096537
H8    H     H_    0.303547 0.868269 0.225090 0.144840
H9    H     H_    0.331577 0.822210 0.085917 0.103722
H10   H     H_    0.271039 0.747786 0.184425 0.152463
H11   H     H_    0.420392 0.180295 0.231564 0.093898
H12   H     H_    0.416783 0.927674 0.348392 0.096744
H13   H     H_    0.388050 0.301754 0.207316 0.160119
H14   H     H_    0.230376 0.261546 0.243132 0.164570
H15   H     H_    0.275302 0.188271 0.130501 0.096954
H16   H     H_    0.260474 0.138134 0.271307 0.147707
H17   H     H_    0.696930 0.834304 0.655104 0.099901
H18   H     H_    0.716964 0.719812 0.716481 0.132544
H19   H     H_    0.636900 0.756706 0.890326 0.161351
H20   H     H_    0.721188 0.846410 0.864974 0.094584
H21   H     H_    0.606004 0.873168 0.836153 0.141300
H22   H     H_    0.049275 0.537903 0.217487 0.115495
H23   H     H_    0.380798 0.072473 0.393769 0.108066
H24   H     H_    0.132790 0.632214 0.211757 0.120241
H25   H     H_    0.930848 0.659331 0.189306 0.156629
H26   H     H_    0.009262 0.660642 0.074037 0.080814
H27   H     H_    0.013953 0.753370 0.182381 0.165062
H28   H     H_    0.922514 0.419777 0.222427 0.110929
H29   H     H_    0.860600 0.309727 0.247257 0.127981
H30   H     H_    0.061827 0.326321 0.211061 0.146306
H31   H     H_    0.979900 0.286601 0.106546 0.084264
H32   H     H_    0.000411 0.216177 0.233931 0.168715
H33   H     H_    0.913029 0.606544 0.740255 0.103377
H34   H     H_    0.570704 0.930085 0.659096 0.100614
H35   H     H_    0.879730 0.725577 0.693129 0.123654
H36   H     H_    0.035488 0.782239 0.714973 0.173572
H37   H     H_    0.994855 0.732105 0.846774 0.084715
H38   H     H_    0.069084 0.663107 0.759204 0.147025
H39   H     H_    0.020091 0.465661 0.728744 0.119209
H40   H     H_    0.105162 0.378580 0.765741 0.124436
H41   H     H_    0.966051 0.349342 0.870692 0.082062
H42   H     H_    0.904908 0.338679 0.736984 0.152780
H43   H     H_    0.988590 0.250868 0.774636 0.163349
H44   H     H_    0.225962 0.624568 0.384664 0.164114
H45   H     H_    0.772866 0.363472 0.404911 0.125830
H46   H     H_    0.781604 0.639843 0.569021 0.126563
H47   H     H_    0.220155 0.372789 0.598317 0.147484
H48   H     H_    0.748823 0.299412 0.611851 0.164795
N1    N     N_R   0.500000 0.258690 0.500000 -0.204916
N2    N     N_R   0.500000 0.741310 0.500000 -0.202066
O1    O     O_R   0.371460 0.581430 0.500010 -0.472279
O2    O     O_3   0.400362 0.736937 0.341117 -0.524540
O3    O     O_3   0.374598 0.261140 0.375040 -0.516320
O4    O     O_3   0.586791 0.738353 0.670710 -0.516231
O5    O     O_3   0.052086 0.635424 0.354421 -0.522358
O6    O     O_3   0.947025 0.349548 0.379174 -0.526846
O7    O     O_3   0.958886 0.652442 0.579385 -0.525933
O8    O     O_3   0.046122 0.359895 0.605474 -0.524000
O9    O     O_R   0.628540 0.418570 0.499990 -0.481630
O10   O     O_R   0.628540 0.581430 0.499990 -0.488995
O11   O     O_R   0.371460 0.418570 0.500010 -0.456597
O12   O     O_R   0.500010 0.581440 0.337200 -0.473875
O13   O     O_R   0.499990 0.418560 0.662800 -0.466296
O14   O     O_R   0.499990 0.581440 0.662800 -0.448355
O15   O     O_R   0.500010 0.418560 0.337200 -0.493070
O16   O     O_3   0.618583 0.262330 0.635451 -0.517615

loop_
_geom_bond_atom_site_label_1
_geom_bond_atom_site_label_2
_ccdc_geom_bond_type
C31   H18   S    
C41   H41   S    
C35   H26   S    
C6    H34   S    
C6    C45   A    
C30   H16   S    
C38   H35   S    
C1    O1    A    
C28   H8    S    
C27   H6    S    
C28   H9    S    
Cu2   N1    S    
C37   H31   S    
C2    O14   A    
Cu1   N2    S    
C40   H39   S    
C36   C37   S    
C17   O6    S    
C39   H36   S    
C36   H29   S    
C38   C39   S    
C27   H7    S    
Cu2   O9    S    
Cu1   O14   S    
C13   N2    A    
Cu1   O1    S    
C7    C9    T    
C4    C13   A    
C11   O16   S    
C25   H2    S    
C36   H28   S    
C33   H24   S    
C1    O11   A    
C6    C15   A    
C29   H11   S    
Cu1   Cu2   S    
C23   C24   A    
C9    C10   S    
C19   C42   A    
C32   H20   S    
C41   H42   S    
C18   C22   A    
C30   H15   S    
C22   H46   S    
C4    C45   A    
C3    H1    S    
C22   C34   A    
C37   H32   S    
C29   H13   S    
C2    O13   A    
C7    C46   S    
C24   H47   S    
C12   O10   A    
C14   O3    S    
C21   C34   A    
C25   C26   S    
C17   C21   A    
C27   O2    S    
C17   C43   A    
C29   C30   S    
C26   H4    S    
C20   H44   S    
C16   O5    S    
C31   C32   S    
C20   C23   A    
C16   C20   A    
C35   H27   S    
C4    H12   S    
C29   O3    S    
C5    C14   A    
C33   H22   S    
C32   H19   S    
C40   C41   S    
C41   H43   S    
C5    C44   A    
C1    C23   S    
C3    C44   A    
C30   H14   S    
C38   H33   S    
C42   C43   S    
C39   H37   S    
C15   N2    A    
C12   C34   S    
C26   H5    S    
C16   C42   A    
C44   C45   S    
C14   N1    A    
C40   O8    S    
C31   H17   S    
C35   H25   S    
C46   O15   A    
C33   O5    S    
C2    C8    S    
C12   O9    A    
C32   H21   S    
C31   O4    S    
C28   H10   S    
Cu1   O12   S    
C37   H30   S    
C11   N1    A    
C36   O6    S    
C40   H40   S    
C38   O7    S    
C46   O12   A    
C19   C24   A    
C18   O7    S    
C5    H23   S    
C26   H3    S    
C21   H45   S    
C13   O2    S    
C33   C35   S    
Cu2   O11   S    
C15   O4    S    
C3    C11   A    
C19   O8    S    
Cu2   O13   S    
C25   H48   S    
C8    C10   T    
Cu1   O10   S    
C18   C43   A    
C27   C28   S    
C39   H38   S    
C25   O16   S    
Cu2   O15   S    
