data_mof_unit_38161.cif
_audit_creation_date              2012-12-11T15:17:32-0500
_audit_creation_method            fapswitch 2.2
_symmetry_space_group_name_H-M    P1
_symmetry_Int_Tables_number       1
_space_group_crystal_system       triclinic
_cell_length_a                    15.710364
_cell_length_b                    15.779364
_cell_length_c                    34.401299
_cell_angle_alpha                 89.920052
_cell_angle_beta                  90.305978
_cell_angle_gamma                 120.149382
_cell_volume                      7374.26670301

loop_
_atom_site_label
_atom_site_type_symbol
_atom_type_description
_atom_site_fract_x
_atom_site_fract_y
_atom_site_fract_z
_atom_type_partial_charge
C1    C     C_R   0.578139 0.441753 0.554854 0.578607
C2    C     C_R   0.508537 0.999357 0.210697 0.351720
C3    C     C_3   0.841784 0.735110 0.579541 -0.339310
C4    C     C_3   0.321925 0.080923 0.608083 -0.004373
C5    C     C_3   0.264165 0.105034 0.578871 -0.341207
C6    C     C_3   0.239733 0.916726 0.108848 -0.004725
C7    C     C_3   0.155904 0.889426 0.080113 -0.339052
C8    C     C_3   0.664192 0.740811 0.110638 -0.003879
C9    C     C_3   0.744749 0.824374 0.087364 -0.349105
C10   C     C_3   0.056048 0.304024 0.108892 -0.011237
C11   C     C_3   0.086372 0.250290 0.080492 -0.336232
C12   C     C_R   0.421573 0.554168 0.225609 0.345144
C13   C     C_R   0.012726 0.511478 0.211972 0.350833
C14   C     C_R   0.003273 0.432143 0.853704 -0.096662
C15   C     C_R   0.567072 0.572890 0.853606 -0.095626
C16   C     C_R   0.427631 0.994669 0.853481 -0.096718
C17   C     C_R   0.434217 0.011104 0.351881 -0.088250
C18   C     C_R   0.480652 0.551495 0.371912 -0.088202
C19   C     C_R   0.002668 0.433839 0.354795 -0.093433
C20   C     C_R   0.028489 0.441363 0.893005 0.080379
C21   C     C_R   0.558220 0.136339 0.554873 0.571554
C22   C     C_R   0.558055 0.588747 0.892854 0.080253
C23   C     C_R   0.411507 0.969437 0.892702 0.080251
C24   C     C_R   0.442379 0.037181 0.390949 0.085297
C25   C     C_R   0.512554 0.532977 0.407403 0.062412
C26   C     C_R   0.973444 0.416142 0.393574 0.080264
C27   C     C_R   0.060224 0.608808 0.892076 0.062686
C28   C     C_R   0.389552 0.452685 0.891654 0.062113
C29   C     C_R   0.548335 0.938602 0.892181 0.063100
C30   C     C_R   0.607202 0.058752 0.392439 0.070684
C31   C     C_R   0.536917 0.409019 0.375663 0.063134
C32   C     C_R   0.863837 0.421859 0.554849 0.570434
C33   C     C_R   0.927789 0.542595 0.389847 0.067443
C34   C     C_R   0.034001 0.598067 0.852873 -0.097552
C35   C     C_R   0.400152 0.437396 0.852500 -0.097983
C36   C     C_R   0.563891 0.964833 0.853053 -0.097418
C37   C     C_R   0.597299 0.032437 0.353251 -0.089179
C38   C     C_R   0.501574 0.425451 0.341002 -0.087061
C39   C     C_R   0.958936 0.559937 0.351403 -0.092157
C40   C     C_R   0.012538 0.512514 0.832803 -0.016927
C41   C     C_R   0.486260 0.501493 0.832586 -0.016840
C42   C     C_R   0.499483 0.986134 0.832804 -0.016938
C43   C     C_R   0.419624 0.608550 0.059639 0.573673
C44   C     C_R   0.513689 0.014922 0.332148 -0.010063
C45   C     C_R   0.473912 0.496866 0.338741 -0.006381
C46   C     C_R   0.990284 0.501715 0.332938 -0.013071
C47   C     C_R   0.069060 0.534035 0.911344 0.021789
C48   C     C_R   0.465122 0.536064 0.911107 0.021979
C49   C     C_R   0.464346 0.929688 0.911243 0.022173
C50   C     C_R   0.533370 0.071226 0.410768 0.034538
C51   C     C_R   0.540257 0.460832 0.409468 0.046877
C52   C     C_R   0.926501 0.463775 0.410505 0.028898
C53   C     C_R   0.577606 0.442201 0.445675 0.600514
C54   C     C_R   0.136454 0.558118 0.054799 0.564779
C55   C     C_R   0.556132 0.132813 0.446195 0.594388
C56   C     C_R   0.865654 0.423135 0.445825 0.589235
C57   C     C_R   0.443340 0.576445 0.946182 0.586476
C58   C     C_R   0.132764 0.556497 0.946240 0.578417
C59   C     C_R   0.423672 0.867025 0.946212 0.579008
C60   C     C_R   0.920974 0.457197 0.591284 0.043030
C61   C     C_R   0.543204 0.462994 0.591289 0.045950
C62   C     C_R   0.537076 0.080185 0.591364 0.043641
C63   C     C_R   0.458935 0.923161 0.090644 0.035887
C64   C     C_R   0.422871 0.595611 0.102229 0.025669
C65   C     C_R   0.422481 0.864397 0.054682 0.568396
C66   C     C_R   0.081470 0.537013 0.091481 0.046684
C67   C     C_R   0.960249 0.404063 0.609636 0.267460
C68   C     C_R   0.596826 0.555425 0.609603 0.269422
C69   C     C_R   0.444378 0.040934 0.609507 0.267084
C70   C     C_R   0.403554 0.959316 0.109215 0.265802
C71   C     C_R   0.501111 0.665415 0.125536 0.247313
C72   C     C_R   0.042201 0.444430 0.109591 0.267330
C73   C     C_R   0.993513 0.426696 0.648287 -0.106311
C74   C     C_R   0.574371 0.565915 0.648162 -0.106231
C75   C     C_R   0.434050 0.008093 0.648115 -0.106346
C76   C     C_R   0.997157 0.505368 0.711429 0.350971
C77   C     C_R   0.426937 0.992981 0.147724 -0.108404
C78   C     C_R   0.496858 0.654495 0.166146 -0.102636
C79   C     C_R   0.012240 0.435015 0.148663 -0.113495
C80   C     C_R   0.984374 0.498265 0.668945 -0.003825
C81   C     C_R   0.502507 0.485063 0.668843 -0.004181
C82   C     C_R   0.515359 0.017764 0.669026 -0.004004
C83   C     C_R   0.501248 0.986968 0.168154 -0.009766
C84   C     C_R   0.418684 0.572043 0.183699 -0.002046
C85   C     C_R   0.024312 0.516609 0.169549 -0.002321
C86   C     C_R   0.953830 0.556337 0.649331 -0.136851
C87   C     C_R   0.494985 0.491177 0.711272 0.351028
C88   C     C_R   0.444231 0.396190 0.649314 -0.136595
C89   C     C_R   0.604464 0.048786 0.649686 -0.136266
C90   C     C_R   0.562085 0.960764 0.148146 -0.127662
C91   C     C_R   0.341801 0.502604 0.160447 -0.136149
C92   C     C_R   0.054674 0.605177 0.150114 -0.139231
C93   C     C_R   0.923178 0.536412 0.610785 -0.180576
C94   C     C_R   0.463964 0.385589 0.610831 -0.179925
C95   C     C_R   0.614876 0.078924 0.611137 -0.179459
C96   C     C_R   0.542022 0.930849 0.109491 -0.158253
C97   C     C_R   0.343139 0.515056 0.120318 -0.182126
C98   C     C_R   0.509475 0.004500 0.711482 0.350963
C99   C     C_R   0.082238 0.614946 0.111386 -0.183194
C100  C     C_R   0.003183 0.508242 0.790198 0.353743
C101  C     C_R   0.490887 0.495839 0.790011 0.353678
C102  C     C_R   0.505133 0.996363 0.790230 0.353736
C103  C     C_R   0.510573 0.005642 0.289504 0.358503
C104  C     C_R   0.446186 0.517840 0.300654 0.343327
C105  C     C_R   0.003955 0.508019 0.290613 0.355270
C106  C     C_3   0.920425 0.242012 0.608499 -0.005485
C107  C     C_3   0.895339 0.160195 0.579372 -0.338252
C108  C     C_3   0.759919 0.677366 0.608548 -0.004420
Cr1   Cr    Cr6+3 0.522350 0.263930 0.500020 1.075698
Cr2   Cr    Cr6+3 0.736070 0.258420 0.500020 1.086190
Cr3   Cr    Cr6+3 0.741580 0.477650 0.500020 1.081435
Cr4   Cr    Cr6+3 0.263930 0.522350 0.000020 1.083184
Cr5   Cr    Cr6+3 0.258420 0.736070 0.000020 1.074521
Cr6   Cr    Cr6+3 0.477650 0.741580 0.000020 1.085039
H1    H     H_    0.894871 0.579045 0.597083 0.129480
H2    H     H_    0.384515 0.020295 0.162182 0.134875
H3    H     H_    0.556242 0.709347 0.183807 0.141480
H4    H     H_    0.982137 0.364994 0.163183 0.126699
H5    H     H_    0.948008 0.613515 0.664316 0.146658
H6    H     H_    0.386890 0.333020 0.664311 0.146706
H7    H     H_    0.667974 0.055127 0.664874 0.146842
H8    H     H_    0.622098 0.958528 0.162803 0.156343
H9    H     H_    0.280307 0.438596 0.173338 0.142934
H10   H     H_    0.062571 0.668809 0.165323 0.145629
H11   H     H_    0.978012 0.362355 0.839399 0.169201
H12   H     H_    0.421070 0.314553 0.597194 0.129087
H13   H     H_    0.637174 0.617659 0.839439 0.169871
H14   H     H_    0.382678 0.019527 0.839058 0.169150
H15   H     H_    0.366176 0.990914 0.336605 0.169414
H16   H     H_    0.460746 0.607916 0.370259 0.160343
H17   H     H_    0.033261 0.392847 0.341534 0.168293
H18   H     H_    0.033876 0.658359 0.837855 0.172050
H19   H     H_    0.339372 0.376972 0.837391 0.171584
H20   H     H_    0.624720 0.965240 0.838224 0.172042
H21   H     H_    0.657031 0.029489 0.338983 0.170981
H22   H     H_    0.500652 0.385786 0.315167 0.165464
H23   H     H_    0.686101 0.107438 0.597627 0.129471
H24   H     H_    0.953789 0.616325 0.335376 0.171317
H25   H     H_    0.850549 0.228080 0.622407 0.116801
H26   H     H_    0.970016 0.239209 0.630983 0.136672
H27   H     H_    0.963628 0.170077 0.565702 0.176258
H28   H     H_    0.857629 0.088222 0.594388 0.093829
H29   H     H_    0.845781 0.160842 0.556371 0.180996
H30   H     H_    0.773626 0.621006 0.622119 0.116197
H31   H     H_    0.763496 0.729002 0.631306 0.136385
H32   H     H_    0.832117 0.793882 0.566190 0.176514
H33   H     H_    0.914280 0.768995 0.594578 0.092665
H34   H     H_    0.588243 0.908162 0.095040 0.188074
H35   H     H_    0.840435 0.685664 0.556294 0.178551
H36   H     H_    0.378560 0.150931 0.621833 0.117514
H37   H     H_    0.269915 0.032317 0.630671 0.136237
H38   H     H_    0.205140 0.036643 0.565312 0.174761
H39   H     H_    0.230140 0.143002 0.593786 0.093571
H40   H     H_    0.313993 0.153726 0.555801 0.177407
H41   H     H_    0.237031 0.966511 0.130999 0.136647
H42   H     H_    0.227637 0.848171 0.123250 0.117087
H43   H     H_    0.156733 0.840196 0.057258 0.180984
H44   H     H_    0.084336 0.851014 0.095520 0.089179
H45   H     H_    0.281517 0.461048 0.103361 0.143753
H46   H     H_    0.163735 0.956505 0.066180 0.177738
H47   H     H_    0.651326 0.670349 0.097883 0.157357
H48   H     H_    0.690500 0.747098 0.141169 0.129225
H49   H     H_    0.760469 0.895865 0.099698 0.147790
H50   H     H_    0.813018 0.819855 0.088462 0.108316
H51   H     H_    0.721086 0.819703 0.056573 0.186725
H52   H     H_    0.991286 0.248551 0.125442 0.142101
H53   H     H_    0.118868 0.346340 0.129266 0.110348
H54   H     H_    0.151117 0.303879 0.063458 0.174982
H55   H     H_    0.106142 0.201603 0.096674 0.099556
H56   H     H_    0.110575 0.685836 0.097790 0.129915
H57   H     H_    0.024655 0.205146 0.060231 0.181903
H58   H     H_    0.023115 0.385946 0.662641 0.134055
H59   H     H_    0.615407 0.636397 0.662409 0.134558
H60   H     H_    0.363364 0.978294 0.662229 0.134287
I1    I     I_    0.994239 0.309522 0.922545 -0.227046
I2    I     I_    0.736362 0.076135 0.420274 -0.239403
I3    I     I_    0.596555 0.314792 0.373138 -0.306771
I4    I     I_    0.883061 0.640716 0.411589 -0.250354
I5    I     I_    0.690802 0.687375 0.922402 -0.240991
I6    I     I_    0.312387 0.002353 0.921775 -0.224760
I7    I     I_    0.311658 0.021976 0.416123 -0.255280
I8    I     I_    0.518367 0.616294 0.456717 -0.258015
I9    I     I_    0.008273 0.319836 0.424034 -0.239388
I10   I     I_    0.079230 0.738511 0.918942 -0.238707
I11   I     I_    0.258621 0.341983 0.918141 -0.230957
I12   I     I_    0.659610 0.919635 0.919262 -0.236959
N1    N     N_R   0.003931 0.434689 0.770141 -0.212979
N2    N     N_R   0.437085 0.005201 0.230376 -0.224499
N3    N     N_R   0.475435 0.629191 0.250639 -0.214169
N4    N     N_R   0.011238 0.436936 0.232274 -0.223253
N5    N     N_R   0.996631 0.579109 0.731477 -0.216675
N6    N     N_R   0.420580 0.417000 0.731282 -0.216487
N7    N     N_R   0.584128 0.005209 0.731797 -0.216135
N8    N     N_R   0.581137 0.996465 0.231211 -0.214632
N9    N     N_R   0.378148 0.460916 0.239126 -0.214856
N10   N     N_R   0.010652 0.584700 0.231742 -0.218811
N11   N     N_R   0.000331 0.580895 0.770117 -0.214328
N12   N     N_R   0.565107 0.570026 0.769986 -0.212856
N13   N     N_R   0.418207 0.419636 0.769895 -0.214159
N14   N     N_R   0.581641 0.000494 0.770420 -0.213980
N15   N     N_R   0.582535 0.000286 0.269890 -0.208991
N16   N     N_R   0.390799 0.443082 0.275853 -0.208820
N17   N     N_R   0.005631 0.582620 0.270303 -0.216372
N18   N     N_R   0.430498 0.995497 0.769901 -0.213032
N19   N     N_R   0.438290 0.008673 0.268943 -0.212606
N20   N     N_R   0.487247 0.611370 0.287566 -0.202610
N21   N     N_R   0.006545 0.435024 0.270859 -0.209202
N22   N     N_R   0.000577 0.433085 0.731531 -0.224108
N23   N     N_R   0.567289 0.567559 0.731406 -0.223913
N24   N     N_R   0.432815 0.999849 0.731315 -0.224328
O1    O     O_R   0.498680 0.159540 0.541860 -0.471832
O2    O     O_R   0.358060 0.532760 0.040030 -0.515675
O3    O     O_R   0.174700 0.641940 0.040030 -0.530734
O4    O     O_R   0.467240 0.825300 0.040030 -0.522774
O5    O     O_R   0.498590 0.161190 0.456930 -0.469167
O6    O     O_R   0.838810 0.337400 0.456930 -0.462804
O7    O     O_R   0.662600 0.501410 0.456930 -0.463513
O8    O     O_R   0.161190 0.498590 0.956930 -0.466901
O9    O     O_R   0.337400 0.838810 0.956930 -0.466467
O10   O     O_R   0.501410 0.662600 0.956930 -0.469436
O11   O     O_R   0.532680 0.359580 0.461300 -0.481189
O12   O     O_R   0.840460 0.339140 0.541860 -0.468231
O13   O     O_R   0.640420 0.173100 0.461300 -0.470925
O14   O     O_R   0.826900 0.467320 0.461300 -0.476597
O15   O     O_R   0.359580 0.532680 0.961300 -0.471432
O16   O     O_R   0.173100 0.640420 0.961300 -0.475802
O17   O     O_R   0.467320 0.826900 0.961300 -0.478175
O18   O     O_3   0.666667 0.333333 0.499990 -0.274132
O19   O     O_3   0.333333 0.666667 0.999990 -0.302673
O20   O     O_3   0.968544 0.333068 0.588932 -0.525137
O21   O     O_3   0.668184 0.634955 0.588967 -0.520972
O22   O     O_3   0.364447 0.032333 0.588666 -0.526487
O23   O     O_R   0.660860 0.501320 0.541860 -0.466975
O24   O     O_3   0.330148 0.964988 0.088705 -0.523956
O25   O     O_3   0.578142 0.747827 0.108860 -0.569421
O26   O     O_3   0.030240 0.364851 0.087752 -0.526495
O27   O     O_R   0.159540 0.498680 0.041860 -0.473264
O28   O     O_R   0.339140 0.840460 0.041860 -0.467619
O29   O     O_R   0.501320 0.660860 0.041860 -0.462942
O30   O     O_R   0.532760 0.358060 0.540030 -0.530726
O31   O     O_R   0.641940 0.174700 0.540030 -0.528225
O32   O     O_R   0.825300 0.467240 0.540030 -0.530157

loop_
_geom_bond_atom_site_label_1
_geom_bond_atom_site_label_2
_ccdc_geom_bond_type
Cr2   O18   S    
C54   O3    A    
C22   C48   A    
C63   C65   S    
C3    H33   S    
C90   H8    S    
Cr6   O4    S    
C36   C42   A    
Cr2   O31   S    
N18   N24   A    
Cr5   O3    S    
C35   H19   S    
Cr6   O19   S    
C103  N15   A    
Cr5   O16   S    
C19   C46   A    
C48   C57   S    
N9    N16   A    
C29   C49   A    
C33   C52   A    
C11   H57   S    
C12   N3    A    
C98   N24   A    
C29   C36   A    
C33   C39   A    
C5    H38   S    
C31   I3    S    
C34   C40   A    
Cr3   O18   S    
C97   H45   S    
C55   O13   A    
C86   C93   A    
C72   C79   A    
C102  N14   A    
C8    H47   S    
C92   H10   S    
C55   O5    A    
C105  N17   A    
C20   I1    S    
C106  C107  S    
C77   C83   A    
C53   O11   A    
C5    H40   S    
C79   H4    S    
C29   I12   S    
C12   C84   S    
C93   H1    S    
C64   C71   A    
C9    H49   S    
C19   C26   A    
C102  N18   A    
C27   I10   S    
C38   C45   A    
C80   C86   A    
Cr6   O17   S    
C52   C56   S    
C85   C92   A    
C15   C22   A    
C66   C72   A    
C30   C37   A    
C28   C35   A    
C1    O23   A    
C8    C9    S    
C13   N10   A    
N1    N22   A    
C36   H20   S    
C76   C80   S    
C37   H21   S    
C86   H5    S    
C67   C73   A    
C84   C91   A    
C71   O25   S    
C107  H27   S    
C77   H2    S    
C59   O17   A    
C6    H41   S    
C58   O16   A    
C68   O21   S    
C57   O15   A    
C60   C93   A    
C6    O24   S    
C39   H24   S    
C34   H18   S    
C27   C34   A    
C91   H9    S    
C62   C95   A    
C75   H60   S    
C53   O7    A    
C82   C98   S    
C28   C48   A    
C2    C83   S    
C99   H56   S    
C18   C25   A    
Cr4   O2    S    
Cr2   O13   S    
C42   C102  S    
C30   I2    S    
N12   N23   A    
C44   C103  S    
C43   C64   S    
C105  N21   A    
C94   H12   S    
C1    O30   A    
C19   H17   S    
C96   H34   S    
C88   C94   A    
N2    N19   A    
C95   H23   S    
C17   C24   A    
C3    H35   S    
C17   H15   S    
C20   C47   A    
C14   C20   A    
C78   H3    S    
C60   C67   A    
C74   H59   S    
C69   O22   S    
C31   C51   A    
C7    H44   S    
C61   C94   A    
C22   I5    S    
C7    H46   S    
Cr1   O18   S    
N8    N15   A    
C63   C96   A    
Cr4   O19   S    
C72   O26   S    
C98   N7    A    
C106  O20   S    
C51   C53   S    
C104  N16   A    
C66   C99   A    
C89   C95   A    
C9    H50   S    
Cr2   O6    S    
C25   C51   A    
C45   C104  S    
C26   C52   A    
C15   H13   S    
C16   H14   S    
C106  H26   S    
C63   C70   A    
N3    N20   A    
C10   H52   S    
C100  N1    A    
C23   I6    S    
C91   C97   A    
C73   H58   S    
C90   C96   A    
C43   O2    A    
C82   C89   A    
C24   C50   A    
C15   C41   A    
C21   C62   S    
C81   C87   S    
C26   I9    S    
C43   O29   A    
C4    O22   S    
C39   C46   A    
C54   C66   S    
C64   C97   A    
C108  H30   S    
C11   H55   S    
Cr3   O32   S    
C38   H22   S    
C11   H54   S    
C12   N9    A    
C65   O28   A    
C18   H16   S    
C88   H6    S    
C46   C105  S    
C32   C60   S    
C74   C81   A    
C107  H29   S    
Cr2   O12   S    
C18   C45   A    
C16   C42   A    
C79   C85   A    
Cr1   O11   S    
C25   I8    S    
C21   O31   A    
C108  H31   S    
Cr1   O30   S    
C27   C47   A    
C83   C90   A    
Cr5   O28   S    
C107  H28   S    
Cr4   O15   S    
C32   O32   A    
C24   I7    S    
C101  N12   A    
C10   O26   S    
C104  N20   A    
N6    N13   A    
Cr4   O8    S    
N5    N11   A    
C54   O27   A    
Cr6   O10   S    
C4    C5    S    
Cr1   O5    S    
C1    C61   S    
C40   C100  S    
C32   O12   A    
C101  N13   A    
C75   C82   A    
Cr5   O19   S    
C6    C7    S    
C7    H43   S    
C57   O10   A    
C3    C108  S    
C16   C23   A    
N7    N14   A    
C4    H36   S    
C14   H11   S    
C50   C55   S    
C49   C59   S    
C31   C38   A    
C70   O24   S    
N10   N17   A    
C37   C44   A    
C9    H51   S    
C17   C44   A    
C65   O4    A    
C76   N5    A    
C59   O9    A    
C28   I11   S    
C100  N11   A    
C47   C58   S    
C21   O1    A    
C58   O8    A    
C61   C68   A    
C10   H53   S    
C106  H25   S    
C87   N23   A    
C89   H7    S    
C4    H37   S    
C5    H39   S    
Cr3   O23   S    
C73   C80   A    
C41   C101  S    
C69   C75   A    
Cr3   O14   S    
C30   C50   A    
C35   C41   A    
C2    N2    A    
C56   O6    A    
C81   C88   A    
C103  N19   A    
C10   C11   S    
C13   N4    A    
C14   C40   A    
C8    O25   S    
C78   C84   A    
N4    N21   A    
C23   C49   A    
C62   C69   A    
C3    H32   S    
Cr4   O27   S    
C33   I4    S    
C13   C85   S    
C8    H48   S    
C67   O20   S    
C87   N6    A    
C56   O14   A    
Cr3   O7    S    
C2    N8    A    
Cr1   O1    S    
C68   C74   A    
Cr5   O9    S    
C71   C78   A    
C6    H42   S    
C76   N22   A    
C92   C99   A    
Cr6   O29   S    
C70   C77   A    
C108  O21   S    
