data_mof_unit_49210.cif
_audit_creation_date              2013-03-05T16:08:54-0500
_audit_creation_method            fapswitch 2.2
_symmetry_space_group_name_H-M    P1
_symmetry_Int_Tables_number       1
_space_group_crystal_system       triclinic
_cell_length_a                    17.407035
_cell_length_b                    6.885651
_cell_length_c                    14.180764
_cell_angle_alpha                 90.073998
_cell_angle_beta                  110.236135
_cell_angle_gamma                 89.871455
_cell_volume                      1594.77146091

loop_
_atom_site_label
_atom_site_type_symbol
_atom_site_description
_atom_site_fract_x
_atom_site_fract_y
_atom_site_fract_z
_atom_type_partial_charge
O1    O     O_R   0.314130 0.635770 0.168990 -0.592595
O2    O     O_R   0.685870 0.364230 0.831010 -0.592606
O3    O     O_R   0.185870 0.135770 0.331010 -0.581099
O4    O     O_R   0.814130 0.864230 0.668990 -0.581119
O5    O     O_R   0.146800 0.302460 0.139760 -0.574252
O6    O     O_R   0.853200 0.697540 0.860240 -0.574294
O7    O     O_R   0.353200 0.802460 0.360240 -0.580970
O8    O     O_R   0.646800 0.197540 0.639760 -0.580975
C1    C     C_R   0.113238 0.475648 0.114276 0.983739
C2    C     C_R   0.886762 0.524351 0.885723 0.983775
C3    C     C_R   0.386775 0.975476 0.385715 0.981071
C4    C     C_R   0.613225 0.024524 0.614285 0.981060
O9    O     O_R   0.311100 0.305780 0.157130 -0.587011
O10   O     O_R   0.688900 0.694220 0.842870 -0.587003
O11   O     O_R   0.188900 0.805780 0.342870 -0.596758
O12   O     O_R   0.811100 0.194220 0.657130 -0.596725
O13   O     O_R   0.351340 0.139640 0.348510 -0.576020
O14   O     O_R   0.648660 0.860360 0.651490 -0.576008
O15   O     O_R   0.148660 0.639640 0.151490 -0.584848
O16   O     O_R   0.851340 0.360360 0.848510 -0.584837
C5    C     C_R   0.329414 0.475075 0.131504 1.049710
C6    C     C_R   0.670584 0.524925 0.868495 1.049727
C7    C     C_R   0.170550 0.975536 0.368441 1.043666
C8    C     C_R   0.829446 0.024463 0.631555 1.043573
C9    C     C_1   0.533256 0.009166 0.533601 -0.136861
C10   C     C_1   0.466744 0.990834 0.466400 -0.136854
C11   C     C_1   0.966732 0.508972 0.966395 -0.140390
C12   C     C_1   0.033268 0.491028 0.033605 -0.140411
O17   O     O_3   0.263010 0.470920 0.312770 -0.272106
O18   O     O_3   0.736990 0.529080 0.687230 -0.272095
O19   O     O_3   0.236990 0.970920 0.187230 -0.273477
O20   O     O_3   0.763010 0.029080 0.812770 -0.273492
V1    V     V_3+5 0.247590 0.194450 0.238360 1.253244
V2    V     V_3+5 0.752410 0.805550 0.761640 1.253236
V3    V     V_3+5 0.252410 0.694450 0.261640 1.244842
V4    V     V_3+5 0.747590 0.305550 0.738360 1.244848
C13   C     C_R   0.120834 0.986142 0.435225 -0.296520
C14   C     C_R   0.879158 0.013859 0.564766 -0.296500
C15   C     C_R   0.379219 0.483882 0.064788 -0.296969
C16   C     C_R   0.620778 0.516118 0.935209 -0.296976
C17   C     C_R   0.897537 0.003336 0.401549 -0.208855
C18   C     C_R   0.102452 0.996682 0.598441 -0.208869
C19   C     C_R   0.602188 0.516997 0.098375 -0.208654
C20   C     C_R   0.397808 0.483017 0.901621 -0.208654
C21   C     C_R   0.844620 0.009955 0.457260 0.148971
C22   C     C_R   0.155370 0.990078 0.542731 0.148975
C23   C     C_R   0.655134 0.521780 0.042700 0.145625
C24   C     C_R   0.344863 0.478230 0.957297 0.145645
C25   C     C_R   0.965479 0.011001 0.611371 0.276992
C26   C     C_R   0.034510 0.988962 0.388617 0.276926
C27   C     C_R   0.534713 0.499986 0.888593 0.276096
C28   C     C_R   0.465284 0.500009 0.111404 0.276106
C29   C     C_R   0.017063 0.002381 0.552772 0.003245
C30   C     C_R   0.982927 0.997599 0.447216 0.003272
C31   C     C_R   0.483075 0.494835 0.947239 0.003088
C32   C     C_R   0.516922 0.505166 0.052758 0.003079
H1    H     H_    0.870599 0.002966 0.320265 0.172635
H2    H     H_    0.129388 0.997090 0.679726 0.172610
H3    H     H_    0.629100 0.520527 0.179633 0.172766
H4    H     H_    0.370895 0.479505 0.820363 0.172777
N1    N     N_R   0.999248 0.980025 0.280990 0.219291
O21   O     O_R   0.005122 0.127576 0.226700 -0.409004
O22   O     O_R   0.962786 0.822577 0.237226 -0.425968
N2    N     N_R   0.000740 0.019847 0.718998 0.219293
O23   O     O_R   0.994988 0.872116 0.773241 -0.409019
O24   O     O_R   0.037096 0.177367 0.762803 -0.425918
N3    N     N_R   0.500152 0.512123 0.219047 0.219844
O25   O     O_R   0.495773 0.364814 0.274331 -0.411042
O26   O     O_R   0.532723 0.673837 0.261892 -0.423139
N4    N     N_R   0.499846 0.487859 0.780949 0.219846
O27   O     O_R   0.504251 0.635135 0.725659 -0.411036
O28   O     O_R   0.467246 0.326164 0.738110 -0.423157
C33   C     C_3   0.245797 0.987947 0.608552 -0.372297
C34   C     C_3   0.309818 0.986931 0.558474 -0.827828
H5    H     H_    0.305485 0.850691 0.515363 0.245872
H6    H     H_    0.303389 0.118167 0.511140 0.243519
H7    H     H_    0.371674 0.990753 0.617243 0.287457
H8    H     H_    0.257886 0.117913 0.658273 0.209535
H9    H     H_    0.257083 0.858143 0.658201 0.202062
C35   C     C_3   0.754193 0.012133 0.391441 -0.372301
C36   C     C_3   0.690174 0.013129 0.441522 -0.827805
H10   H     H_    0.696603 0.881880 0.488846 0.243505
H11   H     H_    0.694511 0.149357 0.484643 0.245886
H12   H     H_    0.628317 0.009322 0.382754 0.287456
H13   H     H_    0.742915 0.141962 0.341810 0.202060
H14   H     H_    0.742095 0.882193 0.341701 0.209539
C37   C     C_3   0.254509 0.469261 0.891516 -0.368572
C38   C     C_3   0.190407 0.482976 0.941227 -0.826182
H15   H     H_    0.192851 0.350897 0.986579 0.248132
H16   H     H_    0.198552 0.618065 0.986283 0.239179
H17   H     H_    0.128677 0.488903 0.882297 0.289094
H18   H     H_    0.241895 0.590690 0.836420 0.201189
H19   H     H_    0.243840 0.331812 0.847526 0.210586
C39   C     C_3   0.745487 0.530772 0.108480 -0.368521
C40   C     C_3   0.809589 0.516946 0.058773 -0.826213
H20   H     H_    0.801425 0.381838 0.013729 0.239197
H21   H     H_    0.807164 0.648998 0.013411 0.248112
H22   H     H_    0.871317 0.510992 0.117705 0.289072
H23   H     H_    0.756159 0.668265 0.152433 0.210620
H24   H     H_    0.758099 0.409401 0.163609 0.201164

loop_
_geom_bond_atom_site_label_1
_geom_bond_atom_site_label_2
_geom_bond_distance
_ccdc_geom_bond_type
C2    C11   1.468222 S    
C16   C23   1.432476 A    
C31   C32   1.407569 A    
O1    C5    1.293321 A    
C33   C34   1.514504 S    
O3    C7    1.292640 A    
C40   H20   1.109034 S    
C37   C38   1.514737 S    
C18   H2    1.083812 S    
C36   H10   1.108511 S    
C40   H22   1.110561 S    
C14   C25   1.417012 A    
C29   C30   1.406918 A    
O7    C3    1.321852 A    
C26   C30   1.419905 A    
C34   H6    1.108511 S    
O20   V4    2.148586 S    
C18   C29   1.401490 A    
O8    V4    1.972918 S    
O4    C8    1.292643 A    
O3    V1    2.005868 S    
O17   V1    2.147237 S    
C18   C22   1.406343 A    
N1    O22   1.300844 A    
C14   C21   1.432563 A    
C35   H14   1.113034 S    
C1    O15   1.307756 A    
C2    O16   1.307756 A    
C34   H7    1.110809 S    
O5    V1    1.971313 S    
O2    C6    1.293322 A    
C8    C14   1.489176 S    
C33   H8    1.113036 S    
O19   V1    1.683623 S    
N4    O27   1.301151 A    
C27   N4    1.436814 S    
C19   H3    1.083696 S    
O11   C7    1.295054 A    
C15   C28   1.417456 A    
O12   C8    1.295055 A    
C25   N2    1.435867 S    
C37   H18   1.113522 S    
C39   C40   1.514737 S    
O13   V1    1.972526 S    
O11   V3    2.002891 S    
C36   H11   1.107425 S    
O4    V2    2.005868 S    
C34   H5    1.107427 S    
O18   V2    2.147238 S    
N3    O25   1.301153 A    
C3    C10   1.468525 S    
C9    C10   1.225403 T    
C7    C13   1.489180 S    
O6    V2    1.971312 S    
N3    O26   1.301260 A    
N2    O24   1.300838 A    
O5    C1    1.321336 A    
C35   H13   1.112784 S    
C5    C15   1.489348 S    
C38   H17   1.110560 S    
C39   H24   1.113518 S    
O8    C4    1.321852 A    
C6    C16   1.489349 S    
C33   H9    1.112788 S    
C24   C37   1.527420 S    
O9    C5    1.294403 A    
O14   V2    1.972525 S    
C28   N3    1.436810 S    
C38   H16   1.109031 S    
O19   V3    2.148585 S    
C36   H12   1.110809 S    
O1    V3    2.004211 S    
O2    V4    2.004213 S    
C3    O13   1.307618 A    
O7    V3    1.972919 S    
C35   C36   1.514500 S    
O10   V2    2.005925 S    
C40   H21   1.106754 S    
C16   C27   1.417462 A    
O17   V3    1.684578 S    
O18   V4    1.684576 S    
C4    C9    1.468524 S    
N2    O23   1.300850 A    
O10   C6    1.294404 A    
C17   H1    1.083804 S    
O15   V3    1.973303 S    
O12   V4    2.002889 S    
C13   C26   1.417036 A    
C20   C31   1.401532 A    
C39   H23   1.112857 S    
C20   H4    1.083696 S    
C25   C29   1.419893 A    
C37   H19   1.112862 S    
C23   C39   1.527420 S    
C21   C35   1.527307 S    
C27   C31   1.420630 A    
N1    O21   1.300893 A    
C17   C30   1.401501 A    
O6    C2    1.321337 A    
O16   V4    1.973303 S    
C28   C32   1.420626 A    
C19   C32   1.401526 A    
C38   H15   1.106763 S    
O9    V1    2.005926 S    
C4    O14   1.307619 A    
C11   C12   1.225205 T    
C26   N1    1.435886 S    
C17   C21   1.406344 A    
N4    O28   1.301266 A    
C13   C22   1.432569 A    
C19   C23   1.406189 A    
C22   C33   1.527309 S    
C20   C24   1.406190 A    
C1    C12   1.468222 S    
O20   V2    1.683621 S    
C15   C24   1.432476 A    
