data_mof_unit_26501.cif
_audit_creation_date              2012-12-11T15:57:55-0500
_audit_creation_method            fapswitch 2.2
_symmetry_space_group_name_H-M    P1
_symmetry_Int_Tables_number       1
_space_group_crystal_system       triclinic
_cell_length_a                    10.709583
_cell_length_b                    10.776925
_cell_length_c                    17.060047
_cell_angle_alpha                 99.630651
_cell_angle_beta                  99.492825
_cell_angle_gamma                 61.62463
_cell_volume                      1699.72155917

loop_
_atom_site_label
_atom_site_type_symbol
_atom_type_description
_atom_site_fract_x
_atom_site_fract_y
_atom_site_fract_z
_atom_type_partial_charge
C1    C     C_R   0.352155 0.783054 0.407167 0.590818
C2    C     C_2   0.314885 0.309426 0.811104 -0.091327
C3    C     C_2   0.358663 0.194515 0.756847 -0.149896
C4    C     C_R   0.370360 0.346974 0.357034 0.542431
C5    C     C_2   0.381762 0.199979 0.676516 -0.153937
C6    C     C_1   0.816870 0.342452 0.708817 -0.028946
C7    C     C_1   0.844327 0.313460 0.776300 -0.027802
C8    C     C_1   0.357844 0.765089 0.713442 -0.039215
C9    C     C_1   0.325330 0.812227 0.780262 -0.039669
C10   C     C_R   0.891750 0.308544 0.085401 0.573655
C11   C     C_R   0.318730 0.299162 0.119820 0.625098
C12   C     C_2   0.816753 0.335364 0.154290 -0.021620
C13   C     C_R   0.297830 0.882517 0.078790 0.605694
C14   C     C_R   0.886324 0.296579 0.858450 0.551602
C15   C     C_R   0.304338 0.287991 0.890434 0.569405
C16   C     C_R   0.775527 0.377456 0.404977 0.612566
C17   C     C_R   0.280251 0.881398 0.857046 0.548255
C18   C     C_R   0.380835 0.714902 0.631438 0.551708
C19   C     C_R   0.365368 0.345757 0.579539 0.547690
C20   C     C_R   0.772359 0.381594 0.629860 0.542029
C21   C     C_1   0.343868 0.336794 0.273773 -0.038794
C22   C     C_1   0.331843 0.326565 0.202995 0.018331
C23   C     C_2   0.831884 0.228923 0.192384 0.038507
C24   C     C_2   0.844746 0.329785 0.332713 0.099377
C25   C     C_2   0.794396 0.260067 0.273424 -0.145630
C26   C     C_2   0.324575 0.883088 0.352233 -0.091767
C27   C     C_2   0.335313 0.826564 0.154502 0.316447
C28   C     C_2   0.278602 0.923648 0.216130 0.054591
C29   C     C_2   0.246313 0.882913 0.284081 -0.115876
C30   C     C_2   0.305977 0.317713 0.640416 -0.107833
Cr1   Cr    Cr6+3 0.608020 0.610770 0.522990 1.049144
Cr2   Cr    Cr6+3 0.289390 0.599570 0.488050 1.051118
Cr3   Cr    Cr6+3 0.602610 0.289690 0.489020 1.025704
Cr4   Cr    Cr6+3 0.053780 0.052210 0.965970 1.077110
Cr5   Cr    Cr6+3 0.060060 0.372530 0.992430 1.084258
Cr6   Cr    Cr6+3 0.372600 0.061970 0.991430 1.058223
H1    H     H_    0.473019 0.110354 0.650924 0.165074
H2    H     H_    0.963690 0.018374 0.189857 0.235369
H3    H     H_    0.050928 0.267255 0.317880 0.218802
H4    H     H_    0.934146 0.425301 0.281697 0.238214
H5    H     H_    0.280117 0.107671 0.265982 0.218615
H6    H     H_    0.129183 0.126558 0.207372 0.233094
H7    H     H_    0.504000 0.490220 0.240944 0.350504
H8    H     H_    0.281591 0.415666 0.796516 0.100916
H9    H     H_    0.209796 0.403513 0.663794 0.115848
H10   H     H_    0.714784 0.230181 0.283033 0.141034
H11   H     H_    0.766594 0.443999 0.181862 0.141619
H12   H     H_    0.187060 0.822096 0.273361 0.183555
H13   H     H_    0.394813 0.932105 0.359327 0.114497
H14   H     H_    0.391171 0.089613 0.773653 0.161742
H15   H     H_    0.793596 0.061383 0.153561 0.240392
N1    N     N_3   0.876540 0.087001 0.154406 -0.561810
N2    N     N_3   0.958667 0.361978 0.327470 -0.625284
N3    N     N_3   0.240050 0.069998 0.212654 -0.638463
O1    O     O_R   0.749250 0.499990 0.439200 -0.471939
O2    O     O_R   0.411120 0.181190 0.091480 -0.508672
O3    O     O_R   0.364220 0.944920 0.062310 -0.494940
O4    O     O_R   0.477870 0.725740 0.440280 -0.481218
O5    O     O_R   0.158740 0.906940 0.874970 -0.500875
O6    O     O_R   0.930920 0.176940 0.885610 -0.495098
O7    O     O_R   0.910730 0.394510 0.895320 -0.507391
O8    O     O_R   0.185840 0.361180 0.920280 -0.486509
O9    O     O_R   0.399210 0.173040 0.915160 -0.508331
O10   O     O_R   0.353170 0.937370 0.898860 -0.507936
O11   O     O_3   0.162150 0.162240 0.983280 -0.282986
O12   O     O_R   0.299400 0.468710 0.556310 -0.510360
O13   O     O_R   0.260770 0.742210 0.412610 -0.502676
O14   O     O_R   0.297990 0.466320 0.394220 -0.476387
O15   O     O_R   0.487720 0.253870 0.385870 -0.522409
O16   O     O_R   0.721940 0.304340 0.422320 -0.524514
O17   O     O_R   0.750770 0.502570 0.614050 -0.513418
O18   O     O_R   0.479280 0.728140 0.602370 -0.501180
O19   O     O_R   0.262290 0.744790 0.587460 -0.505159
O20   O     O_2   0.261620 0.621277 0.148038 -0.314698
O21   O     O_2   0.475967 0.561614 0.085220 -0.306084
O22   O     O_3   0.492459 0.586917 0.240634 -0.550302
O23   O     O_R   0.489240 0.256450 0.560730 -0.509749
O24   O     O_R   0.723350 0.306730 0.584410 -0.496642
O25   O     O_3   0.500010 0.500010 0.500020 -0.281673
O26   O     O_R   0.170650 0.915100 0.051290 -0.491138
O27   O     O_R   0.941960 0.184500 0.049060 -0.451332
O28   O     O_R   0.922640 0.402670 0.071640 -0.515294
O29   O     O_R   0.196880 0.368740 0.083740 -0.462863
S1    S     S_3+6 0.391440 0.643505 0.154972 -0.033390

loop_
_geom_bond_atom_site_label_1
_geom_bond_atom_site_label_2
_ccdc_geom_bond_type
C5    H1    S    
C30   H9    S    
O22   S1    S    
C12   C23   D    
Cr1   O4    S    
C28   C29   S    
C17   O10   A    
Cr3   O24   S    
H2    N1    S    
Cr5   O11   S    
C19   O12   A    
C19   O23   A    
Cr4   O26   S    
Cr5   O28   S    
C7    C14   S    
C2    H8    S    
C8    C9    T    
C20   O17   A    
Cr4   O27   S    
Cr6   O9    S    
Cr3   O15   S    
Cr2   O14   S    
Cr1   O17   S    
Cr4   O5    S    
C13   O26   A    
C16   C24   S    
C21   C22   T    
Cr4   O6    S    
C12   H11   S    
Cr4   O11   S    
C4    O15   A    
C3    H14   S    
C18   O18   A    
C29   H12   S    
H15   N1    S    
C16   O16   A    
C24   C25   D    
Cr6   O3    S    
C26   H13   S    
Cr2   O19   S    
C4    O14   A    
C28   N3    S    
Cr6   O11   S    
Cr3   O25   S    
C11   O29   A    
C24   N2    S    
C14   O7    A    
C10   O28   A    
C8    C18   S    
Cr6   O2    S    
Cr5   O7    S    
C2    C15   S    
C10   C12   S    
Cr3   O16   S    
C17   O5    A    
Cr2   O13   S    
C9    C17   S    
Cr1   O18   S    
C18   O19   A    
C1    C26   S    
C14   O6    A    
Cr2   O12   S    
C5    C30   D    
H7    O22   S    
C27   S1    S    
Cr5   O29   S    
C10   O27   A    
O20   S1    D    
C3    C5    S    
Cr1   O25   S    
C6    C7    T    
C6    C20   S    
C11   C22   S    
C20   O24   A    
C2    C3    D    
C16   O1    A    
C1    O4    A    
H6    N3    S    
Cr2   O25   S    
C4    C21   S    
Cr3   O23   S    
C23   N1    S    
H3    N2    S    
C1    O13   A    
C15   O8    A    
Cr5   O8    S    
C23   C25   S    
O21   S1    D    
H5    N3    S    
C13   O3    A    
C26   C29   D    
H4    N2    S    
C27   C28   D    
C15   O9    A    
C13   C27   S    
Cr1   O1    S    
Cr6   O10   S    
C19   C30   S    
C25   H10   S    
C11   O2    A    
