data_mof_unit_11895.cif
_audit_creation_date              2012-12-10T16:48:07-0500
_audit_creation_method            fapswitch 2.2
_symmetry_space_group_name_H-M    P1
_symmetry_Int_Tables_number       1
_space_group_crystal_system       triclinic
_cell_length_a                    15.832541
_cell_length_b                    8.684748
_cell_length_c                    7.517442
_cell_angle_alpha                 103.340429
_cell_angle_beta                  94.790354
_cell_angle_gamma                 93.177503
_cell_volume                      999.27670393

loop_
_atom_site_label
_atom_site_type_symbol
_atom_type_description
_atom_site_fract_x
_atom_site_fract_y
_atom_site_fract_z
_atom_type_partial_charge
C1    C     C_R   0.497359 0.199761 0.452997 0.882211
C2    C     C_R   0.502641 0.800238 0.547002 0.882211
C3    C     C_R   0.340091 0.499543 0.501228 0.828914
C4    C     C_R   0.659909 0.500457 0.498772 0.828914
C5    C     C_2   0.496021 0.031381 0.427161 -0.338546
C6    C     C_2   0.503979 0.968619 0.572839 -0.338546
C7    C     C_3   0.972792 0.414580 0.616109 -0.192655
C8    C     C_3   0.027208 0.585420 0.383891 -0.192655
C9    C     C_3   0.021018 0.352083 0.447272 0.031531
C10   C     C_3   0.978982 0.647917 0.552728 0.031531
C11   C     C_1   0.250524 0.499821 0.503941 -0.140785
C12   C     C_1   0.749476 0.500179 0.496059 -0.140785
C13   C     C_3   0.036137 0.565036 0.672230 -0.203654
C14   C     C_3   0.963862 0.434964 0.327770 -0.203654
C15   C     C_3   0.083204 0.500138 0.502527 0.123054
C16   C     C_3   0.916796 0.499862 0.497473 0.123054
C17   C     C_1   0.174955 0.500005 0.504227 -0.040401
C18   C     C_1   0.825045 0.499995 0.495773 -0.040401
Cu1   Cu    Cu3+1 0.509330 0.517380 0.684380 0.963671
Cu2   Cu    Cu3+1 0.490670 0.482620 0.315620 0.963671
H1    H     H_    0.949481 0.343501 0.709872 0.158267
H2    H     H_    0.050519 0.656499 0.290128 0.158267
H3    H     H_    0.933338 0.380608 0.187150 0.150680
H4    H     H_    0.066662 0.619392 0.812850 0.150680
H5    H     H_    0.488455 0.958806 0.287254 0.177122
H6    H     H_    0.511545 0.041194 0.712746 0.177122
N1    N     N_2   0.476600 0.456420 0.038510 -0.218308
N2    N     N_2   0.523400 0.543580 0.961490 -0.218308
O1    O     O_R   0.506070 0.286130 0.619780 -0.591285
O2    O     O_R   0.493930 0.713870 0.380220 -0.591285
O3    O     O_R   0.490300 0.256770 0.308360 -0.597387
O4    O     O_R   0.509700 0.743230 0.691640 -0.597388
O5    O     O_R   0.386960 0.514660 0.655680 -0.588038
O6    O     O_R   0.613040 0.485340 0.344320 -0.588038
O7    O     O_R   0.371190 0.485310 0.344260 -0.588561
O8    O     O_R   0.628810 0.514690 0.655740 -0.588561
C19   C     C_1   0.044993 0.188567 0.389157 0.262186
N3    N     N_1   0.063919 0.059624 0.343316 -0.284543
C20   C     C_1   0.955007 0.811432 0.610843 0.262186
N4    N     N_1   0.936081 0.940376 0.656684 -0.284543
C21   C     C_1   0.415190 0.348156 0.928266 0.554458
N5    N     N_1   0.363564 0.257060 0.838272 -0.347931
C22   C     C_1   0.584810 0.651844 0.071734 0.554457
N6    N     N_1   0.636436 0.742940 0.161728 -0.347931

loop_
_geom_bond_atom_site_label_1
_geom_bond_atom_site_label_2
_ccdc_geom_bond_type
C14   H3    S    
C1    O3    A    
C8    H2    S    
C9    C14   S    
C4    O8    A    
C15   C17   S    
C19   N3    T    
Cu2   N1    S    
C4    C12   S    
C21   N5    T    
N1    C21   S    
N2    C22   S    
Cu1   Cu2   S    
C3    O7    A    
C22   N6    T    
Cu2   O6    S    
C1    O1    A    
C9    C15   S    
C10   C16   S    
Cu1   N2    S    
C6    H6    S    
C5    H5    S    
Cu1   O4    S    
C16   C18   S    
C7    C16   S    
C8    C15   S    
C14   C16   S    
Cu1   O8    S    
C13   C15   S    
C4    O6    A    
C5    C6    D    
C1    C5    S    
C3    C11   S    
C2    O2    A    
C3    O5    A    
Cu1   O1    S    
C7    C13   S    
C2    O4    A    
C9    C19   S    
Cu1   O5    S    
C12   C18   T    
C20   N4    T    
C7    C9    S    
C11   C17   T    
Cu2   O2    S    
C8    C14   S    
C7    H1    S    
Cu2   O7    S    
Cu2   O3    S    
C8    C10   S    
C2    C6    S    
C13   H4    S    
C10   C20   S    
N1    N2    D    
C10   C13   S    
