data_mof_unit_47514.cif
_audit_creation_date              2012-12-11T17:34:25-0500
_audit_creation_method            fapswitch 2.2
_symmetry_space_group_name_H-M    P1
_symmetry_Int_Tables_number       1
_space_group_crystal_system       triclinic
_cell_length_a                    23.737189
_cell_length_b                    7.222348
_cell_length_c                    20.663968
_cell_angle_alpha                 90.000053
_cell_angle_beta                  105.435222
_cell_angle_gamma                 90.000589
_cell_volume                      3414.81991216

loop_
_atom_site_label
_atom_site_type_symbol
_atom_type_description
_atom_site_fract_x
_atom_site_fract_y
_atom_site_fract_z
_atom_type_partial_charge
O1    O     O_R   0.449110 0.494310 0.552140 -0.537444
O2    O     O_R   0.550890 0.994310 0.447860 -0.537442
O3    O     O_R   0.440010 0.824420 0.415850 -0.534062
O4    O     O_R   0.559990 0.324420 0.584150 -0.534063
C1    C     C_R   0.425257 0.655431 0.391049 0.684936
C2    C     C_R   0.574743 0.155432 0.608951 0.684936
O5    O     O_R   0.442260 0.824040 0.549660 -0.540233
O6    O     O_R   0.557740 0.324040 0.450340 -0.540233
O7    O     O_R   0.553160 0.993960 0.582620 -0.532043
O8    O     O_R   0.446840 0.493960 0.417380 -0.532044
C3    C     C_R   0.428441 0.655349 0.567398 0.681837
C4    C     C_R   0.571559 0.155350 0.432602 0.681837
O9    O     O_3   0.536380 0.660670 0.510660 -0.372579
O10   O     O_3   0.463620 0.160670 0.489340 -0.372579
V1    V     V_3+5 0.493250 0.935680 0.498020 1.417064
V2    V     V_3+5 0.506750 0.435680 0.501980 1.417066
C5    C     C_R   0.833719 0.908303 0.182568 0.452109
C6    C     C_R   0.166323 0.408239 0.817487 0.452213
C7    C     C_R   0.870566 0.898158 0.139417 -0.237926
C8    C     C_R   0.129475 0.398123 0.860637 -0.238001
H1    H     H_    0.887683 0.764341 0.130486 0.134843
H2    H     H_    0.112393 0.264291 0.869613 0.134892
C9    C     C_R   0.886458 0.058611 0.109770 -0.106988
C10   C     C_R   0.113539 0.558609 0.890226 -0.106989
C11   C     C_R   0.862537 0.229370 0.122114 -0.178108
C12   C     C_R   0.137418 0.729387 0.877823 -0.178136
H3    H     H_    0.873307 0.356007 0.100012 0.143677
H4    H     H_    0.126615 0.856053 0.899880 0.143625
C13   C     C_R   0.823890 0.239193 0.162762 -0.217370
C14   C     C_R   0.176064 0.739193 0.837173 -0.217218
H5    H     H_    0.805526 0.371982 0.170569 0.176507
H6    H     H_    0.194397 0.871997 0.829324 0.176564
C15   C     C_R   0.809188 0.079846 0.193288 0.026017
C16   C     C_R   0.190810 0.579807 0.806707 0.026074
C17   C     C_1   0.768929 0.094128 0.235143 -0.007704
C18   C     C_1   0.231074 0.594081 0.764858 -0.007802
C19   C     C_1   0.735321 0.106614 0.270048 -0.052059
C20   C     C_1   0.264684 0.606573 0.729956 -0.052102
C21   C     C_R   0.672358 0.959237 0.333127 -0.121582
C22   C     C_R   0.327651 0.459213 0.666880 -0.121575
H7    H     H_    0.685283 0.824204 0.319240 0.110148
H8    H     H_    0.314730 0.324177 0.680770 0.110144
C23   C     C_R   0.632697 0.970940 0.372523 -0.148369
C24   C     C_R   0.367310 0.470926 0.627483 -0.148376
H9    H     H_    0.616123 0.843382 0.387976 0.124664
H10   H     H_    0.383887 0.343372 0.612031 0.124664
C25   C     C_R   0.614634 0.144323 0.391392 -0.050406
C26   C     C_R   0.385368 0.644314 0.608610 -0.050403
C27   C     C_R   0.637869 0.305541 0.369822 -0.158167
C28   C     C_R   0.362129 0.805526 0.630177 -0.158159
H11   H     H_    0.625209 0.441399 0.383114 0.122910
H12   H     H_    0.374785 0.941386 0.616883 0.122908
C29   C     C_R   0.677589 0.293326 0.330304 -0.128589
C30   C     C_R   0.322411 0.793301 0.669697 -0.128591
H13   H     H_    0.694626 0.419231 0.314130 0.110706
H14   H     H_    0.305370 0.919201 0.685869 0.110680
C31   C     C_R   0.694905 0.120101 0.311618 0.124008
C32   C     C_R   0.305100 0.620071 0.688386 0.124029
C33   C     C_R   0.640020 0.133951 0.795821 -0.159382
C34   C     C_R   0.359982 0.633881 0.204179 -0.159376
H15   H     H_    0.553624 0.161741 0.730439 0.104966
H16   H     H_    0.446379 0.661668 0.269561 0.104963
H17   H     H_    0.724083 0.121844 0.909341 0.127512
H18   H     H_    0.275920 0.621744 0.090659 0.127522
H19   H     H_    0.624419 0.142367 0.840490 0.115672
H20   H     H_    0.375585 0.642264 0.159511 0.115675
C35   C     C_R   0.618445 0.145006 0.674786 -0.032259
C36   C     C_R   0.381555 0.644998 0.325214 -0.032257
C37   C     C_R   0.903614 0.028575 0.768085 -0.215061
C38   C     C_R   0.096383 0.528624 0.231916 -0.215040
C39   C     C_R   0.865520 0.001852 0.705004 -0.091004
C40   C     C_R   0.134476 0.501922 0.294999 -0.090991
C41   C     C_R   0.804699 0.003453 0.695573 -0.002012
C42   C     C_R   0.195297 0.503506 0.304431 -0.002018
C43   C     C_R   0.781193 0.057709 0.749750 -0.013980
C44   C     C_R   0.218805 0.557721 0.250252 -0.013980
C45   C     C_R   0.821059 0.070124 0.815551 0.071335
C46   C     C_R   0.178941 0.570113 0.184450 0.071331
C47   C     C_R   0.720020 0.094512 0.742345 0.064980
C48   C     C_R   0.279979 0.594506 0.257655 0.064982
C49   C     C_R   0.699807 0.110589 0.800998 0.150668
C50   C     C_R   0.300194 0.610541 0.199003 0.150664
C51   C     C_R   0.739326 0.107462 0.864581 -0.196280
C52   C     C_R   0.260676 0.607392 0.135419 -0.196269
C53   C     C_R   0.798980 0.093381 0.871717 -0.177765
C54   C     C_R   0.201022 0.593331 0.128283 -0.177754
C55   C     C_R   0.678406 0.125524 0.679443 -0.236755
C56   C     C_R   0.321594 0.625539 0.320557 -0.236756
C57   C     C_R   0.599639 0.146986 0.733248 -0.164015
C58   C     C_R   0.400362 0.646934 0.266752 -0.164014
C59   C     C_R   0.882340 0.053917 0.824152 -0.073077
C60   C     C_R   0.117659 0.553926 0.175848 -0.073088
H21   H     H_    0.691503 0.141138 0.633626 0.112131
H22   H     H_    0.308496 0.641184 0.366372 0.112132
H23   H     H_    0.950243 0.017377 0.773842 0.114061
H24   H     H_    0.049753 0.517443 0.226158 0.114049
H25   H     H_    0.884057 0.965917 0.664078 0.159030
H26   H     H_    0.115937 0.466018 0.335926 0.159033
H27   H     H_    0.827789 0.098606 0.922063 0.107928
H28   H     H_    0.172214 0.598538 0.077936 0.107933
O11   O     O_R   0.053190 0.709680 0.082610 -0.532440
O12   O     O_R   0.946810 0.209680 0.917390 -0.532443
O13   O     O_R   0.057740 0.380240 0.950340 -0.540399
O14   O     O_R   0.942260 0.880240 0.049660 -0.540394
C61   C     C_R   0.071391 0.548863 0.932479 0.697423
C62   C     C_R   0.928608 0.048862 0.067519 0.697412
O15   O     O_R   0.060000 0.379940 0.084150 -0.532419
O16   O     O_R   0.940000 0.879940 0.915850 -0.532422
O17   O     O_R   0.949110 0.210100 0.052140 -0.537570
O18   O     O_R   0.050890 0.710100 0.947860 -0.537572
C63   C     C_R   0.074576 0.548299 0.109145 0.681567
C64   C     C_R   0.925424 0.048298 0.890855 0.681558
O19   O     O_3   0.963630 0.543720 0.989330 -0.372613
O20   O     O_3   0.036370 0.043720 0.010670 -0.372611
V3    V     V_3+5 0.006750 0.268680 0.001980 1.411018
V4    V     V_3+5 0.993250 0.768680 0.998020 1.411022
O21   O     O_3   0.818953 0.746987 0.210241 -0.583707
C65   C     C_3   0.855134 0.724961 0.276379 0.062768
H29   H     H_    0.831192 0.635337 0.303808 0.154489
H30   H     H_    0.863819 0.857971 0.304806 0.114955
C66   C     C_3   0.912903 0.629559 0.276181 -0.349201
H31   H     H_    0.903825 0.502056 0.245133 0.208649
H32   H     H_    0.939881 0.723680 0.254203 0.185561
C67   C     C_3   0.947861 0.577950 0.347082 -0.795397
H33   H     H_    0.957941 0.703733 0.379018 0.235654
H34   H     H_    0.989614 0.511649 0.345196 0.229177
H35   H     H_    0.922823 0.478797 0.369765 0.233819
O22   O     O_3   0.181151 0.246866 0.789903 -0.583721
C68   C     C_3   0.145002 0.224537 0.723765 0.062558
H36   H     H_    0.168895 0.134276 0.696482 0.154592
H37   H     H_    0.136487 0.357343 0.695197 0.115033
C69   C     C_3   0.087111 0.129932 0.723974 -0.349502
H38   H     H_    0.096010 0.002971 0.755330 0.208596
H39   H     H_    0.060123 0.224903 0.745609 0.185578
C70   C     C_3   0.052281 0.077298 0.653129 -0.795175
H40   H     H_    0.042450 0.202493 0.620853 0.235645
H41   H     H_    0.010399 0.011871 0.655006 0.229149
H42   H     H_    0.077294 0.977095 0.630838 0.233778
C71   C     C_2   0.768865 0.916306 0.633054 0.341338
H43   H     H_    0.728511 0.845505 0.632874 0.059004
O23   O     O_2   0.784635 0.918781 0.581405 -0.524123
C72   C     C_2   0.231128 0.416385 0.366957 0.341332
H44   H     H_    0.271479 0.345564 0.367142 0.059006
O24   O     O_2   0.215358 0.418906 0.418605 -0.524125

loop_
_geom_bond_atom_site_label_1
_geom_bond_atom_site_label_2
_ccdc_geom_bond_type
C70   H42   S    
C61   O18   A    
O13   V3    S    
O1    C3    A    
O2    C4    A    
O22   C68   S    
C2    O7    A    
C47   C55   A    
O20   V3    S    
C70   H40   S    
C25   C27   A    
C40   H26   S    
O5    C3    A    
C39   H25   S    
C28   C30   A    
C42   C44   A    
C7    H1    S    
C10   C12   A    
C4    C25   S    
C21   C31   A    
C13   C15   A    
C35   C57   A    
C33   C57   A    
C37   C39   A    
C65   H29   S    
H18   C52   S    
C66   C67   S    
O12   V3    S    
C6    O22   S    
O14   V4    S    
O12   C64   A    
C8    C10   A    
C24   H10   S    
C69   H38   S    
C27   H11   S    
C36   C58   A    
C54   H28   S    
C16   C18   S    
C5    O21   S    
O19   V4    S    
C46   C54   A    
C22   H8    S    
C42   C72   S    
C34   H20   S    
O6    V2    S    
C20   C32   S    
C41   C43   A    
C3    C26   S    
C69   H39   S    
C5    C15   A    
C1    C36   S    
O14   C62   A    
C49   C51   A    
H15   C57   S    
C56   H22   S    
C29   H13   S    
C11   C13   A    
C30   H14   S    
C22   C32   A    
C14   C16   A    
C44   C48   A    
C48   C50   A    
C39   C41   A    
C29   C31   A    
C7    C9    A    
C5    C7    A    
C21   C23   A    
O5    V1    S    
C41   C71   S    
C37   H23   S    
C9    C62   S    
O16   C64   A    
H17   C51   S    
C35   C55   A    
C65   C66   S    
C59   C64   S    
O4    V2    S    
C38   H24   S    
C53   H27   S    
C6    C16   A    
C28   H12   S    
O6    C4    A    
O13   C61   A    
O1    V2    S    
O2    V1    S    
C43   C45   A    
O15   V3    S    
C66   H31   S    
H16   C58   S    
C34   C50   A    
C67   H35   S    
C40   C42   A    
C2    C35   S    
C51   C53   A    
C8    H2    S    
C12   C14   A    
C50   C52   A    
C36   C56   A    
C72   O24   D    
O4    C2    A    
O11   C63   A    
O18   V4    S    
O3    V1    S    
C67   H34   S    
C68   H36   S    
C30   C32   A    
C70   H41   S    
C45   C59   A    
C17   C19   T    
C72   H44   S    
O15   C63   A    
C38   C60   A    
C33   C49   A    
C44   C46   A    
O3    C1    A    
C71   H43   S    
C47   C49   A    
C60   C63   S    
C34   C58   A    
C11   H3    S    
C12   H4    S    
C46   C60   A    
C68   C69   S    
C18   C20   T    
O7    V1    S    
C1    O8    A    
C48   C56   A    
O8    V2    S    
O21   C65   S    
C33   H19   S    
C14   H6    S    
C71   O23   D    
O16   V4    S    
C23   C25   A    
C69   C70   S    
C27   C29   A    
C55   H21   S    
C26   C28   A    
C15   C17   S    
C6    C8    A    
C9    C11   A    
C65   H30   S    
C66   H32   S    
O17   V3    S    
C45   C53   A    
C22   C24   A    
C21   H7    S    
C13   H5    S    
O9    V2    S    
O11   V4    S    
O10   V1    S    
C52   C54   A    
C38   C40   A    
C10   C61   S    
C37   C59   A    
C43   C47   A    
C23   H9    S    
C19   C31   S    
C24   C26   A    
C67   H33   S    
C68   H37   S    
C62   O17   A    
