data_mof_unit_39349.cif
_audit_creation_date              2012-12-11T14:27:07-0500
_audit_creation_method            fapswitch 2.2
_symmetry_space_group_name_H-M    P1
_symmetry_Int_Tables_number       1
_space_group_crystal_system       triclinic
_cell_length_a                    15.220029
_cell_length_b                    14.801433
_cell_length_c                    15.026197
_cell_angle_alpha                 109.463342
_cell_angle_beta                  109.412023
_cell_angle_gamma                 109.167231
_cell_volume                      2617.6823955

loop_
_atom_site_label
_atom_site_type_symbol
_atom_type_description
_atom_site_fract_x
_atom_site_fract_y
_atom_site_fract_z
_atom_type_partial_charge
C1    C     C_R   0.990901 0.799125 0.083782 0.168450
C2    C     C_R   0.218468 0.777668 0.311661 -0.111235
C3    C     C_R   0.931012 0.407699 0.217200 -0.109330
C4    C     C_R   0.790311 0.195860 0.701934 -0.029023
C5    C     C_R   0.297348 0.590337 0.995700 -0.054922
C6    C     C_R   0.986529 0.498287 0.319007 0.141174
C7    C     C_R   0.300781 0.498766 0.936584 -0.010747
C8    C     C_R   0.319182 0.822260 0.322414 0.028611
C9    C     C_R   0.058268 0.233749 0.057935 0.109430
C10   C     C_3   0.519275 0.500551 0.856780 -0.537589
C11   C     C_3   0.411271 0.496106 0.841049 0.048247
C12   C     C_R   0.700632 0.134275 0.703495 0.064267
C13   C     C_3   0.506983 0.401711 0.966808 0.073844
C14   C     C_3   0.604498 0.610313 0.058611 -0.402935
C15   C     C_3   0.578597 0.503297 0.964044 0.205600
C16   C     C_R   0.092513 0.590968 0.791513 -0.084104
C17   C     C_3   0.400984 0.500433 0.943971 0.089172
C18   C     C_3   0.404491 0.401689 0.957041 -0.450528
C19   C     C_3   0.501162 0.607555 0.050629 0.099175
C20   C     C_2   0.433404 0.893703 0.510858 -0.201984
C21   C     C_2   0.415744 0.906411 0.423044 0.211152
C22   C     C_2   0.525175 0.977977 0.616817 -0.078715
C23   C     C_R   0.060123 0.498765 0.697628 0.022316
C24   C     C_2   0.621869 0.018844 0.626212 -0.105438
C25   C     C_2   0.041250 0.403626 0.521836 -0.084388
C26   C     C_2   0.093884 0.495542 0.617703 -0.036906
C27   C     C_2   0.024301 0.411985 0.425011 -0.114770
C28   C     C_R   0.687130 0.408586 0.943250 -0.077979
C29   C     C_2   0.009887 0.494454 0.417652 -0.172826
C30   C     C_2   0.171626 0.147908 0.092945 -0.052561
C31   C     C_2   0.109100 0.187096 0.116440 -0.224440
C32   C     C_2   0.153967 0.040006 0.083454 -0.117994
C33   C     C_2   0.059211 0.964483 0.060901 -0.140327
C34   C     C_R   0.676735 0.502029 0.972447 0.037403
C35   C     C_R   0.000732 0.408375 0.700718 -0.060105
C36   C     C_R   0.777552 0.593361 0.037635 -0.099449
C37   C     C_R   0.703283 0.199270 0.795001 -0.116757
C38   C     C_R   0.073691 0.793880 0.985823 -0.117101
C39   C     C_R   0.036461 0.853746 0.038601 0.058738
C40   C     C_2   0.827454 0.146809 0.630698 0.969672
C41   C     C_2   0.320656 0.392637 0.734294 1.072484
C42   C     C_2   0.180980 0.702512 0.837419 0.990357
C43   C     C_2   0.255269 0.206742 0.071998 1.029779
C44   C     C_R   0.025983 0.591305 0.310677 -0.101395
C45   C     C_R   0.206423 0.407311 0.902274 0.155350
C46   C     C_R   0.310446 0.777788 0.220942 -0.021398
C47   C     C_R   0.977987 0.253343 0.066518 -0.128849
C48   C     C_R   0.071751 0.257280 0.979926 -0.008277
H1    H     H_    0.372859 0.799697 0.200082 0.138670
H2    H     H_    0.337253 0.321547 0.887829 0.206284
H3    H     H_    0.656036 0.621288 0.138164 0.224717
H4    H     H_    0.649914 0.683613 0.054496 0.163775
H5    H     H_    0.504352 0.682595 0.048246 0.129862
H6    H     H_    0.396829 0.404500 0.028589 0.254783
H7    H     H_    0.375471 0.822727 0.505863 0.147151
H8    H     H_    0.509266 0.017586 0.679879 0.143290
H9    H     H_    0.633965 0.975048 0.561249 0.172132
H10   H     H_    0.992967 0.323273 0.509243 0.155085
H11   H     H_    0.146343 0.572873 0.627702 0.178806
H12   H     H_    0.945491 0.237689 0.116649 0.102320
H13   H     H_    0.012941 0.344516 0.355963 0.138387
H14   H     H_    0.018707 0.561372 0.485116 0.156438
H15   H     H_    0.070802 0.158730 0.158629 0.152493
H16   H     H_    0.216374 0.018786 0.086126 0.168928
H17   H     H_    0.625637 0.323092 0.894638 0.104482
H18   H     H_    0.994388 0.981747 0.056235 0.151745
H19   H     H_    0.981373 0.325441 0.651978 0.156483
H20   H     H_    0.798449 0.678375 0.074842 0.136235
H21   H     H_    0.654944 0.172363 0.829535 0.107010
H22   H     H_    0.123958 0.821718 0.953842 0.150995
H23   H     H_    0.127500 0.250628 0.953203 0.132494
H24   H     H_    0.065697 0.675964 0.373854 0.115515
H25   H     H_    0.883259 0.042618 0.589360 0.358135
H26   H     H_    0.186335 0.323954 0.592129 0.341031
H27   H     H_    0.312588 0.838641 0.970277 0.341719
H28   H     H_    0.342026 0.196162 0.996442 0.345055
H29   H     H_    0.197365 0.802658 0.374028 0.124885
H30   H     H_    0.878828 0.323864 0.193449 0.110674
H31   H     H_    0.352420 0.675809 0.027962 0.156083
H32   H     H_    0.508525 0.429873 0.788176 0.195401
H33   H     H_    0.571334 0.574896 0.858341 0.211019
H34   H     H_    0.482808 0.324411 0.895575 0.132358
I1    I     I_    0.986074 0.881129 0.226419 -0.410996
I2    I     I_    0.123925 0.247290 0.763750 -0.405226
I3    I     I_    0.412605 0.638029 0.825378 -0.391105
I4    I     I_    0.503232 0.630877 0.202649 -0.331027
I5    I     I_    0.586159 0.390960 0.109840 -0.352191
I6    I     I_    0.509352 0.048673 0.420701 -0.323209
N1    N     N_R   0.993980 0.704500 0.053430 -0.072122
N2    N     N_R   0.053690 0.556380 0.849240 -0.065757
N3    N     N_R   0.790390 0.443640 0.997160 -0.040889
N4    N     N_R   0.998260 0.443670 0.792970 -0.064722
N5    N     N_R   0.845830 0.556350 0.053430 -0.038183
N6    N     N_R   0.792820 0.295510 0.849240 -0.056295
N7    N     N_R   0.051260 0.704510 0.997160 -0.055841
N8    N     N_R   0.001740 0.556330 0.207030 -0.046370
N9    N     N_R   0.154170 0.443650 0.946570 -0.065527
N10   N     N_R   0.207180 0.704490 0.150760 -0.044047
N11   N     N_R   0.948740 0.295490 0.002840 -0.051695
N12   N     N_R   0.006020 0.295500 0.946570 -0.053190
N13   N     N_R   0.149890 0.704480 0.207030 -0.046059
N14   N     N_R   0.946310 0.443620 0.150760 -0.049898
N15   N     N_R   0.209610 0.556360 0.002840 -0.048663
N16   N     N_R   0.850110 0.295520 0.792970 -0.078265
Ni1   Ni    Ni4+2 0.997880 0.629240 0.129060 0.260424
Ni2   Ni    Ni4+2 0.002120 0.370760 0.870940 0.259420
Ni3   Ni    Ni4+2 0.129260 0.629260 0.000000 0.263003
Ni4   Ni    Ni4+2 0.870740 0.370740 0.000000 0.233189
O1    O     O_2   0.812910 0.156969 0.550411 -0.620203
O2    O     O_R   0.866880 0.077649 0.647754 -0.770080
O3    O     O_2   0.318930 0.304296 0.711061 -0.633155
O4    O     O_R   0.240407 0.397952 0.660452 -0.770519
O5    O     O_2   0.188946 0.741595 0.778696 -0.628341
O6    O     O_R   0.255559 0.763676 0.948426 -0.830553
O7    O     O_2   0.300267 0.307302 0.115259 -0.619930
O8    O     O_R   0.284765 0.147218 0.005202 -0.779564

loop_
_geom_bond_atom_site_label_1
_geom_bond_atom_site_label_2
_ccdc_geom_bond_type
N8    Ni1   S    
C5    N15   A    
C16   N2    A    
N8    N14   A    
C27   C29   D    
C19   I4    S    
N16   Ni2   S    
H25   O2    S    
H28   O8    S    
N11   Ni4   S    
C46   H1    S    
N6    Ni4   S    
C33   C39   S    
C13   C18   S    
C7    C45   A    
N2    Ni3   S    
C37   H21   S    
C10   C15   S    
H26   O4    S    
C38   C39   A    
C47   N11   A    
C23   C26   S    
C12   C37   A    
C27   H13   S    
N5    Ni1   S    
C47   H12   S    
C36   N5    A    
C42   O6    S    
C14   H4    S    
N11   N12   A    
C24   H9    S    
C7    C17   S    
C41   O4    S    
C38   N7    A    
N14   Ni4   S    
C4    C12   A    
C26   H11   S    
C15   C34   S    
C43   O7    D    
C35   N4    A    
C3    C6    A    
C46   N10   A    
C21   I6    S    
C28   C34   A    
C6    C44   A    
C20   H7    S    
C14   C19   S    
C33   H18   S    
C8    C21   S    
C9    C31   S    
N13   Ni1   S    
C48   N12   A    
C31   H15   S    
C32   H16   S    
C5    C7    A    
C10   H32   S    
C22   H8    S    
C2    N13   A    
C25   C26   D    
C13   H34   S    
N10   Ni3   S    
N1    N7    A    
C4    C40   S    
C44   N8    A    
C43   O8    S    
N3    N5    A    
C1    C39   A    
N2    N4    A    
C14   H3    S    
C35   H19   S    
C13   I5    S    
C17   C18   S    
H27   O6    S    
N9    N15   A    
N7    Ni3   S    
N9    Ni2   S    
C3    N14   A    
N4    Ni2   S    
C38   H22   S    
C20   C22   S    
C9    C47   A    
C16   C23   A    
C23   C35   A    
C13   C15   S    
C25   C27   S    
C22   C24   D    
C30   C43   S    
C45   I2    S    
C5    H31   S    
C25   H10   S    
C48   H23   S    
C16   C42   S    
C42   O5    D    
C18   H2    S    
C29   H14   S    
C11   C17   S    
C1    N1    A    
N3    Ni4   S    
C2    C8    A    
C40   O2    S    
C36   H20   S    
C40   O1    D    
C1    I1    S    
N10   N13   A    
C12   C24   S    
C10   H33   S    
N12   Ni2   S    
C32   C33   D    
C28   H17   S    
C2    H29   S    
C45   N9    A    
C30   C32   S    
C19   H5    S    
C30   C31   D    
C11   I3    S    
C4    N16   A    
C17   C19   S    
C37   N6    A    
C44   H24   S    
C28   N3    A    
C34   C36   A    
C8    C46   A    
C10   C11   S    
C18   H6    S    
N6    N16   A    
C6    C29   S    
C20   C21   D    
C9    C48   A    
C41   O3    D    
C11   C41   S    
N1    Ni1   S    
C14   C15   S    
N15   Ni3   S    
C3    H30   S    
