data_mof_unit_62911.cif
_audit_creation_date              2012-12-11T15:59:29-0500
_audit_creation_method            fapswitch 2.2
_symmetry_space_group_name_H-M    P1
_symmetry_Int_Tables_number       1
_space_group_crystal_system       triclinic
_cell_length_a                    6.960155
_cell_length_b                    20.137533
_cell_length_c                    21.720389
_cell_angle_alpha                 92.825086
_cell_angle_beta                  89.160301
_cell_angle_gamma                 90.552887
_cell_volume                      3040.18941366

loop_
_atom_site_label
_atom_site_type_symbol
_atom_type_description
_atom_site_fract_x
_atom_site_fract_y
_atom_site_fract_z
_atom_type_partial_charge
O1    O     O_R   0.505910 0.557140 0.441630 -0.520075
O2    O     O_R   0.175760 0.566370 0.557960 -0.522910
O3    O     O_R   0.005440 0.442860 0.558370 -0.530822
C1    C     C_R   0.344359 0.584138 0.580674 0.717280
O4    O     O_R   0.176200 0.564760 0.442040 -0.521212
O5    O     O_R   0.005880 0.441250 0.441620 -0.520125
C2    C     C_R   0.346844 0.582504 0.419593 0.700366
O6    O     O_R   0.505470 0.558750 0.558380 -0.519987
O7    O     O_3   0.339200 0.459480 0.500000 -0.351741
V1    V     V_3+5 0.064350 0.507520 0.500000 1.421516
O8    O     O_R   0.676160 0.433630 0.442040 -0.521648
C3    C     C_R   0.845498 0.415473 0.419863 0.721445
O9    O     O_R   0.675730 0.435240 0.557960 -0.530879
C4    C     C_R   0.842963 0.420359 0.577579 0.743348
V2    V     V_3+5 0.564340 0.492480 0.500000 1.429546
O10   O     O_3   0.839360 0.540520 0.500000 -0.358466
C5    C     C_3   0.047117 0.307971 0.751449 -0.487049
C6    C     C_3   0.688577 0.289057 0.750310 -0.316803
C7    C     C_3   0.706039 0.239174 0.801587 -0.298133
H1    H     H_    0.027525 0.359162 0.772213 0.215325
H2    H     H_    0.561494 0.275824 0.721534 0.185157
H3    H     H_    0.664355 0.339824 0.771471 0.158943
H4    H     H_    0.687506 0.265676 0.847451 0.206660
H5    H     H_    0.588746 0.201333 0.797011 0.143512
C8    C     C_1   0.928948 0.119387 0.883747 -0.174090
C9    C     C_3   0.874143 0.288252 0.710050 0.104426
C10   C     C_3   0.066258 0.258138 0.802826 0.534594
C11   C     C_3   0.904444 0.204837 0.796849 0.100744
C12   C     C_3   0.923103 0.167546 0.732972 -0.489425
C13   C     C_3   0.906347 0.217139 0.681281 0.531749
C14   C     C_1   0.919757 0.158272 0.844678 0.001230
C15   C     C_1   0.858682 0.334845 0.662251 0.002119
C16   C     C_1   0.849455 0.373764 0.623213 -0.174719
H6    H     H_    0.041109 0.216110 0.652999 0.070265
H7    H     H_    0.182117 0.308343 0.723305 0.106928
H8    H     H_    0.209036 0.233754 0.798372 0.045072
C17   C     C_1   0.921683 0.130490 0.138381 -0.201584
C18   C     C_1   0.910227 0.173849 0.181160 0.012070
C19   C     C_1   0.895605 0.225032 0.232027 0.010600
C20   C     C_1   0.883049 0.268165 0.274971 0.010515
C21   C     C_1   0.868427 0.319348 0.325837 0.011817
C22   C     C_1   0.856974 0.362707 0.368616 -0.201993
C23   C     C_1   0.354810 0.635400 0.633663 -0.213417
C24   C     C_1   0.366698 0.677015 0.678110 0.007562
C25   C     C_1   0.382502 0.725971 0.731156 0.005014
C26   C     C_1   0.396168 0.767126 0.775907 0.004984
C27   C     C_1   0.411973 0.816083 0.828953 0.007477
C28   C     C_1   0.423861 0.857702 0.873397 -0.213412
C29   C     C_1   0.360340 0.633880 0.368148 -0.204608
C30   C     C_1   0.371202 0.675733 0.325708 0.016641
C31   C     C_1   0.384108 0.725703 0.274800 0.002649
C32   C     C_1   0.394871 0.767428 0.232246 0.002653
C33   C     C_1   0.407768 0.817397 0.181337 0.016650
C34   C     C_1   0.418604 0.859249 0.138895 -0.204442
O11   O     O_R   0.273200 0.934350 0.948680 -0.520077
O12   O     O_R   0.602630 0.928390 0.064980 -0.521185
O13   O     O_R   0.772790 0.051930 0.065390 -0.520056
C35   C     C_R   0.432020 0.910625 0.087448 0.700584
O14   O     O_R   0.602920 0.926780 0.949060 -0.522957
O15   O     O_R   0.773080 0.050310 0.948640 -0.530391
C36   C     C_R   0.434314 0.908978 0.926373 0.717007
O16   O     O_R   0.272900 0.935970 0.065430 -0.520184
O17   O     O_3   0.439420 0.033650 0.007040 -0.351689
V3    V     V_3+5 0.714330 0.985650 0.007020 1.421998
O18   O     O_R   0.102790 0.057980 0.949020 -0.531856
C37   C     C_R   0.935516 0.072828 0.929410 0.743464
O19   O     O_R   0.102500 0.059590 0.064940 -0.521628
C38   C     C_R   0.933165 0.077724 0.087135 0.721953
V4    V     V_3+5 0.214320 0.000760 0.006970 1.429040
O20   O     O_3   0.939360 0.952680 0.006990 -0.358439
F1    F     F_    0.056797 0.291656 0.860131 -0.667198
H9    H     H_    0.809130 0.128548 0.727974 0.214131
F2    F     F_    0.755867 0.198222 0.642860 -0.670917
H10   H     H_    0.064182 0.141998 0.728665 0.117084

loop_
_geom_bond_atom_site_label_1
_geom_bond_atom_site_label_2
_ccdc_geom_bond_type
C35   O16   A    
C9    C15   S    
C6    H2    S    
C21   C22   T    
O2    C1    A    
C6    C9    S    
C1    O6    A    
C4    C16   S    
C25   C26   T    
C32   C33   S    
O14   V3    S    
C12   C13   S    
C5    C9    S    
C11   C12   S    
O5    C3    A    
C18   C19   S    
V2    O10   S    
C17   C38   S    
C5    H1    S    
C6    C7    S    
C3    C22   S    
O8    V2    S    
O17   V4    S    
O12   V3    S    
O1    V2    S    
V3    O20   S    
O7    V1    S    
C12   H9    S    
O15   C37   A    
O1    C2    A    
O9    C4    A    
O14   C36   A    
C13   H6    S    
O19   C38   A    
C5    C10   S    
C2    C29   S    
C19   C20   T    
O4    C2    A    
C13   F2    S    
C12   H10   S    
C33   C34   T    
C31   C32   T    
O16   V4    S    
O19   V4    S    
C7    H4    S    
C23   C24   T    
C17   C18   T    
C27   C28   T    
C30   C31   S    
C7    C11   S    
O11   V4    S    
O3    C4    A    
C20   C21   S    
C29   C30   T    
O6    V2    S    
O9    V2    S    
O13   C38   A    
O2    V1    S    
C10   F1    S    
C24   C25   S    
O13   V3    S    
C34   C35   S    
C26   C27   S    
C6    H3    S    
C8    C14   T    
C11   C14   S    
C8    C37   S    
O5    V1    S    
O8    C3    A    
C9    C13   S    
C1    C23   S    
C10   H8    S    
O15   V3    S    
C15   C16   T    
C7    H5    S    
O7    V2    S    
O4    V1    S    
O3    V1    S    
V1    O10   S    
C28   C36   S    
O18   V4    S    
O11   C36   A    
O12   C35   A    
V4    O20   S    
O17   V3    S    
O18   C37   A    
C10   C11   S    
C5    H7    S    
