data_mof_unit_26573.cif
_audit_creation_date              2012-12-11T14:08:26-0500
_audit_creation_method            fapswitch 2.2
_symmetry_space_group_name_H-M    P1
_symmetry_Int_Tables_number       1
_space_group_crystal_system       triclinic
_cell_length_a                    10.917672
_cell_length_b                    10.874946
_cell_length_c                    18.738402
_cell_angle_alpha                 90.971397
_cell_angle_beta                  90.921258
_cell_angle_gamma                 60.45052
_cell_volume                      1935.06053872

loop_
_atom_site_label
_atom_site_type_symbol
_atom_type_description
_atom_site_fract_x
_atom_site_fract_y
_atom_site_fract_z
_atom_type_partial_charge
C1    C     C_R   0.238704 0.645812 0.609179 0.558725
C2    C     C_3   0.649347 0.572685 0.798859 -0.246235
C3    C     C_3   0.703901 0.677432 0.810849 0.039336
C4    C     C_3   0.673785 0.650972 0.675048 0.041742
C5    C     C_3   0.829389 0.605579 0.691911 -0.233250
C6    C     C_3   0.629314 0.558691 0.718747 -0.210301
C7    C     C_2   0.677636 0.156362 0.670624 -0.100801
C8    C     C_2   0.686804 0.167260 0.827979 -0.143174
C9    C     C_2   0.798329 0.129073 0.785620 -0.168574
C10   C     C_2   0.779394 0.162707 0.709042 -0.133836
C11   C     C_2   0.206380 0.663560 0.684972 0.013390
C12   C     C_R   0.656020 0.624904 0.600049 0.536186
C13   C     C_2   0.141148 0.685565 0.835293 -0.055141
C14   C     C_2   0.234789 0.565065 0.805418 -0.155280
C15   C     C_2   0.232381 0.551594 0.727481 -0.024918
C16   C     C_2   0.664978 0.675427 0.327994 -0.053315
C17   C     C_2   0.724108 0.736411 0.181071 0.194362
C18   C     C_2   0.811862 0.628291 0.222816 -0.141298
C19   C     C_2   0.793373 0.621510 0.299670 -0.121998
C20   C     C_2   0.599572 0.261317 0.313478 -0.075380
C21   C     C_2   0.633653 0.212204 0.161702 -0.087710
C22   C     C_2   0.509453 0.259953 0.193971 -0.104243
C23   C     C_R   0.628729 0.227841 0.602069 0.566098
C24   C     C_2   0.489822 0.309239 0.268250 -0.147015
C25   C     C_2   0.111615 0.686424 0.346405 -0.118608
C26   C     C_2   0.058136 0.721617 0.194517 -0.122911
C27   C     C_2   0.993132 0.828218 0.241612 -0.128745
C28   C     C_2   0.037896 0.815772 0.317057 0.040148
C29   C     C_R   0.702900 0.101926 0.897447 0.541674
C30   C     C_R   0.726034 0.689907 0.887256 0.550493
C31   C     C_R   0.118941 0.705127 0.908914 0.557199
C32   C     C_R   0.673124 0.115026 0.101538 0.568036
C33   C     C_R   0.737872 0.722660 0.103466 0.585865
C34   C     C_R   0.212777 0.652663 0.404846 0.560900
C35   C     C_R   0.026161 0.747927 0.119505 0.547128
C36   C     C_R   0.644181 0.626086 0.395525 0.531709
C37   C     C_R   0.578282 0.296586 0.388250 0.565980
C38   C     C_3   0.597112 0.823395 0.778006 -0.214171
C39   C     C_3   0.580745 0.807928 0.697257 -0.232828
C40   C     C_3   0.846804 0.623251 0.771892 -0.226124
Cr1   Cr    Cr6+3 0.393010 0.398050 0.501480 1.064769
Cr2   Cr    Cr6+3 0.398820 0.707980 0.501630 1.076026
Cr3   Cr    Cr6+3 0.708140 0.393940 0.496850 1.050832
Cr4   Cr    Cr6+3 0.937950 0.938450 0.008940 1.039387
Cr5   Cr    Cr6+3 0.626180 0.937030 0.994750 1.055663
Cr6   Cr    Cr6+3 0.937790 0.625760 0.001410 1.019451
H1    H     H_    0.634518 0.900896 0.787386 0.138689
H2    H     H_    0.693335 0.445864 0.702974 0.127017
H3    H     H_    0.928679 0.519794 0.793463 0.160215
H4    H     H_    0.898977 0.492723 0.676986 0.183302
H5    H     H_    0.904941 0.069179 0.806600 0.185028
H6    H     H_    0.847214 0.197001 0.684998 0.178463
H7    H     H_    0.580682 0.229235 0.806676 0.149785
H8    H     H_    0.615546 0.114947 0.694539 0.139398
H9    H     H_    0.304957 0.475180 0.838035 0.147677
H10   H     H_    0.056564 0.768443 0.804592 0.105310
H11   H     H_    0.492901 0.866598 0.804007 0.160125
H12   H     H_    0.898077 0.533927 0.199205 0.128863
H13   H     H_    0.885651 0.549034 0.330387 0.143351
H14   H     H_    0.570360 0.739132 0.297050 0.179737
H15   H     H_    0.425601 0.247513 0.169091 0.183579
H16   H     H_    0.383066 0.373057 0.287809 0.131274
H17   H     H_    0.714259 0.232849 0.183984 0.109444
H18   H     H_    0.706830 0.192429 0.296241 0.145048
H19   H     H_    0.913968 0.931594 0.222533 0.170716
H20   H     H_    0.467964 0.845605 0.684545 0.183213
H21   H     H_    0.140172 0.616931 0.209654 0.099871
H22   H     H_    0.111263 0.595982 0.321225 0.070754
H23   H     H_    0.612631 0.875290 0.667579 0.117608
H24   H     H_    0.885210 0.699953 0.780160 0.113565
H25   H     H_    0.863192 0.670091 0.661012 0.144108
H26   H     H_    0.725632 0.467346 0.820901 0.131355
H27   H     H_    0.547501 0.610468 0.826752 0.159470
H28   H     H_    0.517433 0.589994 0.707350 0.160603
O1    O     O_R   0.507110 0.256280 0.580300 -0.486653
O2    O     O_R   0.524640 0.695370 0.425100 -0.491348
O3    O     O_R   0.735890 0.504390 0.415980 -0.525262
O4    O     O_R   0.690560 0.277820 0.422350 -0.476881
O5    O     O_3   0.499990 0.499990 0.499980 -0.299460
O6    O     O_R   0.089190 0.825870 0.932320 -0.497709
O7    O     O_R   0.819070 0.053960 0.931440 -0.497380
O8    O     O_R   0.607070 0.076440 0.916460 -0.513603
O9    O     O_R   0.647110 0.806550 0.917690 -0.504009
O10   O     O_R   0.837080 0.593860 0.915300 -0.517617
O11   O     O_R   0.064770 0.636080 0.932550 -0.502514
O12   O     O_R   0.280830 0.527190 0.577940 -0.469711
O13   O     O_R   0.068250 0.829200 0.092940 -0.474348
O14   O     O_R   0.799650 0.057040 0.080330 -0.521077
O15   O     O_R   0.586130 0.079760 0.077080 -0.479907
O16   O     O_R   0.627700 0.809630 0.066580 -0.444437
O17   O     O_R   0.816140 0.597180 0.075920 -0.536242
O18   O     O_R   0.045360 0.639170 0.081440 -0.516835
O19   O     O_3   0.833980 0.833750 0.001700 -0.309947
O20   O     O_R   0.261360 0.738990 0.584270 -0.479642
O21   O     O_R   0.532590 0.694780 0.574370 -0.508200
O22   O     O_R   0.744470 0.503750 0.577000 -0.520857
O23   O     O_R   0.698520 0.277230 0.571620 -0.487333
O24   O     O_R   0.498530 0.256920 0.419280 -0.480015
O25   O     O_R   0.272880 0.527780 0.428680 -0.527956
O26   O     O_R   0.252780 0.739630 0.423250 -0.465860
C41   C     C_2   0.250893 0.414075 0.700419 0.590883
O27   O     O_2   0.338516 0.303956 0.728173 -0.557519
O28   O     O_R   0.162041 0.410751 0.646774 -0.697710
H29   H     H_    0.183417 0.311085 0.634248 0.337849
C42   C     C_2   0.188878 0.801130 0.714259 0.542898
O29   O     O_2   0.092023 0.912749 0.692463 -0.522801
O30   O     O_R   0.284990 0.802134 0.764129 -0.742039
H30   H     H_    0.259480 0.901439 0.780002 0.334323
Cl1   Cl    Cl    0.607415 0.906267 0.216347 -0.628720
C43   C     C_2   0.004361 0.948578 0.356350 0.614621
O31   O     O_2   0.984203 0.957983 0.420740 -0.477295
O32   O     O_R   0.990947 0.064847 0.318947 -0.710307
H31   H     H_    0.966254 0.149654 0.351129 0.343809

loop_
_geom_bond_atom_site_label_1
_geom_bond_atom_site_label_2
_ccdc_geom_bond_type
C7    C10   D    
C41   O27   D    
C31   O11   A    
Cr5   O8    S    
C1    C11   S    
C10   H6    S    
C31   O6    A    
C2    C6    S    
C25   C28   D    
Cr1   O12   S    
C42   O30   S    
C26   C27   D    
C40   H24   S    
C26   H21   S    
C36   O3    A    
C33   O17   A    
C38   C39   S    
Cr6   O18   S    
C35   O13   A    
C40   H3    S    
C32   O14   A    
C18   C19   S    
C16   H14   S    
C30   O9    A    
C43   O31   D    
C37   O24   A    
Cr4   O19   S    
C36   O2    A    
C11   C15   D    
C18   H12   S    
C20   C24   D    
C3    C38   S    
C8    C9    D    
C9    H5    S    
C11   C42   S    
C34   O26   A    
O30   H30   S    
Cr1   O25   S    
C12   O21   A    
C4    C12   S    
Cr4   O13   S    
Cr5   O15   S    
C9    C10   S    
C25   C34   S    
Cr6   O11   S    
C35   O18   A    
C14   H9    S    
Cr5   O19   S    
Cr2   O5    S    
C41   O28   S    
C13   C14   D    
Cr5   O9    S    
C25   H22   S    
C17   C33   S    
C2    H26   S    
O32   H31   S    
C6    H28   S    
C21   C32   S    
Cr2   O21   S    
Cr4   O6    S    
C4    C6    S    
Cr4   O7    S    
C1    O20   A    
Cr6   O17   S    
C19   H13   S    
Cr3   O4    S    
C20   H18   S    
C3    C30   S    
C29   O7    A    
C27   H19   S    
Cr2   O26   S    
Cr1   O1    S    
C38   H11   S    
Cr3   O22   S    
C32   O15   A    
C14   C15   S    
C4    C39   S    
C17   C18   D    
C39   H23   S    
C15   C41   S    
Cr5   O16   S    
C38   H1    S    
C2    H27   S    
C6    H2    S    
Cr6   O10   S    
C23   O23   A    
C3    C40   S    
C39   H20   S    
C22   C24   S    
C5    H4    S    
C8    C29   S    
C27   C28   S    
C42   O29   D    
C1    O12   A    
C24   H16   S    
Cr2   O20   S    
C13   C31   S    
Cr3   O23   S    
C23   O1    A    
C4    C5    S    
C17   Cl1   S    
C8    H7    S    
Cr1   O5    S    
Cr3   O3    S    
C34   O25   A    
C37   O4    A    
Cr2   O2    S    
C28   C43   S    
C13   H10   S    
C2    C3    S    
C29   O8    A    
C5    H25   S    
Cr4   O14   S    
C33   O16   A    
C16   C36   S    
C22   H15   S    
C20   C37   S    
Cr6   O19   S    
C16   C19   D    
C7    C23   S    
C30   O10   A    
C43   O32   S    
C21   H17   S    
C26   C35   S    
C5    C40   S    
O28   H29   S    
Cr1   O24   S    
C12   O22   A    
C7    H8    S    
C21   C22   D    
Cr3   O5    S    
