data_mof_unit_5458.cif
_audit_creation_date              2012-10-26T20:08:07-0400
_audit_creation_method            fapswitch 2.2
_symmetry_space_group_name_H-M    P1
_symmetry_Int_Tables_number       1
_space_group_crystal_system       triclinic
_cell_length_a                    10.899574
_cell_length_b                    10.828891
_cell_length_c                    9.564704
_cell_angle_alpha                 90.027636
_cell_angle_beta                  90.912598
_cell_angle_gamma                 90.23761
_cell_volume                      1128.77179581

loop_
_atom_site_label
_atom_site_type_symbol
_atom_type_description
_atom_site_fract_x
_atom_site_fract_y
_atom_site_fract_z
_atom_type_partial_charge
C1    C     C_R   0.499922 0.262214 0.499939 0.550310
C2    C     C_R   0.505065 0.063939 0.626963 -0.143114
C3    C     C_R   0.499733 0.871674 0.500034 0.020778
C4    C     C_R   0.499817 0.128266 0.499946 0.021694
C5    C     C_R   0.471935 0.395414 0.073477 0.012494
C6    C     C_R   0.527177 0.604801 0.926491 0.014896
C7    C     C_R   0.471875 0.395463 0.925348 0.001792
C8    C     C_R   0.526274 0.604966 0.074597 0.012029
C9    C     C_R   0.262291 0.503148 0.498505 0.546164
C10   C     C_R   0.737792 0.501363 0.501461 0.547710
C11   C     C_R   0.206645 0.681113 0.075107 -0.107674
C12   C     C_R   0.499921 0.737768 0.500054 0.545677
C13   C     C_R   0.816441 0.487186 0.993265 -0.101168
C14   C     C_R   0.154921 0.654223 0.204124 -0.056872
C15   C     C_R   0.854992 0.455270 0.859440 -0.062605
C16   C     C_R   0.112051 0.534467 0.232520 0.065160
C17   C     C_R   0.889493 0.547954 0.765459 0.064757
C18   C     C_R   0.119389 0.442502 0.129884 -0.083007
C19   C     C_R   0.886185 0.672262 0.806739 -0.084857
C20   C     C_R   0.171775 0.469694 0.001075 -0.108410
C21   C     C_R   0.849012 0.703665 0.941029 -0.125979
C22   C     C_R   0.215460 0.588895 0.973915 -0.094719
C23   C     C_R   0.871831 0.503282 0.504013 -0.006804
C24   C     C_R   0.814900 0.611253 0.034435 -0.108146
C25   C     C_R   0.932111 0.496987 0.376151 -0.159004
C26   C     C_R   0.068250 0.511675 0.623225 -0.159468
C27   C     C_R   0.128275 0.507192 0.495671 -0.008962
C28   C     C_R   0.941563 0.516139 0.628984 -0.034542
C29   C     C_R   0.058666 0.507581 0.369933 -0.033892
C30   C     C_R   0.494434 0.063732 0.372974 -0.142576
C31   C     C_R   0.505020 0.936191 0.627007 -0.142790
C32   C     C_R   0.494309 0.935980 0.373014 -0.144854
Cu1   Cu    Cu3+1 0.500000 0.500020 0.640660 0.927743
Cu2   Cu    Cu3+1 0.500000 0.499980 0.359340 0.933068
H1    H     H_    0.257296 0.610020 0.875000 0.131715
H2    H     H_    0.847117 0.799530 0.972912 0.097356
H3    H     H_    0.880440 0.490114 0.279549 0.131439
H4    H     H_    0.120132 0.517489 0.719644 0.133125
H5    H     H_    0.490149 0.111611 0.273653 0.113664
H6    H     H_    0.509335 0.888308 0.726332 0.113347
H7    H     H_    0.489791 0.887917 0.273719 0.113538
H8    H     H_    0.509475 0.111988 0.726263 0.114611
H9    H     H_    0.447868 0.311394 0.127402 0.104002
H10   H     H_    0.550803 0.688966 0.872606 0.109532
H11   H     H_    0.447707 0.311481 0.870419 0.103415
H12   H     H_    0.785437 0.636427 0.138003 0.117338
H13   H     H_    0.548943 0.689389 0.129426 0.100334
H14   H     H_    0.240733 0.773123 0.053925 0.088384
H15   H     H_    0.788324 0.415698 0.065110 0.107175
H16   H     H_    0.149039 0.726194 0.282405 0.094720
H17   H     H_    0.858807 0.358956 0.829364 0.096771
H18   H     H_    0.086021 0.350018 0.150267 0.092422
H19   H     H_    0.914520 0.744427 0.735662 0.099740
H20   H     H_    0.179375 0.398040 0.922841 0.098556
N1    N     N_R   0.500030 0.500030 0.852070 -0.226572
N2    N     N_R   0.499970 0.499970 0.147930 -0.219921
O1    O     O_R   0.499990 0.319660 0.618740 -0.516201
O2    O     O_R   0.500010 0.680340 0.381260 -0.518399
O3    O     O_R   0.499990 0.319630 0.381170 -0.516545
O4    O     O_R   0.500010 0.680370 0.618830 -0.519407
O5    O     O_R   0.319650 0.500020 0.618780 -0.518444
O6    O     O_R   0.680350 0.499980 0.381220 -0.515351
O7    O     O_R   0.319640 0.500000 0.381210 -0.481764
O8    O     O_R   0.680360 0.500000 0.618790 -0.483405

loop_
_geom_bond_atom_site_label_1
_geom_bond_atom_site_label_2
_ccdc_geom_bond_type
Cu1   N1    S    
C2    C4    A    
C32   H7    S    
Cu2   N2    S    
C15   H17   S    
C10   C23   S    
C27   C29   A    
C5    C7    A    
C11   C22   A    
C26   C28   A    
C7    N1    A    
C6    N1    A    
C1    C4    S    
C12   O2    A    
C19   H19   S    
C13   C15   A    
Cu1   Cu2   S    
C5    H9    S    
C8    H13   S    
C24   H12   S    
Cu1   O1    S    
C21   H2    S    
C10   O6    A    
C23   C28   A    
C3    C31   A    
C22   H1    S    
C1    O1    A    
C8    N2    A    
C11   H14   S    
Cu2   O3    S    
C2    H8    S    
Cu1   O8    S    
C9    O5    A    
C15   C17   A    
C7    H11   S    
C16   C18   A    
Cu2   O7    S    
C17   C19   A    
C20   C22   A    
C30   H5    S    
Cu1   O4    S    
C18   C20   A    
C1    O3    A    
C26   C27   A    
C3    C32   A    
C11   C14   A    
C14   C16   A    
C4    C30   A    
C14   H16   S    
C18   H18   S    
C30   C32   A    
Cu2   O6    S    
C23   C25   A    
C31   H6    S    
C9    C27   S    
C25   C29   A    
C20   H20   S    
C6    H10   S    
C21   C24   A    
Cu2   O2    S    
C26   H4    S    
C6    C8    A    
C3    C12   S    
C5    N2    A    
C13   H15   S    
C19   C21   A    
C16   C29   S    
C9    O7    A    
C17   C28   S    
Cu1   O5    S    
C10   O8    A    
C13   C24   A    
C25   H3    S    
C2    C31   A    
C12   O4    A    
