data_mof_unit_17277.cif
_audit_creation_date              2012-12-10T16:55:47-0500
_audit_creation_method            fapswitch 2.2
_symmetry_space_group_name_H-M    P1
_symmetry_Int_Tables_number       1
_space_group_crystal_system       triclinic
_cell_length_a                    7.841026
_cell_length_b                    8.556158
_cell_length_c                    10.4923
_cell_angle_alpha                 92.225493
_cell_angle_beta                  84.533479
_cell_angle_gamma                 93.644831
_cell_volume                      698.919065601

loop_
_atom_site_label
_atom_site_type_symbol
_atom_type_description
_atom_site_fract_x
_atom_site_fract_y
_atom_site_fract_z
_atom_type_partial_charge
C1    C     C_R   0.545484 0.794449 0.496797 0.963828
C2    C     C_3   0.499140 0.504726 0.877290 -0.020037
C3    C     C_3   0.362399 0.410233 0.047724 -0.216685
C4    C     C_3   0.637601 0.589767 0.952276 -0.216681
C5    C     C_2   0.569371 0.958049 0.494922 -0.376969
C6    C     C_2   0.430629 0.041951 0.505078 -0.376970
C7    C     C_3   0.192135 0.633474 0.945135 -0.886205
C8    C     C_3   0.807866 0.366525 0.054862 -0.886243
C9    C     C_1   0.024524 0.342568 0.386679 0.392101
C10   C     C_1   0.975476 0.657431 0.613321 0.392101
C11   C     C_R   0.454516 0.205551 0.503203 0.963829
C12   C     C_R   0.500500 0.504195 0.742299 0.880512
C13   C     C_R   0.499500 0.495805 0.257700 0.880514
C14   C     C_3   0.356185 0.561181 0.973922 0.258847
C15   C     C_3   0.643816 0.438819 0.026078 0.258855
C16   C     C_3   0.493062 0.646792 0.051067 -0.230759
C17   C     C_3   0.506939 0.353208 0.948933 -0.230755
C18   C     C_3   0.500860 0.495274 0.122710 -0.020035
H1    H     H_    0.486241 0.765772 0.096780 0.146539
H2    H     H_    0.881356 0.331419 0.963733 0.235988
H3    H     H_    0.888082 0.452928 0.108159 0.251392
H4    H     H_    0.775460 0.261472 0.113237 0.243173
H5    H     H_    0.513759 0.234228 0.903220 0.146539
H6    H     H_    0.249904 0.337740 0.089197 0.166048
H7    H     H_    0.750096 0.662260 0.910802 0.166048
H8    H     H_    0.700525 0.008875 0.485193 0.185809
H9    H     H_    0.299475 0.991125 0.514807 0.185809
H10   H     H_    0.118653 0.668600 0.036266 0.235986
H11   H     H_    0.224542 0.738517 0.886743 0.243170
H12   H     H_    0.111910 0.547060 0.891851 0.251383
N1    N     N_2   0.950320 0.457950 0.465730 -0.151593
N2    N     N_2   0.049680 0.542050 0.534270 -0.151593
N3    N     N_1   0.084338 0.245413 0.320209 -0.275464
N4    N     N_1   0.915662 0.754587 0.679791 -0.275464
O1    O     O_R   0.389250 0.738570 0.508410 -0.624051
O2    O     O_R   0.610750 0.261430 0.491590 -0.624050
O3    O     O_R   0.678390 0.711620 0.486450 -0.628327
O4    O     O_R   0.321610 0.288380 0.513550 -0.628327
O5    O     O_R   0.355460 0.513510 0.697030 -0.626790
O6    O     O_R   0.644540 0.486490 0.302970 -0.626789
O7    O     O_R   0.644600 0.486560 0.675070 -0.630516
O8    O     O_R   0.355400 0.513440 0.324930 -0.630517
Zn1   Zn    Zn3+2 0.306940 0.517990 0.514670 0.943172
Zn2   Zn    Zn3+2 0.693060 0.482010 0.485330 0.943173

loop_
_geom_bond_atom_site_label_1
_geom_bond_atom_site_label_2
_ccdc_geom_bond_type
C4    C16   S    
C11   O4    A    
C8    H4    S    
C3    C17   S    
C12   O7    A    
C7    H11   S    
C15   C18   S    
O1    Zn1   S    
C2    C4    S    
N1    N2    D    
C1    O3    A    
C2    C12   S    
C12   O5    A    
C8    H3    S    
O4    Zn1   S    
C10   N4    T    
C7    H12   S    
C8    H2    S    
C2    C17   S    
C9    N3    T    
C3    H6    S    
C17   H5    S    
C3    C14   S    
C13   C18   S    
C4    C15   S    
C16   H1    S    
C1    C5    S    
C13   O8    A    
N2    Zn1   S    
C4    H7    S    
C8    C15   S    
C5    C6    D    
C2    C14   S    
O7    Zn2   S    
C14   C16   S    
O2    Zn2   S    
N1    Zn2   S    
C9    N1    S    
C5    H8    S    
O3    Zn2   S    
C10   N2    S    
O6    Zn2   S    
C1    O1    A    
C3    C18   S    
C16   C18   S    
O8    Zn1   S    
C6    C11   S    
C15   C17   S    
C11   O2    A    
C13   O6    A    
O5    Zn1   S    
C7    C14   S    
C7    H10   S    
C6    H9    S    
