data_mof_unit_62952.cif
_audit_creation_date              2012-10-26T17:38:35-0400
_audit_creation_method            fapswitch 2.2
_symmetry_space_group_name_H-M    P1
_symmetry_Int_Tables_number       1
_space_group_crystal_system       triclinic
_cell_length_a                    21.598042
_cell_length_b                    21.59061
_cell_length_c                    47.311413
_cell_angle_alpha                 90.028873
_cell_angle_beta                  90.016024
_cell_angle_gamma                 90.076225
_cell_volume                      22061.9937049

loop_
_atom_site_label
_atom_site_type_symbol
_atom_type_description
_atom_site_fract_x
_atom_site_fract_y
_atom_site_fract_z
_atom_type_partial_charge
C1    C     C_R   0.000201 0.120269 0.000163 0.578434
C2    C     C_3   0.000006 0.189277 0.000230 -0.058690
C3    C     C_R   0.500081 0.119989 0.499308 0.648995
C4    C     C_R   0.499961 0.999947 0.945440 0.579751
C5    C     C_R   0.999992 0.499999 0.945445 0.579098
C6    C     C_R   0.999999 0.499986 0.445444 0.579987
C7    C     C_R   0.499993 0.999999 0.445718 0.620186
C8    C     C_R   0.495306 0.944202 0.130672 -0.050540
C9    C     C_R   0.050554 0.475559 0.130032 -0.050596
C10   C     C_R   0.504669 0.055930 0.130686 -0.050503
C11   C     C_R   0.949539 0.524312 0.130050 -0.050597
C12   C     C_R   0.973053 0.450777 0.629984 -0.050241
C13   C     C_3   0.810736 0.000244 0.000212 -0.058768
C14   C     C_R   0.550657 0.973216 0.629816 -0.052777
C15   C     C_R   0.026835 0.549378 0.630005 -0.050481
C16   C     C_R   0.450744 0.024172 0.630258 -0.048854
C17   C     C_R   0.495416 0.944127 0.101110 -0.107568
C18   C     C_R   0.050823 0.476120 0.100540 -0.109096
C19   C     C_R   0.504565 0.055970 0.101122 -0.107608
C20   C     C_R   0.949243 0.523807 0.100557 -0.109157
C21   C     C_R   0.973658 0.450421 0.600492 -0.108920
C22   C     C_R   0.550638 0.974332 0.600337 -0.108435
C23   C     C_R   0.026262 0.549694 0.600513 -0.109132
C24   C     C_3   0.999973 0.810723 0.000207 -0.058547
C25   C     C_R   0.450114 0.024169 0.600748 -0.109647
C26   C     C_R   0.020104 0.448737 0.809351 0.471075
C27   C     C_R   0.552855 0.018301 0.809373 0.470394
C28   C     C_R   0.979754 0.551368 0.809375 0.470774
C29   C     C_R   0.451310 0.975283 0.809243 0.468427
C30   C     C_R   0.546244 0.970210 0.310435 0.467815
C31   C     C_R   0.050095 0.522865 0.309282 0.465232
C32   C     C_R   0.453655 0.029832 0.310438 0.467831
C33   C     C_R   0.950021 0.476847 0.309254 0.465225
C34   C     C_R   0.979650 0.553091 0.779470 0.018785
C35   C     C_3   0.689243 0.499621 0.500217 -0.059139
C36   C     C_R   0.452395 0.968890 0.779494 0.016937
C37   C     C_R   0.020209 0.447030 0.779446 0.018857
C38   C     C_R   0.554817 0.017881 0.779456 0.018496
C39   C     C_R   0.453348 0.032307 0.280485 0.018870
C40   C     C_R   0.951012 0.471367 0.279464 0.016690
C41   C     C_R   0.546568 0.967763 0.280481 0.018870
C42   C     C_R   0.049124 0.528337 0.279494 0.016712
C43   C     C_R   0.999932 0.500065 0.764439 -0.110343
C44   C     C_R   0.503487 0.993453 0.764440 -0.110703
C45   C     C_R   0.499963 0.000044 0.265407 -0.108429
C46   C     C_3   0.499715 0.689308 0.500219 -0.058735
C47   C     C_R   0.000070 0.499853 0.264421 -0.110416
C48   C     C_R   0.499993 0.000039 0.085975 0.041297
C49   C     C_R   0.000026 0.499978 0.085577 0.038592
C50   C     C_R   0.999972 0.500044 0.585547 0.038010
C51   C     C_R   0.500216 0.999510 0.585575 0.038756
C52   C     C_R   0.959980 0.606198 0.764363 0.161011
C53   C     C_R   0.403537 0.939647 0.764562 0.163190
C54   C     C_R   0.039877 0.393930 0.764313 0.160809
C55   C     C_R   0.606544 0.040852 0.764319 0.161443
C56   C     C_R   0.407851 0.065976 0.265391 0.157516
C57   C     C_3   0.310757 0.500385 0.500205 -0.059205
C58   C     C_R   0.903962 0.439399 0.264522 0.162754
C59   C     C_R   0.592071 0.934106 0.265382 0.157522
C60   C     C_R   0.096186 0.560297 0.264582 0.162758
C61   C     C_R   0.452546 0.031516 0.220301 0.017436
C62   C     C_R   0.951830 0.469394 0.219441 0.017522
C63   C     C_R   0.547412 0.968621 0.220299 0.017435
C64   C     C_R   0.048318 0.530331 0.219471 0.017522
C65   C     C_R   0.976552 0.551939 0.719446 0.018746
C66   C     C_R   0.452688 0.967178 0.719457 0.018286
C67   C     C_R   0.023329 0.448219 0.719424 0.018885
C68   C     C_3   0.500275 0.310691 0.500195 -0.058819
C69   C     C_R   0.552949 0.021400 0.719449 0.018488
C70   C     C_3   0.215499 0.986375 0.030942 0.468156
C71   C     C_3   0.012165 0.215605 0.031052 0.468951
C72   C     C_3   0.784526 0.013455 0.030946 0.468070
C73   C     C_3   0.987738 0.784457 0.031020 0.468940
C74   C     C_3   0.715471 0.485643 0.530873 0.468678
C75   C     C_3   0.509989 0.715661 0.531188 0.469406
C76   C     C_3   0.284562 0.514419 0.530862 0.468736
C77   C     C_3   0.489985 0.284400 0.531161 0.469238
C78   C     C_3   0.287968 0.987384 0.030266 0.680523
C79   C     C_3   0.311103 0.999820 0.999619 0.023732
C80   C     C_3   0.011049 0.288087 0.030362 0.679370
C81   C     C_3   0.712059 0.012415 0.030269 0.680571
C82   C     C_3   0.988854 0.711979 0.030333 0.679393
C83   C     C_3   0.787940 0.486696 0.530212 0.679181
C84   C     C_3   0.508638 0.788139 0.530508 0.676673
C85   C     C_3   0.212095 0.513365 0.530201 0.679202
C86   C     C_3   0.491341 0.211925 0.530484 0.676920
C87   C     C_3   0.214022 0.948883 0.979841 -0.208461
C88   C     C_3   0.051633 0.214090 0.980278 -0.208794
C89   C     C_3   0.785968 0.051200 0.979901 -0.208461
C90   C     C_3   1.000000 0.311130 0.999598 0.023908
C91   C     C_3   0.948397 0.785866 0.980215 -0.208782
C92   C     C_3   0.713997 0.449180 0.479612 -0.208152
C93   C     C_3   0.552574 0.714012 0.480938 -0.213836
C94   C     C_3   0.285978 0.550789 0.479604 -0.208152
C95   C     C_3   0.447426 0.285943 0.480897 -0.213838
C96   C     C_3   0.214301 0.064941 0.990940 -0.032331
C97   C     C_3   0.935194 0.214194 0.990380 -0.032003
C98   C     C_3   0.785676 0.935086 0.990827 -0.032072
C99   C     C_3   0.064809 0.785791 0.990407 -0.031995
C100  C     C_3   0.714260 0.565005 0.491196 -0.032726
C101  C     C_3   0.688894 0.000175 0.999602 0.023634
C102  C     C_3   0.435574 0.714373 0.489520 -0.032126
C103  C     C_3   0.285732 0.434985 0.491179 -0.032731
C104  C     C_3   0.564421 0.285606 0.489521 -0.032133
C105  C     C_3   0.997339 0.704064 0.782215 -0.254447
C106  C     C_3   0.368997 0.847667 0.789324 -0.243790
C107  C     C_3   0.002490 0.296062 0.782097 -0.252723
C108  C     C_3   0.706808 0.010316 0.781926 -0.255127
C109  C     C_3   0.384985 0.167098 0.284405 -0.242457
C110  C     C_3   0.874895 0.345580 0.289344 -0.241427
C111  C     C_3   0.614900 0.832959 0.284338 -0.242473
C112  C     C_R   0.879737 0.000377 0.000154 0.578401
C113  C     C_3   0.999991 0.688869 0.999579 0.024130
C114  C     C_3   0.125269 0.654107 0.289459 -0.241417
C115  C     C_3   0.863878 0.568765 0.916817 -0.210074
C116  C     C_3   0.429122 0.864508 0.917070 -0.211520
C117  C     C_3   0.136032 0.431200 0.916781 -0.209487
C118  C     C_3   0.570271 0.135061 0.916699 -0.209894
C119  C     C_3   0.382695 0.898403 0.416812 -0.260161
C120  C     C_3   0.928744 0.365041 0.416900 -0.212487
C121  C     C_3   0.617296 0.101562 0.416857 -0.260220
C122  C     C_3   0.071239 0.634899 0.416927 -0.212436
C123  C     C_3   0.300934 0.073123 0.217079 -0.264654
C124  C     C_3   0.811085 0.499757 0.499621 0.024469
C125  C     C_3   0.858303 0.345397 0.214120 -0.251943
C126  C     C_3   0.699022 0.926980 0.217109 -0.264670
C127  C     C_3   0.141912 0.654292 0.214249 -0.251925
C128  C     C_3   0.872886 0.670981 0.716925 -0.262416
C129  C     C_3   0.352393 0.848743 0.713984 -0.253235
C130  C     C_3   0.126983 0.329167 0.716868 -0.260406
C131  C     C_3   0.665462 0.132485 0.717087 -0.260758
C132  C     C_3   0.187371 0.920138 0.072037 -0.152582
C133  C     C_3   0.076863 0.187840 0.072694 -0.155088
C134  C     C_3   0.812685 0.079517 0.072133 -0.152606
C135  C     C_3   0.499931 0.811161 0.499594 0.020540
C136  C     C_3   0.922935 0.812319 0.072612 -0.154957
C137  C     C_3   0.687330 0.418513 0.571665 -0.151690
C138  C     C_3   0.572328 0.688023 0.573591 -0.155213
C139  C     C_3   0.312753 0.581623 0.571660 -0.152247
C140  C     C_3   0.427622 0.312146 0.573541 -0.153783
C141  C     C_3   0.195001 0.066939 0.937472 -0.261654
C142  C     C_3   0.935248 0.194660 0.936921 -0.263624
C143  C     C_3   0.804979 0.933345 0.937362 -0.264145
C144  C     C_3   0.064879 0.805191 0.936947 -0.264249
C145  C     C_3   0.695049 0.568071 0.437727 -0.260071
C146  C     C_3   0.188914 0.500244 0.499610 0.024437
C147  C     C_3   0.438748 0.694745 0.436087 -0.267466
C148  C     C_3   0.304887 0.431824 0.437711 -0.260066
C149  C     C_3   0.561261 0.305125 0.436088 -0.267472
C150  C     C_3   0.500065 0.188836 0.499575 0.020306
C151  C     C_3   0.285383 0.948524 0.979472 0.626518
C152  C     C_3   0.052134 0.285451 0.979939 0.627799
C153  C     C_3   0.714604 0.051595 0.979544 0.626889
C154  C     C_3   0.947906 0.714499 0.979877 0.627589
C155  C     C_3   0.785378 0.448828 0.479267 0.626223
C156  C     C_R   0.999783 0.879731 0.000153 0.578419
C157  C     C_3   0.553450 0.785373 0.480745 0.639709
C158  C     C_3   0.214594 0.551137 0.479259 0.626201
C159  C     C_3   0.446554 0.214579 0.480705 0.639676
C160  C     C_3   0.285791 0.063901 0.989569 -0.270330
C161  C     C_3   0.936374 0.285712 0.988953 -0.270696
C162  C     C_3   0.714185 0.936155 0.989439 -0.270591
C163  C     C_3   0.063643 0.714269 0.988985 -0.270749
C164  C     C_3   0.785747 0.564022 0.489833 -0.269468
C165  C     C_3   0.437093 0.785869 0.488006 -0.275520
C166  C     C_3   0.214242 0.435962 0.489816 -0.269451
C167  C     C_R   0.120262 0.999601 0.000160 0.578281
C168  C     C_3   0.562906 0.214106 0.488007 -0.275553
C169  C     C_R   0.499988 0.000074 0.145681 0.238593
C170  C     C_R   0.000053 0.499920 0.144999 0.235987
C171  C     C_R   0.999941 0.500085 0.644975 0.235545
C172  C     C_R   0.500870 0.998374 0.645011 0.235586
C173  C     C_R   0.999945 0.500044 0.853874 0.209752
C174  C     C_R   0.500875 0.998613 0.853849 0.212538
C175  C     C_R   0.499948 0.000013 0.354977 0.221222
C176  C     C_R   0.000033 0.499892 0.353863 0.215792
C177  C     C_R   0.406610 0.064725 0.235622 0.141011
C178  C     C_R   0.499931 0.620281 0.500161 0.579471
C179  C     C_R   0.903577 0.439439 0.234753 0.141471
C180  C     C_R   0.593334 0.935390 0.235615 0.141016
C181  C     C_R   0.096579 0.560265 0.234814 0.141474
C182  C     C_R   0.956782 0.605168 0.734648 0.141592
C183  C     C_R   0.402993 0.939815 0.734791 0.141857
C184  C     C_R   0.043087 0.394979 0.734601 0.141403
C185  C     C_R   0.605077 0.044219 0.734613 0.141506
C186  C     C_R   0.944034 0.500603 0.868679 0.370803
C187  C     C_R   0.499176 0.942965 0.868855 0.362304
C188  C     C_R   0.055871 0.499464 0.868681 0.370367
C189  C     C_R   0.379745 0.500485 0.500152 0.578093
C190  C     C_R   0.501917 0.054821 0.868484 0.378178
C191  C     C_R   0.475409 0.949509 0.369809 0.370884
C192  C     C_R   0.998337 0.443979 0.368688 0.369465
C193  C     C_R   0.524502 0.050511 0.369837 0.370860
C194  C     C_R   0.001710 0.555834 0.368691 0.369420
C195  C     C_R   0.452639 0.028252 0.190353 0.403980
C196  C     C_R   0.954508 0.468712 0.189540 0.404656
C197  C     C_R   0.547338 0.971915 0.190353 0.403957
C198  C     C_R   0.045632 0.531047 0.189571 0.404643
C199  C     C_R   0.973416 0.548378 0.689618 0.403569
C200  C     C_R   0.500060 0.379719 0.500151 0.579425
C201  C     C_R   0.454692 0.967505 0.689531 0.404972
C202  C     C_R   0.026479 0.451798 0.689600 0.403507
C203  C     C_R   0.548562 0.025525 0.689676 0.403739
C204  C     C_R   0.943330 0.502125 0.898321 0.077026
C205  C     C_R   0.497236 0.942748 0.898475 0.081009
C206  C     C_R   0.056603 0.497903 0.898323 0.076972
C207  C     C_R   0.503002 0.055993 0.898151 0.076105
C208  C     C_R   0.474242 0.949599 0.399522 0.085406
C209  C     C_R   0.996828 0.443328 0.398329 0.080573
C210  C     C_R   0.525700 0.050411 0.399549 0.085517
C211  C     C_R   0.620255 0.499521 0.500158 0.578123
C212  C     C_R   0.003190 0.556547 0.398332 0.080603
C213  C     C_R   0.499974 0.000061 0.235341 -0.096052
C214  C     C_R   0.000073 0.499859 0.234441 -0.096251
C215  C     C_R   0.999937 0.500075 0.734449 -0.095273
C216  C     C_R   0.503141 0.993787 0.734450 -0.095637
C217  C     C_R   0.999974 0.500008 0.913756 -0.038046
C218  C     C_R   0.500024 0.999614 0.913747 -0.037455
C219  C     C_R   0.499976 0.000004 0.414531 -0.016283
C220  C     C_R   0.000005 0.499953 0.413760 -0.036834
C221  C     C_R   0.499999 0.000013 0.054625 0.596851
C222  C     C_3   0.189262 0.999735 0.000227 -0.058808
C223  C     C_R   0.000008 0.499997 0.054488 0.594594
C224  C     C_R   0.999995 0.500014 0.554480 0.593103
C225  C     C_R   0.500023 0.999950 0.554487 0.592319
C226  C     C_R   0.379981 0.000015 0.999375 0.641241
C227  C     C_R   0.999921 0.379997 0.999343 0.640020
C228  C     C_R   0.620016 0.999984 0.999361 0.641027
C229  C     C_R   0.000077 0.620001 0.999333 0.640037
C230  C     C_R   0.879975 0.500005 0.499383 0.640382
C231  C     C_R   0.499918 0.880008 0.499320 0.648828
C232  C     C_R   0.120024 0.499994 0.499376 0.640401
Cu1   Cu    Cu3+1 1.000000 0.000000 0.028260 1.071875
Cu2   Cu    Cu3+1 0.437470 0.999870 0.500100 1.109750
Cu3   Cu    Cu3+1 0.000130 0.437470 0.500100 1.098974
Cu4   Cu    Cu3+1 0.562530 0.000130 0.500100 1.109051
Cu5   Cu    Cu3+1 0.500000 0.500000 0.528260 1.073196
Cu6   Cu    Cu3+1 1.000000 0.000000 0.971980 0.860569
Cu7   Cu    Cu3+1 0.500000 0.500000 0.471980 0.865126
Cu8   Cu    Cu3+1 0.499870 0.062530 0.000100 1.098013
Cu9   Cu    Cu3+1 0.937470 0.499870 0.000100 1.098815
Cu10  Cu    Cu3+1 0.500130 0.937470 0.000100 1.096980
Cu11  Cu    Cu3+1 0.062530 0.500130 0.000100 1.098473
Cu12  Cu    Cu3+1 0.999870 0.562530 0.500100 1.098718
F1    F     F_    0.306416 0.958582 0.952178 -0.661589
F2    F     F_    0.498376 0.888471 0.854474 -0.628745
F3    F     F_    0.110067 0.499267 0.854107 -0.607212
F4    F     F_    0.502973 0.108807 0.853748 -0.599920
F5    F     F_    0.451946 0.900570 0.355270 -0.620016
F6    F     F_    0.997167 0.389707 0.354141 -0.625596
F7    F     F_    0.547959 0.099451 0.355324 -0.620046
F8    F     F_    0.002890 0.610077 0.354146 -0.625664
F9    F     F_    0.195541 0.033607 0.048847 -0.602055
F10   F     F_    0.964320 0.195409 0.048562 -0.603126
F11   F     F_    0.804527 0.966152 0.048786 -0.602144
F12   F     F_    0.043364 0.306518 0.952558 -0.660413
F13   F     F_    0.035540 0.804685 0.048568 -0.603184
F14   F     F_    0.695504 0.532492 0.548985 -0.600636
F15   F     F_    0.461224 0.695214 0.548098 -0.603776
F16   F     F_    0.304547 0.467603 0.548971 -0.600488
F17   F     F_    0.538740 0.304882 0.548091 -0.603336
F18   F     F_    0.309874 0.033755 0.048015 -0.569968
F19   F     F_    0.963842 0.309794 0.047643 -0.570148
F20   F     F_    0.690199 0.965914 0.047933 -0.569863
F21   F     F_    0.036012 0.690309 0.047655 -0.570251
F22   F     F_    0.809821 0.532719 0.548154 -0.570421
F23   F     F_    0.693511 0.041733 0.952234 -0.661621
F24   F     F_    0.460010 0.809615 0.547010 -0.569773
F25   F     F_    0.190236 0.467375 0.548140 -0.570245
F26   F     F_    0.539963 0.190490 0.547004 -0.569150
F27   F     F_    0.312348 0.931933 0.040100 -0.584507
F28   F     F_    0.065964 0.312758 0.040743 -0.589553
F29   F     F_    0.687662 0.067787 0.040207 -0.584510
F30   F     F_    0.933910 0.687334 0.040669 -0.589470
F31   F     F_    0.812330 0.431061 0.539824 -0.589263
F32   F     F_    0.562593 0.813048 0.541784 -0.591864
F33   F     F_    0.187717 0.569018 0.539817 -0.589309
F34   F     F_    0.956756 0.693371 0.952504 -0.660974
F35   F     F_    0.437383 0.187040 0.541741 -0.591024
F36   F     F_    0.305547 0.890278 0.987734 -0.559503
F37   F     F_    0.110026 0.305623 0.988780 -0.558333
F38   F     F_    0.694487 0.109795 0.987919 -0.558795
F39   F     F_    0.889993 0.694339 0.988669 -0.558708
F40   F     F_    0.805530 0.390433 0.487311 -0.560838
F41   F     F_    0.610692 0.805138 0.490601 -0.546274
F42   F     F_    0.194449 0.609546 0.487306 -0.560902
F43   F     F_    0.389307 0.194832 0.490541 -0.546125
F44   F     F_    0.806455 0.459392 0.452021 -0.661670
F45   F     F_    0.547011 0.806778 0.453273 -0.627422
F46   F     F_    0.193485 0.540518 0.452012 -0.661694
F47   F     F_    0.453008 0.193110 0.453236 -0.627463
F48   F     F_    0.889823 0.500810 0.854101 -0.606482
H1    H     H_    0.303847 0.101501 0.003438 0.182401
H2    H     H_    0.926511 0.303362 0.967409 0.176851
H3    H     H_    0.179348 0.431927 0.929419 0.157416
H4    H     H_    0.480293 0.148356 0.903017 0.296679
H5    H     H_    0.593678 0.143992 0.896177 0.188505
H6    H     H_    0.596767 0.099738 0.928707 0.228342
H7    H     H_    0.569818 0.178591 0.929199 0.158314
H8    H     H_    0.465481 0.856001 0.406792 0.308052
H9    H     H_    0.360875 0.893736 0.395640 0.192902
H10   H     H_    0.366721 0.942048 0.426846 0.177670
H11   H     H_    0.367474 0.858981 0.430169 0.135068
H12   H     H_    0.018790 0.350852 0.403513 0.295819
H13   H     H_    0.696438 0.925437 0.967985 0.177416
H14   H     H_    0.905488 0.356035 0.396339 0.182443
H15   H     H_    0.902411 0.400724 0.428768 0.230258
H16   H     H_    0.928720 0.321668 0.429496 0.157086
H17   H     H_    0.534510 0.144001 0.406871 0.308111
H18   H     H_    0.639079 0.106223 0.395685 0.192921
H19   H     H_    0.633271 0.057909 0.426868 0.177676
H20   H     H_    0.632561 0.140976 0.430231 0.135070
H21   H     H_    0.981191 0.649024 0.403511 0.295791
H22   H     H_    0.094498 0.643868 0.396373 0.182458
H23   H     H_    0.097580 0.599252 0.428804 0.230386
H24   H     H_    0.073567 0.696565 0.967450 0.176662
H25   H     H_    0.071242 0.678299 0.429523 0.157033
H26   H     H_    0.375819 0.133019 0.206871 0.288804
H27   H     H_    0.293858 0.063998 0.194219 0.198513
H28   H     H_    0.264292 0.105360 0.224371 0.137219
H29   H     H_    0.296076 0.028789 0.228849 0.150379
H30   H     H_    0.827260 0.437354 0.206973 0.288230
H31   H     H_    0.853591 0.338205 0.190983 0.193504
H32   H     H_    0.820737 0.319364 0.224845 0.136715
H33   H     H_    0.903750 0.326424 0.220962 0.151187
H34   H     H_    0.624125 0.867120 0.206828 0.288794
H35   H     H_    0.803499 0.575333 0.468454 0.178587
H36   H     H_    0.706116 0.936135 0.194259 0.198483
H37   H     H_    0.735648 0.894720 0.224391 0.137220
H38   H     H_    0.703887 0.971296 0.228914 0.150376
H39   H     H_    0.172888 0.562320 0.207050 0.288204
H40   H     H_    0.146649 0.661499 0.191118 0.193459
H41   H     H_    0.179483 0.680296 0.225006 0.136708
H42   H     H_    0.096469 0.673284 0.221082 0.151233
H43   H     H_    0.967426 0.677605 0.705003 0.284942
H44   H     H_    0.860254 0.666976 0.694259 0.198938
H45   H     H_    0.861248 0.718415 0.724209 0.133701
H46   H     H_    0.429082 0.803382 0.466306 0.171037
H47   H     H_    0.844825 0.637234 0.729249 0.155215
H48   H     H_    0.326369 0.942385 0.707193 0.287734
H49   H     H_    0.347395 0.842186 0.690820 0.193386
H50   H     H_    0.313371 0.824718 0.724599 0.135065
H51   H     H_    0.396649 0.827111 0.720807 0.151509
H52   H     H_    0.032446 0.322564 0.704909 0.285303
H53   H     H_    0.139624 0.333182 0.694207 0.199395
H54   H     H_    0.138611 0.281728 0.724128 0.137519
H55   H     H_    0.155042 0.362905 0.729220 0.155781
H56   H     H_    0.677649 0.038715 0.704765 0.284659
H57   H     H_    0.196465 0.424614 0.468435 0.178596
H58   H     H_    0.660821 0.145202 0.694461 0.199030
H59   H     H_    0.712037 0.147023 0.724466 0.134156
H60   H     H_    0.629999 0.158149 0.729463 0.156850
H61   H     H_    0.209324 0.888058 0.031880 0.269338
H62   H     H_    0.169975 0.873017 0.077132 0.149919
H63   H     H_    0.153955 0.954137 0.080799 0.196248
H64   H     H_    0.233348 0.926573 0.082143 0.208359
H65   H     H_    0.110411 0.209950 0.032810 0.269713
H66   H     H_    0.123811 0.170700 0.078185 0.147225
H67   H     H_    0.042635 0.154235 0.081173 0.196043
H68   H     H_    0.570921 0.196547 0.466309 0.171092
H69   H     H_    0.069915 0.233802 0.082743 0.206248
H70   H     H_    0.790642 0.111770 0.032024 0.269572
H71   H     H_    0.830058 0.126626 0.077294 0.149792
H72   H     H_    0.846139 0.045499 0.080843 0.196105
H73   H     H_    0.766731 0.073004 0.082236 0.208392
H74   H     H_    0.889488 0.790125 0.032700 0.269692
H75   H     H_    0.875974 0.829478 0.078065 0.147496
H76   H     H_    0.957145 0.845941 0.081117 0.196046
H77   H     H_    0.929852 0.766380 0.082667 0.206202
H78   H     H_    0.709297 0.387317 0.531362 0.269482
H79   H     H_    0.195989 0.954701 0.958142 0.159667
H80   H     H_    0.669919 0.371286 0.576543 0.152777
H81   H     H_    0.653917 0.452326 0.580580 0.197544
H82   H     H_    0.733304 0.424715 0.581804 0.205430
H83   H     H_    0.608119 0.710531 0.534156 0.271028
H84   H     H_    0.619032 0.671132 0.579648 0.145342
H85   H     H_    0.537803 0.654170 0.581603 0.195894
H86   H     H_    0.564506 0.733883 0.583601 0.206511
H87   H     H_    0.290738 0.612746 0.531359 0.269472
H88   H     H_    0.330171 0.628859 0.576542 0.152164
H89   H     H_    0.346176 0.547826 0.580572 0.197451
H90   H     H_    0.046614 0.196050 0.958530 0.159429
H91   H     H_    0.266791 0.575441 0.581798 0.205280
H92   H     H_    0.391851 0.289527 0.534095 0.271083
H93   H     H_    0.380913 0.329047 0.579580 0.145879
H94   H     H_    0.462139 0.346025 0.581561 0.196296
H95   H     H_    0.435446 0.266314 0.583559 0.207540
H96   H     H_    0.142046 0.109435 0.968724 0.265031
H97   H     H_    0.192563 0.105514 0.922023 0.156317
H98   H     H_    0.157515 0.033771 0.932137 0.153518
H99   H     H_    0.240464 0.044320 0.934925 0.206605
H100  H     H_    0.891166 0.141905 0.967841 0.265410
H101  H     H_    0.803958 0.045465 0.958192 0.159512
H102  H     H_    0.897291 0.192244 0.921146 0.153641
H103  H     H_    0.968459 0.157104 0.931889 0.153681
H104  H     H_    0.958165 0.240094 0.934549 0.205322
H105  H     H_    0.857883 0.890601 0.968564 0.265047
H106  H     H_    0.807368 0.894848 0.921855 0.153613
H107  H     H_    0.842499 0.966501 0.932086 0.153182
H108  H     H_    0.759541 0.956033 0.934842 0.205602
H109  H     H_    0.108829 0.858052 0.967898 0.265418
H110  H     H_    0.102873 0.807585 0.921201 0.152938
H111  H     H_    0.031666 0.842723 0.931888 0.153570
H112  H     H_    0.898187 0.303776 0.002434 0.183161
H113  H     H_    0.953474 0.803856 0.958471 0.159147
H114  H     H_    0.041987 0.759742 0.934560 0.205138
H115  H     H_    0.641934 0.609738 0.469139 0.265231
H116  H     H_    0.692649 0.606977 0.422451 0.158822
H117  H     H_    0.657580 0.535015 0.432221 0.153728
H118  H     H_    0.740521 0.545510 0.435106 0.206229
H119  H     H_    0.392061 0.642421 0.466459 0.266513
H120  H     H_    0.401689 0.692876 0.419859 0.152971
H121  H     H_    0.471845 0.656862 0.431422 0.158230
H122  H     H_    0.462351 0.739918 0.434037 0.197295
H123  H     H_    0.358041 0.390226 0.469121 0.265202
H124  H     H_    0.696038 0.455526 0.457933 0.159929
H125  H     H_    0.307278 0.392893 0.422431 0.158852
H126  H     H_    0.342347 0.464875 0.432210 0.153693
H127  H     H_    0.259409 0.454373 0.435090 0.206251
H128  H     H_    0.607926 0.357517 0.466476 0.266494
H129  H     H_    0.598324 0.306969 0.419871 0.153029
H130  H     H_    0.528162 0.342997 0.431416 0.158193
H131  H     H_    0.537665 0.259946 0.434028 0.197258
H132  H     H_    0.548678 0.696157 0.459109 0.159162
H133  H     H_    0.303911 0.544403 0.457925 0.159920
H134  H     H_    0.451329 0.303752 0.459070 0.159135
H135  H     H_    0.491407 0.900750 0.141954 0.135205
H136  H     H_    0.089635 0.456159 0.141291 0.140247
H137  H     H_    0.508567 0.099395 0.141979 0.135250
H138  H     H_    0.910468 0.543689 0.141322 0.140242
H139  H     H_    0.951639 0.412678 0.641217 0.139418
H140  H     H_    0.696123 0.898463 0.003232 0.182332
H141  H     H_    0.589401 0.952669 0.640892 0.137348
H142  H     H_    0.048242 0.587489 0.641256 0.139094
H143  H     H_    0.412215 0.044188 0.641685 0.142323
H144  H     H_    0.491681 0.900265 0.090133 0.152501
H145  H     H_    0.090310 0.457080 0.089439 0.159380
H146  H     H_    0.508301 0.099818 0.090154 0.152488
H147  H     H_    0.909745 0.542865 0.089470 0.159290
H148  H     H_    0.952692 0.411870 0.589367 0.160234
H149  H     H_    0.589580 0.954614 0.589081 0.160327
H150  H     H_    0.047240 0.588227 0.589404 0.160040
H151  H     H_    0.101795 0.696243 0.002499 0.182957
H152  H     H_    0.410934 0.044239 0.589799 0.159712
H153  H     H_    0.196604 0.902736 0.986322 0.116026
H154  H     H_    0.097475 0.196721 0.987150 0.116366
H155  H     H_    0.803431 0.097310 0.986443 0.116182
H156  H     H_    0.902535 0.803258 0.987047 0.116206
H157  H     H_    0.696432 0.402888 0.485833 0.115599
H158  H     H_    0.597916 0.696354 0.488340 0.117319
H159  H     H_    0.303551 0.597093 0.485828 0.115593
H160  H     H_    0.402080 0.303614 0.488283 0.117372
H161  H     H_    0.202438 0.097793 0.008272 0.207622
H162  H     H_    0.803780 0.601347 0.503863 0.183682
H163  H     H_    0.901693 0.202355 0.007450 0.207265
H164  H     H_    0.797530 0.902153 0.008115 0.207454
H165  H     H_    0.098269 0.797678 0.007501 0.207147
H166  H     H_    0.702368 0.597517 0.508657 0.208471
H167  H     H_    0.401028 0.702745 0.506181 0.206946
H168  H     H_    0.297645 0.402506 0.508638 0.208531
H169  H     H_    0.598958 0.297273 0.506194 0.206986
H170  H     H_    0.905839 0.684084 0.772221 0.266871
H171  H     H_    0.012487 0.721754 0.761274 0.139379
H172  H     H_    0.036706 0.680222 0.792700 0.175125
H173  H     H_    0.397893 0.804144 0.500801 0.181352
H174  H     H_    0.983309 0.743927 0.795579 0.151794
H175  H     H_    0.311392 0.912409 0.770218 0.272515
H176  H     H_    0.374886 0.815608 0.771210 0.117393
H177  H     H_    0.330603 0.830385 0.802790 0.158311
H178  H     H_    0.412131 0.847735 0.802116 0.210129
H179  H     H_    0.093998 0.316026 0.772143 0.268400
H180  H     H_    0.987340 0.278391 0.761141 0.139646
H181  H     H_    0.963128 0.319907 0.792585 0.175778
H182  H     H_    0.016507 0.256187 0.795441 0.153555
H183  H     H_    0.680544 0.100331 0.772245 0.267377
H184  H     H_    0.196228 0.398661 0.503842 0.183765
H185  H     H_    0.725377 0.996748 0.760919 0.138848
H186  H     H_    0.685782 0.969190 0.792304 0.173632
H187  H     H_    0.745669 0.026968 0.795297 0.152279
H188  H     H_    0.319602 0.101172 0.272870 0.267476
H189  H     H_    0.389167 0.191464 0.263810 0.139013
H190  H     H_    0.430433 0.167914 0.295422 0.188408
H191  H     H_    0.350785 0.192013 0.297718 0.160310
H192  H     H_    0.813599 0.406694 0.270138 0.273916
H193  H     H_    0.882732 0.313843 0.271269 0.116173
H194  H     H_    0.837552 0.326111 0.302805 0.160350
H195  H     H_    0.602104 0.195860 0.500814 0.181378
H196  H     H_    0.917912 0.348246 0.302159 0.213233
H197  H     H_    0.680307 0.898879 0.272872 0.267475
H198  H     H_    0.610722 0.808615 0.263725 0.139012
H199  H     H_    0.569445 0.832145 0.295338 0.188394
H200  H     H_    0.649085 0.808022 0.297647 0.160302
H201  H     H_    0.186555 0.592978 0.270244 0.273912
H202  H     H_    0.117448 0.685848 0.271397 0.116173
H203  H     H_    0.162611 0.673565 0.302943 0.160339
H204  H     H_    0.082245 0.651452 0.302258 0.213291
H205  H     H_    0.851294 0.478325 0.903522 0.295486
H206  H     H_    0.303530 0.074772 0.968139 0.178174
H207  H     H_    0.854382 0.591660 0.896231 0.188220
H208  H     H_    0.899114 0.595959 0.928612 0.227630
H209  H     H_    0.820573 0.568003 0.929450 0.157296
H210  H     H_    0.519392 0.850387 0.903972 0.294840
H211  H     H_    0.406157 0.855166 0.896471 0.182519
H212  H     H_    0.402542 0.900278 0.928767 0.229851
H213  H     H_    0.429052 0.821304 0.929786 0.157358
H214  H     H_    0.148660 0.521643 0.903542 0.294894
H215  H     H_    0.145498 0.408317 0.896182 0.188996
H216  H     H_    0.100789 0.404017 0.928556 0.227464
N1    N     N_R   0.499991 0.000086 0.176232 -0.396155
N2    N     N_2   0.354519 0.909486 0.779467 -0.451782
N3    N     N_2   0.054341 0.337971 0.778890 -0.442295
N4    N     N_2   0.661434 0.059103 0.778895 -0.441444
N5    N     N_2   0.364517 0.103961 0.280101 -0.446637
N6    N     N_2   0.856796 0.406384 0.279418 -0.451794
N7    N     N_2   0.635387 0.896095 0.280083 -0.446636
N8    N     N_2   0.143354 0.593299 0.279510 -0.451809
N9    N     N_2   0.885159 0.506011 0.912330 -0.478591
N10   N     N_2   0.492243 0.884796 0.912625 -0.478078
N11   N     N_2   0.114786 0.493972 0.912331 -0.478959
N12   N     N_R   0.000066 0.499891 0.175487 -0.395711
N13   N     N_2   0.507362 0.114334 0.912026 -0.479195
N14   N     N_2   0.449448 0.897858 0.414325 -0.473530
N15   N     N_2   0.991860 0.385219 0.412342 -0.478036
N16   N     N_2   0.550538 0.102134 0.414380 -0.473466
N17   N     N_2   0.008132 0.614686 0.412349 -0.478031
N18   N     N_2   0.360983 0.101393 0.221719 -0.505908
N19   N     N_2   0.852518 0.410628 0.220853 -0.506440
N20   N     N_2   0.638960 0.898725 0.221704 -0.505902
N21   N     N_2   0.147655 0.589052 0.220944 -0.506445
N22   N     N_2   0.938700 0.660706 0.720601 -0.507957
N23   N     N_R   0.999947 0.500089 0.675476 -0.395065
N24   N     N_2   0.350280 0.914095 0.720923 -0.507315
N25   N     N_2   0.061168 0.339448 0.720527 -0.508415
N26   N     N_2   0.659226 0.066059 0.720517 -0.508340
N27   N     N_2   0.192136 0.927073 0.041658 -0.464999
N28   N     N_2   0.071087 0.192548 0.042261 -0.464484
N29   N     N_2   0.807870 0.072721 0.041745 -0.464834
N30   N     N_2   0.928788 0.807542 0.042183 -0.464420
N31   N     N_2   0.692108 0.426113 0.541321 -0.464469
N32   N     N_2   0.568347 0.692864 0.543102 -0.463831
N33   N     N_2   0.307938 0.573968 0.541315 -0.464302
N34   N     N_R   0.501207 0.997358 0.675507 -0.395244
N35   N     N_2   0.431618 0.307219 0.543054 -0.464268
N36   N     N_2   0.185763 0.091715 0.965641 -0.512317
N37   N     N_2   0.909340 0.185540 0.964880 -0.511709
N38   N     N_2   0.814197 0.908416 0.965495 -0.511837
N39   N     N_2   0.090714 0.814390 0.964925 -0.511862
N40   N     N_2   0.685716 0.592236 0.465999 -0.511080
N41   N     N_2   0.411149 0.685755 0.463722 -0.514448
N42   N     N_2   0.314251 0.407709 0.465981 -0.511083
N43   N     N_2   0.588854 0.314170 0.463731 -0.514456
N44   N     N_R   0.999932 0.500050 0.823429 -0.356470
N45   N     N_R   0.501598 0.997738 0.823395 -0.355888
N46   N     N_R   0.499946 0.000015 0.324516 -0.349967
N47   N     N_R   0.000052 0.499863 0.323409 -0.356328
N48   N     N_2   0.945500 0.662144 0.778968 -0.442823
O1    O     O_R   0.999860 0.091180 0.023880 -0.441399
O2    O     O_R   0.908760 0.999880 0.976350 -0.540830
O3    O     O_R   0.000120 0.908760 0.976350 -0.540552
O4    O     O_R   0.091240 0.000120 0.976350 -0.540811
O5    O     O_R   0.499880 0.591240 0.476350 -0.539531
O6    O     O_R   0.408760 0.499880 0.476350 -0.540960
O7    O     O_R   0.500120 0.408760 0.476350 -0.539502
O8    O     O_R   0.591240 0.500120 0.476350 -0.540962
O9    O     O_2   0.040099 0.399751 0.824493 -0.427920
O10   O     O_2   0.601297 0.039593 0.824553 -0.427998
O11   O     O_2   0.959757 0.600345 0.824541 -0.429060
O12   O     O_R   0.908820 0.999860 0.023880 -0.440840
O13   O     O_2   0.399999 0.960681 0.824090 -0.434560
O14   O     O_2   0.592017 0.943720 0.325585 -0.436176
O15   O     O_2   0.100807 0.539349 0.324167 -0.433757
O16   O     O_2   0.407875 0.056309 0.325588 -0.436140
O17   O     O_2   0.899302 0.460362 0.324113 -0.433719
O18   O     O_2   0.405499 0.051938 0.175189 -0.500604
O19   O     O_2   0.912811 0.436391 0.174319 -0.504082
O20   O     O_2   0.594491 0.948248 0.175192 -0.500635
O21   O     O_2   0.087324 0.563388 0.174381 -0.504152
O22   O     O_2   0.943140 0.591900 0.674638 -0.503973
O23   O     O_R   0.000140 0.908820 0.023880 -0.441303
O24   O     O_2   0.411306 0.937582 0.674276 -0.505144
O25   O     O_2   0.056770 0.408288 0.674606 -0.503762
O26   O     O_2   0.590282 0.058478 0.674765 -0.503167
O27   O     O_R   0.499860 0.052830 0.041160 -0.500034
O28   O     O_R   0.947170 0.499860 0.041160 -0.498125
O29   O     O_R   0.500140 0.947170 0.041160 -0.499987
O30   O     O_R   0.052830 0.500140 0.041160 -0.498206
O31   O     O_R   0.999860 0.552830 0.541160 -0.498368
O32   O     O_R   0.447170 0.999860 0.541160 -0.499425
O33   O     O_R   0.000140 0.447170 0.541160 -0.498269
O34   O     O_R   0.091180 0.000140 0.023880 -0.440816
O35   O     O_R   0.552830 0.000140 0.541160 -0.500265
O36   O     O_R   0.408720 0.052800 0.000100 -0.534960
O37   O     O_R   0.947200 0.408720 0.000100 -0.533208
O38   O     O_R   0.591280 0.947200 0.000100 -0.534993
O39   O     O_R   0.052800 0.591280 0.000100 -0.533370
O40   O     O_R   0.908720 0.552800 0.500100 -0.534238
O41   O     O_R   0.447200 0.908720 0.500100 -0.535613
O42   O     O_R   0.091280 0.447200 0.500100 -0.534144
O43   O     O_R   0.552800 0.091280 0.500100 -0.535501
O44   O     O_R   0.408730 0.947290 0.000130 -0.407512
O45   O     O_R   0.499860 0.591180 0.523880 -0.442312
O46   O     O_R   0.052710 0.408730 0.000130 -0.408589
O47   O     O_R   0.591270 0.052710 0.000130 -0.407447
O48   O     O_R   0.947290 0.591270 0.000130 -0.408595
O49   O     O_R   0.908730 0.447290 0.500130 -0.409143
O50   O     O_R   0.552710 0.908730 0.500130 -0.400859
O51   O     O_R   0.091270 0.552710 0.500130 -0.409152
O52   O     O_R   0.447290 0.091270 0.500130 -0.400608
O53   O     O_R   0.499890 0.052800 0.959040 -0.494379
O54   O     O_R   0.947200 0.499890 0.959040 -0.494826
O55   O     O_R   0.500110 0.947200 0.959040 -0.494616
O56   O     O_R   0.408820 0.499860 0.523880 -0.440436
O57   O     O_R   0.052800 0.500110 0.959040 -0.494900
O58   O     O_R   0.999890 0.552800 0.459040 -0.494146
O59   O     O_R   0.447200 0.999890 0.459040 -0.509802
O60   O     O_R   0.000110 0.447200 0.459040 -0.494175
O61   O     O_R   0.552800 0.000110 0.459040 -0.509791
O62   O     O_R   0.500140 0.408820 0.523880 -0.442235
O63   O     O_R   0.591180 0.500140 0.523880 -0.440458
O64   O     O_R   0.999880 0.091240 0.976350 -0.540524

loop_
_geom_bond_atom_site_label_1
_geom_bond_atom_site_label_2
_ccdc_geom_bond_type
C173  C188  A    
C61   C177  A    
C110  H193  S    
C64   C198  A    
H65   N28   S    
C17   C48   A    
C62   C196  A    
C74   C83   S    
C66   C183  A    
C131  N26   S    
H170  N48   S    
C183  N24   S    
C107  N3    S    
C147  H120  S    
C76   F16   S    
C50   C224  S    
C77   F17   S    
C211  O8    A    
C145  H118  S    
C57   C76   S    
C82   F30   S    
C52   C182  A    
C187  F2    S    
C53   C183  A    
C73   F13   S    
C228  O47   A    
C225  O32   A    
C167  O34   A    
C166  H184  S    
C68   C77   S    
C156  O23   A    
C108  H186  S    
C105  H172  S    
C203  O26   S    
Cu9   O54   S    
C134  H72   S    
C21   C50   A    
C131  H59   S    
H30   N19   S    
C65   C199  A    
C66   C201  A    
C5    C217  S    
C38   C55   A    
C121  H18   S    
C207  C218  A    
C129  H51   S    
C45   C213  A    
C133  H67   S    
C3    O52   A    
C161  H112  S    
H52   N25   S    
C139  H88   S    
C149  N43   S    
Cu12  O58   S    
H4    N13   S    
C60   N8    S    
C17   H144  S    
C189  O6    A    
C7    O59   A    
Cu3   O60   S    
C108  H185  S    
C62   C214  A    
C229  O48   A    
C165  H173  S    
C80   F19   S    
Cu2   Cu4   S    
Cu6   O4    S    
C143  H107  S    
C98   C162  S    
C28   O11   S    
C142  H104  S    
C103  C166  S    
C173  C186  A    
C11   C20   A    
C122  H22   S    
C145  H116  S    
C40   C58   A    
C150  C159  S    
C123  H27   S    
C115  H208  S    
C33   N47   A    
C202  N23   A    
C24   C99   S    
C139  N33   S    
C90   C152  S    
C79   C160  S    
C152  F12   S    
C9    H136  S    
C72   N29   S    
C212  C220  A    
C63   C197  A    
C80   F28   S    
C73   N30   S    
C21   H148  S    
C71   F10   S    
C229  O39   A    
C97   H163  S    
H34   N20   S    
C39   C56   A    
C150  C168  S    
C177  N18   S    
C117  H215  S    
Cu6   O3    S    
C88   H154  S    
C41   C59   A    
C133  N28   S    
C58   N6    S    
C148  H125  S    
C211  O63   A    
C110  N6    S    
H43   N22   S    
C84   F32   S    
C94   H133  S    
Cu7   O8    S    
C194  F8    S    
C36   C44   A    
C158  F46   S    
C72   F11   S    
C42   C60   A    
C2    C71   S    
C26   O9    S    
C69   C185  A    
Cu12  O31   S    
C8    C169  A    
C163  H151  S    
C136  H75   S    
C16   C25   A    
C123  H29   S    
C207  N13   S    
C44   C216  A    
C87   H79   S    
C116  H212  S    
C112  O2    A    
C156  O3    A    
H74   N30   S    
C13   C72   S    
C13   C112  S    
C136  N30   S    
Cu8   O27   S    
C190  F4    S    
C8    C17   A    
C200  O7    A    
C197  N1    A    
Cu12  O40   S    
C99   H165  S    
C230  O40   A    
C31   C42   A    
C140  H94   S    
C142  N37   S    
C121  H20   S    
C192  F6    S    
C82   F21   S    
C55   C185  A    
C134  N29   S    
C63   C180  A    
C1    O64   A    
C194  C212  A    
Cu8   O36   S    
C144  H110  S    
C108  H187  S    
C109  H189  S    
Cu1   O1    S    
C147  N41   S    
C196  O19   S    
C137  H80   S    
C76   C85   S    
C175  C193  A    
C108  N4    S    
C24   C156  S    
C230  O49   A    
C84   C135  S    
C135  C157  S    
C25   H152  S    
C161  H2    S    
H123  N42   S    
C186  F48   S    
C140  N35   S    
H105  N38   S    
H197  N7    S    
C81   C101  S    
C10   C169  A    
C110  H196  S    
C103  N42   S    
C20   H147  S    
C95   C159  S    
Cu5   O63   S    
C123  N18   S    
C59   C180  A    
C127  N21   S    
C65   C215  A    
C89   H101  S    
C195  N1    A    
C130  H55   S    
H192  N6    S    
C75   C84   S    
C28   N44   A    
C147  H121  S    
C47   C214  A    
C224  O31   A    
H115  N40   S    
C132  H63   S    
C31   O15   S    
Cu1   O23   S    
H87   N33   S    
C68   C200  S    
C148  H127  S    
C149  H130  S    
Cu7   O6    S    
C7    O61   A    
C30   C41   A    
C36   C53   A    
C6    O60   A    
C128  H45   S    
C91   H156  S    
C178  O45   A    
C174  N45   S    
C98   H164  S    
C39   C45   A    
Cu10  O38   S    
C208  C219  A    
Cu6   O2    S    
Cu9   O37   S    
C168  H195  S    
C78   F18   S    
C69   C216  A    
C61   C213  A    
C83   F31   S    
H179  N3    S    
C46   C75   S    
C139  H89   S    
Cu8   O47   S    
C65   C182  A    
C74   F14   S    
C206  C217  A    
C109  N5    S    
Cu3   Cu12  S    
C33   C40   A    
Cu5   O45   S    
C118  H6    S    
Cu4   O43   S    
C137  N31   S    
C62   C179  A    
C223  O28   A    
C129  N24   S    
H8    N14   S    
C141  H97   S    
C201  N34   A    
C63   C213  A    
C210  C219  A    
C114  H203  S    
C115  H209  S    
C151  F36   S    
C167  C222  S    
C57   C189  S    
C20   C49   A    
C174  C187  A    
C113  C163  S    
C54   N3    S    
C227  O46   A    
C185  N26   S    
C187  C205  A    
H201  N8    S    
C127  H41   S    
C125  H33   S    
C137  H82   S    
C125  N19   S    
C99   C163  S    
C199  O22   S    
C221  O27   A    
C75   F15   S    
C97   C161  S    
C57   C94   S    
H48   N24   S    
C6    C220  S    
C201  O24   S    
C162  H140  S    
C32   O16   S    
C35   C100  S    
C148  N42   S    
C55   N4    S    
C170  N12   S    
C227  O37   A    
C60   C181  A    
C226  O44   A    
C88   H90   S    
C128  H44   S    
C125  H32   S    
C153  F38   S    
C34   C43   A    
C71   N28   S    
H92   N35   S    
C29   O13   S    
C167  O4    A    
C130  H53   S    
C113  C229  S    
H83   N32   S    
C146  C158  S    
Cu9   O48   S    
C4    C218  S    
C16   H143  S    
Cu11  O39   S    
C87   H153  S    
C145  H117  S    
C14   C22   A    
H61   N27   S    
C120  N15   S    
C160  H1    S    
C193  C210  A    
Cu3   O42   S    
C190  C207  A    
C99   N39   S    
H39   N21   S    
C191  F5    S    
C120  H15   S    
C105  H171  S    
C92   C155  S    
C6    O58   A    
C119  H10   S    
C66   C216  A    
C96   H161  S    
C134  H73   S    
C165  H46   S    
Cu10  O44   S    
C9    C18   A    
C178  O5    A    
C18   C49   A    
C33   O17   S    
C205  N10   S    
C124  C155  S    
C129  H50   S    
C32   N46   A    
C133  H66   S    
C30   N46   A    
C162  H13   S    
C155  F44   S    
C119  N14   S    
C126  H38   S    
H188  N5    S    
Cu3   O49   S    
C198  N12   A    
C102  H167  S    
C35   C74   S    
C145  N40   S    
C107  H182  S    
C172  N34   S    
C127  H40   S    
C113  C154  S    
C106  H176  S    
C111  H200  S    
C89   H155  S    
Cu10  O29   S    
Cu2   O59   S    
C223  O30   A    
C141  H99   S    
C188  C206  A    
C122  H23   S    
C180  N20   S    
C31   N47   A    
H119  N41   S    
C12   H139  S    
C115  H207  S    
C203  N34   A    
C101  C162  S    
H100  N37   S    
C24   C73   S    
C138  H84   S    
C53   N2    S    
C27   C38   A    
C26   N44   A    
C94   C158  S    
C84   F24   S    
C188  F3    S    
C32   C39   A    
C85   F25   S    
C209  N15   S    
C106  H177  S    
C210  N16   S    
C103  H168  S    
C2    C97   S    
C204  N9    S    
Cu11  O46   S    
C132  H62   S    
H205  N9    S    
C110  H194  S    
C206  N11   S    
C61   C195  A    
C79   C226  S    
C72   C81   S    
H210  N10   S    
C92   H124  S    
C138  H85   S    
C148  H126  S    
C35   C92   S    
C22   H149  S    
Cu10  O55   S    
C28   C34   A    
C100  N40   S    
C135  C231  S    
C4    O53   A    
C49   C223  S    
Cu7   O7    S    
C226  O36   A    
C154  F39   S    
C212  N17   S    
C197  O20   S    
C228  O38   A    
Cu9   O28   S    
C12   C171  A    
C136  H76   S    
Cu1   O12   S    
C57   C103  S    
C14   H141  S    
C107  H180  S    
Cu2   O32   S    
C189  O56   A    
C90   C227  S    
C116  N10   S    
C82   C113  S    
C91   C154  S    
H183  N4    S    
C15   H142  S    
C128  N22   S    
C23   C50   A    
C157  F41   S    
C3    O43   A    
Cu7   O5    S    
C202  O25   S    
C117  N11   S    
C37   C43   A    
C199  N23   A    
Cu1   Cu6   S    
C38   C44   A    
C95   H160  S    
C27   N45   A    
C93   H158  S    
H21   N17   S    
C10   C19   A    
C121  H19   S    
C181  N21   S    
C135  C165  S    
C15   C171  A    
Cu1   O34   S    
C100  C164  S    
C174  C190  A    
C98   N38   S    
C117  H3    S    
C96   C222  S    
C54   C184  A    
H175  N2    S    
C143  H108  S    
C73   C82   S    
C111  H198  S    
C221  O29   A    
C142  H103  S    
C166  H57   S    
C27   O10   S    
C3    C150  S    
C115  N9    S    
C29   N45   A    
C123  H28   S    
C83   F22   S    
Cu2   O52   S    
C68   C104  S    
C151  F1    S    
C26   C37   A    
C105  N48   S    
H17   N16   S    
C34   C52   A    
C8    H135  S    
C182  N22   S    
Cu5   O62   S    
Cu12  O51   S    
C86   C150  S    
C122  N17   S    
C41   C45   A    
C1    O1    A    
H96   N36   S    
C136  H77   S    
C77   N35   S    
C198  O21   S    
C30   O14   S    
C70   C222  S    
C117  H216  S    
C81   F29   S    
C132  H64   S    
C144  N39   S    
C159  F47   S    
C192  C209  A    
Cu3   O33   S    
C196  N12   A    
C149  H129  S    
C5    O54   A    
C11   C170  A    
C112  O12   A    
C140  H93   S    
C4    O55   A    
C126  H36   S    
C91   H113  S    
C120  H14   S    
C18   H145  S    
C176  C194  A    
C75   N32   S    
C119  H11   S    
C105  H174  S    
C19   C48   A    
C124  C164  S    
C40   C47   A    
C70   C78   S    
C118  N13   S    
C46   C178  S    
C143  N38   S    
C67   C215  A    
C116  H211  S    
C134  H71   S    
C43   C215  A    
C141  N36   S    
C146  C232  S    
C104  H169  S    
C225  O35   A    
C46   C102  S    
C29   C36   A    
C131  H60   S    
C118  H7    S    
C101  C228  S    
C64   C214  A    
C153  F23   S    
C74   N31   S    
C131  H58   S    
C231  O50   A    
C175  C191  A    
C76   N33   S    
C176  C192  A    
C48   C221  S    
Cu11  O30   S    
C13   C98   S    
C121  N16   S    
C114  H204  S    
C1    C2    S    
C155  F40   S    
Cu2   O41   S    
C132  N27   S    
C35   C211  S    
C11   H138  S    
Cu8   O53   S    
Cu5   O56   S    
C56   N5    S    
Cu6   O64   S    
C51   C225  S    
C23   H150  S    
C109  H190  S    
C2    C88   S    
C58   C179  A    
C102  N41   S    
C143  H106  S    
H109  N39   S    
C231  O41   A    
C42   C47   A    
C7    C219  S    
C52   N48   S    
C15   C23   A    
C146  C166  S    
C232  O42   A    
C128  H47   S    
C133  H69   S    
C80   C90   S    
C88   C152  S    
C224  O33   A    
Cu4   O35   S    
C208  N14   S    
C70   F9    S    
C71   C80   S    
C96   N36   S    
C200  O62   A    
C97   N37   S    
C56   C177  A    
H214  N11   S    
C95   H134  S    
C5    O57   A    
C205  C218  A    
C171  N23   S    
C125  H31   S    
C90   C161  S    
C87   C222  S    
C157  F45   S    
C154  F34   S    
C85   C146  S    
C86   F26   S    
C14   C172  A    
C138  N32   S    
C130  H54   S    
C78   C79   S    
H12   N15   S    
C160  H206  S    
C78   F27   S    
C147  H122  S    
C114  N8    S    
C12   C21   A    
C159  F43   S    
Cu9   Cu11  S    
C25   C51   A    
C104  C168  S    
C176  N47   S    
Cu4   O50   S    
C16   C172  A    
C89   C153  S    
C149  H131  S    
C164  H35   S    
C101  C153  S    
Cu8   Cu10  S    
C120  H16   S    
C195  O18   S    
C186  C204  A    
C86   F35   S    
C119  H9    S    
C104  N43   S    
C93   C157  S    
C68   C95   S    
C122  H25   S    
C64   C181  A    
C126  N20   S    
C96   C160  S    
H26   N18   S    
C77   C86   S    
C69   C203  A    
C102  C165  S    
Cu5   Cu7   S    
C129  H49   S    
C83   C124  S    
C116  H213  S    
C24   C91   S    
C175  N46   S    
C137  H81   S    
C152  F37   S    
C79   C151  S    
C158  F42   S    
Cu4   O61   S    
C144  H114  S    
C118  H5    S    
C13   C89   S    
C107  H181  S    
C209  C220  A    
C100  H166  S    
C179  N19   S    
C93   H132  S    
C163  H24   S    
C109  H191  S    
C111  H199  S    
C140  H95   S    
C9    C170  A    
C106  N2    S    
C168  H68   S    
C37   C54   A    
C141  H98   S    
C232  O51   A    
C142  H102  S    
C204  C217  A    
C114  H202  S    
H70   N29   S    
C10   H137  S    
C126  H37   S    
C67   C202  A    
C139  H91   S    
C59   N7    S    
C46   C93   S    
C130  N25   S    
C144  H111  S    
C19   H146  S    
C111  N7    S    
C127  H42   S    
C164  H162  S    
C85   F33   S    
C191  C208  A    
C193  F7    S    
H56   N26   S    
C106  H178  S    
C173  N44   S    
Cu11  O57   S    
C67   C184  A    
C94   H159  S    
C169  N1    S    
H78   N31   S    
C81   F20   S    
C92   H157  S    
C87   C151  S    
C184  N25   S    
H128  N43   S    
C124  C230  S    
C70   N27   S    
C22   C51   A    
C138  H86   S    
