data_mof_unit_39461.cif
_audit_creation_date              2012-12-10T17:52:05-0500
_audit_creation_method            fapswitch 2.2
_symmetry_space_group_name_H-M    P1
_symmetry_Int_Tables_number       1
_space_group_crystal_system       triclinic
_cell_length_a                    14.735684
_cell_length_b                    14.44374
_cell_length_c                    19.304636
_cell_angle_alpha                 76.81278
_cell_angle_beta                  102.443118
_cell_angle_gamma                 114.724802
_cell_volume                      3600.0540873

loop_
_atom_site_label
_atom_site_type_symbol
_atom_type_description
_atom_site_fract_x
_atom_site_fract_y
_atom_site_fract_z
_atom_type_partial_charge
C1    C     C_R   0.880418 0.310450 0.511543 0.800103
C2    C     C_R   0.119251 0.689431 0.488419 0.910935
C3    C     C_R   0.812917 0.198609 0.519278 -0.147942
C4    C     C_R   0.184853 0.801323 0.484412 -0.122771
C5    C     C_R   0.776333 0.014372 0.561628 0.298308
C6    C     C_R   0.218621 0.985489 0.447239 0.386246
C7    C     C_R   0.847092 0.116944 0.545953 -0.174463
C8    C     C_R   0.149220 0.881617 0.455635 -0.148134
C9    C     C_R   0.709454 0.173963 0.499943 -0.189866
C10   C     C_R   0.286754 0.827518 0.511652 -0.155325
C11   C     C_R   0.638087 0.072706 0.511957 0.042225
C12   C     C_R   0.357367 0.929708 0.502934 0.043456
C13   C     C_R   0.672367 0.996009 0.552234 0.026019
C14   C     C_R   0.323092 0.006385 0.462150 0.003952
C15   C     C_R   0.532630 0.048568 0.491617 0.050042
C16   C     C_R   0.462818 0.955067 0.525422 0.059219
C17   C     C_R   0.501757 0.890875 0.579658 -0.074509
C18   C     C_R   0.493936 0.112921 0.437514 -0.078146
C19   C     C_R   0.603448 0.907532 0.588195 -0.147424
C20   C     C_R   0.392724 0.096974 0.429002 -0.136681
C21   C     C_R   0.705189 0.651377 0.369044 0.284426
C22   C     C_R   0.285150 0.334831 0.625979 0.326468
C23   C     C_R   0.999338 0.500393 0.632232 0.891997
C24   C     C_R   0.000709 0.500493 0.366868 0.850252
C25   C     C_R   0.787313 0.622497 0.390070 0.032760
C26   C     C_R   0.203599 0.364521 0.603626 0.027200
C27   C     C_R   0.721402 0.519604 0.496109 0.061981
C28   C     C_R   0.287687 0.493402 0.512940 0.061963
C29   C     C_R   0.630283 0.536078 0.475062 -0.060946
C30   C     C_R   0.376105 0.471227 0.533543 -0.063557
C31   C     C_R   0.628074 0.611375 0.413708 0.007792
C32   C     C_R   0.370930 0.386138 0.588987 0.004555
C33   C     C_R   0.543821 0.484792 0.513728 0.058507
C34   C     C_R   0.465781 0.525230 0.498249 0.061739
C35   C     C_R   0.481234 0.617252 0.447186 -0.035831
C36   C     C_R   0.529732 0.393195 0.565240 -0.052171
C37   C     C_R   0.554140 0.651552 0.401815 -0.071816
C38   C     C_R   0.448376 0.350096 0.603889 -0.095497
C39   C     C_R   0.981177 0.404663 0.756466 -0.075528
C40   C     C_R   0.904731 0.466890 0.243812 -0.080383
C41   C     C_R   0.970573 0.398880 0.827423 -0.205495
C42   C     C_R   0.900414 0.455561 0.173373 -0.215979
C43   C     C_R   0.965022 0.481324 0.850084 -0.109537
C44   C     C_R   0.986478 0.468762 0.147074 -0.111824
C45   C     C_R   0.966589 0.570519 0.800490 0.328930
C46   C     C_R   0.079871 0.492937 0.191888 0.338728
C47   C     C_R   0.990869 0.582521 0.730893 0.219515
C48   C     C_R   0.087804 0.517376 0.260806 0.271560
C49   C     C_R   0.993590 0.497022 0.708062 -0.244214
C50   C     C_R   0.998336 0.496005 0.289681 -0.263842
C51   C     C_R   0.979451 0.470274 0.069886 0.505959
C52   C     C_R   0.968003 0.476989 0.927225 0.505890
Cu1   Cu    Cu3+1 0.081740 0.475680 0.518680 1.018658
Cu2   Cu    Cu3+1 0.918260 0.524320 0.481320 1.011011
H1    H     H_    0.558123 0.717687 0.360776 0.215029
H2    H     H_    0.443203 0.282161 0.643311 0.215557
H3    H     H_    0.280732 0.550919 0.468944 0.213673
H4    H     H_    0.737962 0.479081 0.547915 0.157500
H5    H     H_    0.137550 0.327081 0.630831 0.189692
H6    H     H_    0.847192 0.651742 0.357206 0.155265
H7    H     H_    0.966940 0.329728 0.865463 0.191834
H8    H     H_    0.829300 0.438256 0.137922 0.190651
H9    H     H_    0.629835 0.855855 0.629012 0.214416
H10   H     H_    0.366988 0.149507 0.388526 0.216943
H11   H     H_    0.311611 0.765342 0.533758 0.175311
H12   H     H_    0.684259 0.236460 0.480590 0.186386
N1    N     N_R   0.906315 0.392736 0.966955 -0.187706
N2    N     N_R   0.040954 0.554140 0.030096 -0.148602
N3    N     N_R   0.911398 0.389767 0.037161 -0.180410
N4    N     N_R   0.035495 0.557334 0.960078 -0.146668
N5    N     N_R   0.795420 0.560800 0.453240 -0.209365
N6    N     N_R   0.204580 0.439200 0.546760 -0.230131
O1    O     O_R   0.977910 0.338110 0.524620 -0.595299
O2    O     O_R   0.022090 0.661890 0.475380 -0.572409
O3    O     O_R   0.839850 0.379180 0.493080 -0.577876
O4    O     O_R   0.160150 0.620820 0.506920 -0.563523
O5    O     O_R   0.069040 0.479450 0.615630 -0.585966
O6    O     O_R   0.930960 0.520550 0.384370 -0.604883
O7    O     O_R   0.930990 0.520520 0.584090 -0.546091
O8    O     O_R   0.069010 0.479480 0.415910 -0.507332
C53   C     C_1   0.977533 0.313947 0.734288 0.308772
N7    N     N_1   0.974094 0.241151 0.716482 -0.222044
C54   C     C_1   0.811424 0.453620 0.265251 0.359780
N8    N     N_1   0.736821 0.444248 0.281911 -0.207969
S1    S     S_3+6 0.702275 0.736561 0.287069 0.052550
O9    O     O_2   0.600653 0.695113 0.242961 -0.178274
O10   O     O_2   0.720147 0.840610 0.302719 -0.272991
O11   O     O_3   0.791132 0.749331 0.239442 -0.489440
H13   H     H_    0.853857 0.802876 0.259112 0.360893
S2    S     S_3+6 0.274814 0.232070 0.698752 0.040970
O12   O     O_2   0.270148 0.140287 0.671655 -0.225759
O13   O     O_2   0.365319 0.264789 0.754886 -0.256818
O14   O     O_3   0.169978 0.198878 0.735831 -0.509265
H14   H     H_    0.167338 0.137711 0.772508 0.410717
C55   C     C_1   0.436123 0.689490 0.444436 0.302931
N9    N     N_1   0.401969 0.749604 0.440777 -0.238666
C56   C     C_1   0.589665 0.331994 0.577342 0.230483
N10   N     N_1   0.636706 0.281772 0.588450 -0.275018
S3    S     S_3+6 0.925330 0.658025 0.823621 0.099874
O15   O     O_2   0.014910 0.743055 0.855142 -0.208450
O16   O     O_2   0.872093 0.703382 0.758366 -0.157339
O17   O     O_3   0.844433 0.596228 0.884447 -0.527196
H15   H     H_    0.832631 0.651277 0.899056 0.392122
S4    S     S_3+6 0.182775 0.484617 0.162178 0.108738
O18   O     O_2   0.242053 0.587413 0.121628 -0.203372
O19   O     O_2   0.251028 0.454177 0.224404 -0.165837
O20   O     O_3   0.138857 0.395265 0.107398 -0.522286
H16   H     H_    0.198305 0.404089 0.086533 0.390817
S5    S     S_3+6 0.029770 0.705515 0.674927 0.112472
O21   O     O_2   0.943752 0.710685 0.618103 -0.171714
O22   O     O_2   0.064375 0.793383 0.716345 -0.140183
O23   O     O_3   0.126700 0.720383 0.635168 -0.561870
H17   H     H_    0.179743 0.714419 0.675183 0.353271
S6    S     S_3+6 0.208676 0.589493 0.304451 0.059934
O24   O     O_2   0.253678 0.515272 0.348734 -0.241550
O25   O     O_2   0.277655 0.660263 0.250671 -0.186843
O26   O     O_3   0.200452 0.662623 0.357328 -0.557913
H18   H     H_    0.172987 0.711024 0.324301 0.333161
C57   C     C_1   0.043415 0.858742 0.430484 0.460850
N11   N     N_1   0.958903 0.841131 0.410237 -0.252184
C58   C     C_1   0.953570 0.137320 0.559676 0.417106
N12   N     N_1   0.038570 0.152554 0.570527 -0.144099
S7    S     S_3+6 0.817286 0.909523 0.592171 0.068117
O27   O     O_2   0.842822 0.898315 0.672480 -0.168853
O28   O     O_2   0.735844 0.810122 0.572149 -0.293842
O29   O     O_3   0.919925 0.930380 0.556512 -0.419787
H19   H     H_    0.895716 0.926758 0.504816 0.368361
S8    S     S_3+6 0.175763 0.088909 0.417204 0.035662
O30   O     O_2   0.250360 0.184006 0.447465 -0.265570
O31   O     O_2   0.165334 0.111492 0.336595 -0.262895
O32   O     O_3   0.063753 0.058162 0.443545 -0.507864
H20   H     H_    0.044069 0.117089 0.420973 0.379348
C59   C     C_1   0.443785 0.815384 0.633739 0.273596
N13   N     N_1   0.397787 0.755063 0.677196 -0.233581
C60   C     C_1   0.550182 0.184079 0.381280 0.268702
N14   N     N_1   0.594549 0.240338 0.335772 -0.214267

loop_
_geom_bond_atom_site_label_1
_geom_bond_atom_site_label_2
_ccdc_geom_bond_type
C15   C18   A    
O14   H14   S    
C29   C33   A    
C27   C29   A    
C26   N6    A    
C2    C4    S    
C55   N9    T    
C41   H7    S    
C4    C8    A    
S8    O30   D    
S4    O19   D    
S6    O24   D    
C27   N5    A    
C60   N14   T    
C39   C41   A    
Cu1   Cu2   S    
C21   C31   A    
O29   H19   S    
C22   C32   A    
C35   C37   A    
C3    C7    A    
S5    O22   D    
C43   C52   S    
C23   C49   S    
C15   C16   A    
C56   N10   T    
C33   C36   A    
C34   C35   A    
C45   C47   A    
C9    H12   S    
O23   H17   S    
Cu2   O2    S    
C11   C15   A    
C24   O8    A    
Cu2   N5    S    
C12   C16   A    
C19   H9    S    
C16   C17   A    
O20   H16   S    
C36   C56   S    
C25   N5    A    
C25   H6    S    
C32   C38   A    
C26   H5    S    
C42   H8    S    
C5    C13   A    
C2    O2    A    
C40   C42   A    
C28   H3    S    
C41   C43   A    
C40   C54   S    
C28   N6    A    
C42   C44   A    
C7    C58   S    
S4    O18   D    
C10   H11   S    
C44   C46   A    
C53   N7    T    
C46   C48   A    
S1    O10   D    
C24   C50   S    
C21   S1    S    
C30   C34   A    
C1    O3    A    
C14   C20   A    
S7    O27   D    
Cu1   O8    S    
C52   N4    A    
C39   C53   S    
C47   C49   A    
C45   S3    S    
S5    O23   S    
C5    C7    A    
C13   C19   A    
S7    O29   S    
C6    C8    A    
S1    O9    D    
C46   S4    S    
C31   C37   A    
N1    N3    A    
C20   H10   S    
Cu1   O5    S    
C3    C9    A    
C6    C14   A    
C43   C45   A    
S2    O13   D    
C54   N8    T    
C33   C34   A    
C22   S2    S    
C18   C60   S    
C23   O5    A    
C9    C11   A    
C58   N12   T    
C52   N1    A    
C10   C12   A    
C44   C51   S    
C24   O6    A    
C39   C49   A    
C12   C14   A    
C17   C59   S    
C59   N13   T    
Cu1   O4    S    
C4    C10   A    
O32   H20   S    
S8    O32   S    
C2    O4    A    
S2    O14   S    
C48   S6    S    
Cu2   O7    S    
S1    O11   S    
C21   C25   A    
S3    O16   D    
Cu1   O1    S    
C27   H4    S    
S8    O31   D    
S6    O25   D    
C57   N11   T    
C23   O7    A    
C35   C55   S    
C5    S7    S    
S3    O15   D    
C1    O1    A    
C28   C30   A    
C6    S8    S    
C29   C31   A    
C47   S5    S    
O26   H18   S    
C36   C38   A    
C30   C32   A    
C11   C13   A    
S2    O12   D    
C40   C50   A    
C48   C50   A    
C17   C19   A    
C18   C20   A    
C51   N2    A    
O17   H15   S    
S6    O26   S    
S7    O28   D    
Cu2   O3    S    
C37   H1    S    
S3    O17   S    
C38   H2    S    
O11   H13   S    
N2    N4    A    
C22   C26   A    
C51   N3    A    
C1    C3    S    
S5    O21   D    
Cu1   N6    S    
S4    O20   S    
C8    C57   S    
Cu2   O6    S    
