data_mof_unit_34252.cif
_audit_creation_date              2012-12-11T14:30:54-0500
_audit_creation_method            fapswitch 2.2
_symmetry_space_group_name_H-M    P1
_symmetry_Int_Tables_number       1
_space_group_crystal_system       triclinic
_cell_length_a                    17.408048
_cell_length_b                    24.368546
_cell_length_c                    14.873597
_cell_angle_alpha                 90.631538
_cell_angle_beta                  124.907459
_cell_angle_gamma                 89.583615
_cell_volume                      5173.96942492

loop_
_atom_site_label
_atom_site_type_symbol
_atom_type_description
_atom_site_fract_x
_atom_site_fract_y
_atom_site_fract_z
_atom_type_partial_charge
C1    C     C_R   0.853921 0.653069 0.906673 -0.092024
C2    C     C_R   0.963027 0.501397 0.648038 0.153546
C3    C     C_2   0.534388 0.836665 0.799528 1.054544
C4    C     C_2   0.707471 0.404041 0.662085 0.979299
C5    C     C_2   0.256081 0.408897 0.364070 1.126153
C6    C     C_2   0.207374 0.904028 0.662227 0.978701
C7    C     C_2   0.755888 0.908974 0.364109 1.126384
C8    C     C_R   0.448858 0.004694 0.272514 0.140448
C9    C     C_R   0.463051 0.001406 0.648048 0.153363
C10   C     C_R   0.675396 0.501773 0.697511 0.100210
C11   C     C_R   0.306894 0.503528 0.356221 0.086436
C12   C     C_R   0.175384 0.001775 0.697623 0.100135
C13   C     C_R   0.806894 0.003507 0.356217 0.086542
C14   C     C_3   0.502751 0.467014 0.605187 0.800554
C15   C     C_3   0.467046 0.455416 0.486230 0.702222
C16   C     C_3   0.002687 0.967084 0.605395 0.799990
C17   C     C_R   0.150707 0.651751 0.094942 -0.077504
C18   C     C_3   0.966991 0.955356 0.486481 0.701709
C19   C     C_3   0.436076 0.516514 0.571100 -0.321595
C20   C     C_3   0.541231 0.492922 0.495050 -0.316005
C21   C     C_3   0.936038 0.016614 0.571116 -0.321910
C22   C     C_3   0.041214 0.992784 0.495195 -0.315869
C23   C     C_3   0.401329 0.504502 0.452091 -0.138483
C24   C     C_3   0.576738 0.504309 0.614387 -0.153897
C25   C     C_3   0.901306 0.004471 0.452152 -0.138790
C26   C     C_3   0.076713 0.004304 0.614492 -0.153537
C27   C     C_3   0.475182 0.542716 0.460803 -0.120314
C28   C     C_R   0.353921 0.153069 0.906671 -0.092086
C29   C     C_3   0.512195 0.554520 0.581633 -0.154734
C30   C     C_3   0.975201 0.042606 0.460764 -0.119996
C31   C     C_3   0.012196 0.054542 0.581546 -0.154633
C32   C     C_2   0.119194 0.773371 0.928923 -0.238526
C33   C     C_2   0.897652 0.779058 0.073522 -0.238019
C34   C     C_2   0.619076 0.273397 0.928899 -0.238517
C35   C     C_2   0.397677 0.279076 0.073496 -0.238067
C36   C     C_2   0.146605 0.741228 0.014881 -0.148523
C37   C     C_2   0.870282 0.745460 0.988011 -0.136165
C38   C     C_2   0.646531 0.241245 0.014863 -0.148411
C39   C     C_R   0.650691 0.151757 0.094938 -0.077528
C40   C     C_2   0.370276 0.245462 0.987996 -0.136065
C41   C     C_2   0.688671 0.311297 0.939028 0.545421
C42   C     C_2   0.331148 0.321562 0.060171 0.556294
C43   C     C_2   0.188824 0.811247 0.939072 0.545488
C44   C     C_2   0.831099 0.821521 0.060207 0.556306
C45   C     C_R   0.925841 0.356135 0.090268 -0.101019
C46   C     C_R   0.085231 0.365085 0.906293 -0.094121
C47   C     C_R   0.425949 0.856098 0.090294 -0.101363
C48   C     C_R   0.585197 0.865051 0.906302 -0.094110
C49   C     C_2   0.779158 0.295978 0.989710 0.513700
C50   C     C_R   0.845179 0.334716 0.997659 -0.041760
C51   C     C_2   0.238247 0.311321 0.001179 0.535580
C52   C     C_2   0.279309 0.795911 0.989782 0.513545
C53   C     C_2   0.738201 0.811264 0.001200 0.535596
C54   C     C_2   0.864916 0.469123 0.351183 -0.113314
C55   C     C_2   0.864570 0.477663 0.449890 -0.110029
C56   C     C_2   0.364991 0.969048 0.351241 -0.113528
C57   C     C_2   0.364655 0.977596 0.449952 -0.110134
C58   C     C_2   0.897344 0.510646 0.322713 -0.238732
C59   C     C_2   0.942607 0.500451 0.538966 -0.283234
C60   C     C_2   0.397300 0.010593 0.322668 -0.238629
C61   C     C_R   0.173943 0.351287 0.996355 -0.059513
C62   C     C_2   0.442621 0.000472 0.538966 -0.282848
C63   C     C_R   0.980470 0.548827 0.246087 -0.127726
C64   C     C_R   0.968999 0.547250 0.706834 -0.086329
C65   C     C_R   0.480444 0.048813 0.246070 -0.127641
C66   C     C_R   0.469018 0.047254 0.706848 -0.086123
C67   C     C_R   0.731756 0.455604 0.725772 -0.031734
C68   C     C_R   0.255479 0.457013 0.303356 -0.107938
C69   C     C_R   0.231739 0.955604 0.725873 -0.031454
C70   C     C_R   0.755477 0.956996 0.303336 -0.107498
C71   C     C_R   0.983258 0.457876 0.252436 -0.034184
C72   C     C_R   0.345340 0.834629 0.997697 -0.041518
C73   C     C_R   0.963585 0.455974 0.702376 -0.046300
C74   C     C_R   0.483260 0.957857 0.252419 -0.033578
C75   C     C_R   0.463589 0.955979 0.702374 -0.046600
C76   C     C_R   0.730982 0.547642 0.737817 -0.081803
C77   C     C_R   0.259688 0.548433 0.295807 -0.108903
C78   C     C_R   0.230980 0.047642 0.737880 -0.081811
C79   C     C_R   0.759691 0.048422 0.295822 -0.108815
C80   C     C_R   0.831760 0.360129 0.908744 -0.000543
C81   C     C_R   0.183487 0.373224 0.087745 -0.013917
C82   C     C_R   0.331868 0.860064 0.908767 -0.000626
C83   C     C_R   0.673885 0.851218 0.996379 -0.059156
C84   C     C_R   0.683437 0.873163 0.087769 -0.014695
C85   C     C_R   0.944616 0.653976 0.088392 -0.119288
C86   C     C_R   0.060174 0.652245 0.912323 -0.100474
C87   C     C_R   0.444613 0.153977 0.088390 -0.119318
C88   C     C_R   0.560157 0.152249 0.912321 -0.100442
C89   C     C_R   0.888089 0.686330 0.996777 0.187255
C90   C     C_R   0.120046 0.683882 0.005261 0.189698
C91   C     C_R   0.388087 0.186331 0.996773 0.187272
C92   C     C_R   0.620014 0.183891 0.005254 0.189705
C93   C     C_2   0.022397 0.774048 0.827716 1.115323
C94   C     C_R   0.948875 0.504722 0.272533 0.140617
C95   C     C_2   0.991884 0.776420 0.178421 1.103622
C96   C     C_2   0.522271 0.274054 0.827705 1.115202
C97   C     C_2   0.491923 0.276443 0.178379 1.103609
C98   C     C_2   0.838076 0.415029 0.294312 1.101940
C99   C     C_2   0.779865 0.462377 0.446571 1.074114
C100  C     C_2   0.338301 0.914923 0.294502 1.101964
C101  C     C_2   0.280040 0.962220 0.446748 1.074225
C102  C     C_2   0.982315 0.328512 0.197273 1.023850
C103  C     C_2   0.034449 0.336686 0.799533 1.054717
C104  C     C_2   0.482573 0.828477 0.197287 1.023734
F1    F     F_    0.518874 0.428242 0.681406 -0.574024
F2    F     F_    0.202099 0.261429 0.953810 -0.693370
F3    F     F_    0.309356 0.744059 0.027376 -0.669500
F4    F     F_    0.702073 0.761376 0.953791 -0.693332
F5    F     F_    0.445547 0.404074 0.437146 -0.628475
F6    F     F_    0.018779 0.928398 0.681736 -0.574189
F7    F     F_    0.945468 0.903967 0.437590 -0.628311
F8    F     F_    0.659834 0.362342 0.895267 -0.620642
F9    F     F_    0.365509 0.370578 0.113186 -0.662192
F10   F     F_    0.160014 0.862290 0.895288 -0.620576
F11   F     F_    0.865436 0.870534 0.113248 -0.662208
F12   F     F_    0.809221 0.244119 0.027245 -0.669525
H1    H     H_    0.818543 0.666831 0.822948 0.120104
H2    H     H_    0.812805 0.758529 0.906695 0.196438
H3    H     H_    0.708947 0.252580 0.094599 0.188892
H4    H     H_    0.312793 0.258525 0.906679 0.196448
H5    H     H_    0.901600 0.551339 0.356242 0.157191
H6    H     H_    0.000038 0.513882 0.535115 0.166455
H7    H     H_    0.401455 0.051295 0.356111 0.157196
H8    H     H_    0.499993 0.013986 0.535072 0.166464
H9    H     H_    0.967865 0.591617 0.252956 0.116149
H10   H     H_    0.957849 0.589437 0.680159 0.109868
H11   H     H_    0.467813 0.091599 0.252929 0.116131
H12   H     H_    0.188880 0.665605 0.179342 0.123622
H13   H     H_    0.457877 0.089443 0.680185 0.109853
H14   H     H_    0.976453 0.417080 0.272089 0.097765
H15   H     H_    0.943749 0.415378 0.667488 0.148571
H16   H     H_    0.476466 0.917047 0.272034 0.097669
H17   H     H_    0.443756 0.915384 0.667482 0.148475
H18   H     H_    0.709780 0.590217 0.722139 0.110443
H19   H     H_    0.276210 0.591175 0.319084 0.115759
H20   H     H_    0.209778 0.090218 0.722208 0.110422
H21   H     H_    0.776216 0.091162 0.319129 0.115766
H22   H     H_    0.782851 0.347222 0.825489 0.134227
H23   H     H_    0.318545 0.166830 0.822947 0.120142
H24   H     H_    0.244390 0.369629 0.170284 0.203860
H25   H     H_    0.283015 0.847122 0.825521 0.134309
H26   H     H_    0.744287 0.869523 0.170326 0.204124
H27   H     H_    0.990312 0.667865 0.172270 0.111020
H28   H     H_    0.017656 0.665519 0.828183 0.104902
H29   H     H_    0.490304 0.167867 0.172268 0.111047
H30   H     H_    0.517631 0.165523 0.828180 0.104900
H31   H     H_    0.390562 0.525726 0.599382 0.199606
H32   H     H_    0.585622 0.483041 0.465488 0.201643
H33   H     H_    0.890517 0.025919 0.599350 0.199654
H34   H     H_    0.688857 0.165611 0.179337 0.123644
H35   H     H_    0.085603 0.982808 0.465672 0.201676
H36   H     H_    0.937526 0.792653 0.667068 0.346606
H37   H     H_    0.072357 0.793154 0.340690 0.336488
H38   H     H_    0.437366 0.292655 0.667057 0.346669
H39   H     H_    0.572449 0.293234 0.340624 0.336579
H40   H     H_    0.779760 0.373096 0.152033 0.325844
H41   H     H_    0.655626 0.422935 0.366509 0.346956
H42   H     H_    0.279983 0.872921 0.152297 0.325768
H43   H     H_    0.156199 0.922358 0.367252 0.346896
H44   H     H_    0.987151 0.274411 0.302096 0.340944
H45   H     H_    0.461637 0.573959 0.399520 0.165815
H46   H     H_    0.039577 0.300393 0.680597 0.338895
H47   H     H_    0.487666 0.774319 0.302186 0.340959
H48   H     H_    0.539486 0.800337 0.680599 0.338967
H49   H     H_    0.748554 0.345098 0.601939 0.349859
H50   H     H_    0.248687 0.326899 0.373531 0.363563
H51   H     H_    0.248216 0.845110 0.601768 0.349794
H52   H     H_    0.749205 0.826967 0.374269 0.363522
H53   H     H_    0.533277 0.595264 0.622958 0.166433
H54   H     H_    0.961696 0.073776 0.399380 0.165797
H55   H     H_    0.033291 0.095321 0.622723 0.166345
H56   H     H_    0.209020 0.752555 0.094625 0.188822
N1    N     N_R   0.892320 0.603520 0.941090 -0.055859
N2    N     N_R   0.973240 0.529450 0.794410 -0.056444
N3    N     N_R   0.526760 0.029450 0.205590 -0.057161
N4    N     N_R   0.473240 0.029450 0.794410 -0.056437
N5    N     N_R   0.819350 0.473090 0.793940 -0.062253
N6    N     N_R   0.180650 0.473090 0.206060 -0.078535
N7    N     N_R   0.319350 0.973090 0.793940 -0.062283
N8    N     N_R   0.680650 0.973090 0.206060 -0.078717
N9    N     N_R   0.027860 0.473090 0.206590 -0.060031
N10   N     N_R   0.972140 0.473090 0.793410 -0.056744
N11   N     N_R   0.527860 0.973090 0.206590 -0.060091
N12   N     N_R   0.107680 0.603520 0.058910 -0.056735
N13   N     N_R   0.472140 0.973090 0.793410 -0.056717
N14   N     N_R   0.818250 0.529450 0.792940 -0.055739
N15   N     N_R   0.181750 0.529450 0.207060 -0.055251
N16   N     N_R   0.318250 0.029450 0.792940 -0.055738
N17   N     N_R   0.681750 0.029450 0.207060 -0.055256
N18   N     N_R   0.896320 0.399020 0.944720 -0.058507
N19   N     N_R   0.103680 0.399020 0.055280 -0.055933
N20   N     N_R   0.396320 0.899020 0.944720 -0.058512
N21   N     N_R   0.603680 0.899020 0.055280 -0.056154
N22   N     N_R   0.949790 0.603520 0.054810 -0.052134
N23   N     N_R   0.392320 0.103520 0.941090 -0.055861
N24   N     N_R   0.050210 0.603520 0.945190 -0.056471
N25   N     N_R   0.449790 0.103520 0.054810 -0.052147
N26   N     N_R   0.550210 0.103520 0.945190 -0.056472
N27   N     N_R   0.607680 0.103520 0.058910 -0.056729
N28   N     N_R   0.953790 0.399020 0.058440 -0.063920
N29   N     N_R   0.046210 0.399020 0.941560 -0.072752
N30   N     N_R   0.453790 0.899020 0.058440 -0.064036
N31   N     N_R   0.546210 0.899020 0.941560 -0.072726
N32   N     N_R   0.026760 0.529450 0.205590 -0.057190
Ni1   Ni    Ni4+2 0.934100 0.565890 0.869590 0.235620
Ni2   Ni    Ni4+2 0.065900 0.565890 0.130410 0.224747
Ni3   Ni    Ni4+2 0.434100 0.065890 0.869590 0.235660
Ni4   Ni    Ni4+2 0.565900 0.065890 0.130410 0.224802
Ni5   Ni    Ni4+2 0.068420 0.436630 0.132700 0.291405
Ni6   Ni    Ni4+2 0.931580 0.436630 0.867300 0.303751
Ni7   Ni    Ni4+2 0.568420 0.936630 0.132700 0.291221
Ni8   Ni    Ni4+2 0.431580 0.936630 0.867300 0.303701
O1    O     O_2   0.956450 0.759892 0.830396 -0.666617
O2    O     O_R   0.796057 0.412098 0.181329 -0.767773
O3    O     O_2   0.769172 0.479818 0.516133 -0.662091
O4    O     O_R   0.709719 0.430095 0.360273 -0.761035
O5    O     O_2   0.350934 0.873119 0.346091 -0.612159
O6    O     O_R   0.296150 0.911944 0.181494 -0.767811
O7    O     O_2   0.269122 0.979900 0.515987 -0.661868
O8    O     O_R   0.210232 0.929572 0.360930 -0.760975
O9    O     O_2   0.065129 0.339598 0.260871 -0.647545
O10   O     O_R   0.941150 0.290070 0.226390 -0.743612
O11   O     O_2   0.951107 0.326729 0.752468 -0.620728
O12   O     O_R   0.006324 0.793240 0.730049 -0.690074
O13   O     O_R   0.082040 0.319808 0.753775 -0.765897
O14   O     O_2   0.565386 0.839610 0.260773 -0.647929
O15   O     O_R   0.441566 0.789976 0.226503 -0.743341
O16   O     O_2   0.451022 0.826766 0.752428 -0.620820
O17   O     O_R   0.581972 0.819734 0.753791 -0.765726
O18   O     O_2   0.632398 0.381579 0.624766 -0.536255
O19   O     O_R   0.772488 0.380259 0.646837 -0.768625
O20   O     O_2   0.273431 0.415660 0.455591 -0.618133
O21   O     O_R   0.240424 0.355995 0.320409 -0.759513
O22   O     O_2   0.132392 0.881522 0.625250 -0.535936
O23   O     O_2   0.058822 0.759201 0.179958 -0.657534
O24   O     O_R   0.272204 0.880283 0.646621 -0.768702
O25   O     O_2   0.772252 0.915920 0.455121 -0.618490
O26   O     O_R   0.741240 0.855964 0.321142 -0.758732
O27   O     O_R   0.004858 0.796121 0.274869 -0.716726
O28   O     O_2   0.456345 0.259869 0.830402 -0.666697
O29   O     O_R   0.506166 0.293258 0.730029 -0.690051
O30   O     O_2   0.558838 0.259191 0.179901 -0.657617
O31   O     O_R   0.504939 0.296190 0.274823 -0.716614
O32   O     O_2   0.850452 0.373214 0.345766 -0.612418

loop_
_geom_bond_atom_site_label_1
_geom_bond_atom_site_label_2
_ccdc_geom_bond_type
C6    C69   S    
H44   O10   S    
C12   C69   A    
C13   C79   A    
N16   Ni3   S    
C16   C21   S    
C55   C59   D    
C27   H45   S    
C27   C29   S    
C15   F5    S    
C51   C61   S    
N30   Ni7   S    
C13   C25   S    
C3    O17   S    
C7    C70   S    
C62   H8    S    
C16   F6    S    
C57   C62   D    
C71   C94   A    
C10   C67   A    
C45   N28   A    
C21   C31   S    
C63   C94   A    
C1    N1    A    
C14   C24   S    
C65   H11   S    
N4    Ni3   S    
N13   Ni8   S    
C11   C23   S    
C34   C96   S    
C74   H16   S    
C87   C91   A    
N8    N17   A    
C5    C68   S    
C43   F10   S    
C54   C58   D    
C30   C31   S    
C80   H22   S    
C85   N22   A    
N21   Ni7   S    
C13   C70   A    
N17   Ni4   S    
N11   Ni7   S    
C38   C92   S    
C3    C48   S    
N10   Ni6   S    
C28   N23   A    
N12   Ni2   S    
C56   C57   S    
N9    Ni5   S    
C88   N26   A    
N24   Ni1   S    
C49   C50   S    
C35   C42   S    
C71   N9    A    
C9    C66   A    
C81   N19   A    
C21   C25   S    
C11   C77   A    
C79   N17   A    
C103  O11   D    
C97   O30   D    
C24   C29   S    
C10   C76   A    
C44   C53   D    
C46   N29   A    
N20   Ni8   S    
C37   H2    S    
C20   C24   S    
C52   F3    S    
N2    N10   A    
H41   O4    S    
C41   F8    S    
C12   C78   A    
N2    Ni1   S    
C1    C89   A    
C20   H32   S    
N26   N27   A    
C23   C27   S    
C28   C91   A    
C87   H29   S    
N29   Ni6   S    
C81   H24   S    
C98   O32   D    
C6    O24   S    
C42   C51   D    
C66   H13   S    
C86   N24   A    
C31   H55   S    
H50   O21   S    
C15   C23   S    
C32   C93   S    
C98   O2    S    
H38   O29   S    
C100  O6    S    
C8    C65   A    
C5    O21   S    
C65   N3    A    
C96   O28   D    
C66   N4    A    
C75   N13   A    
C28   H23   S    
C95   O23   D    
N3    Ni4   S    
C82   H25   S    
H47   O15   S    
C33   C95   S    
C41   C49   D    
C2    C64   A    
C14   F1    S    
C16   C26   S    
H51   O24   S    
N22   Ni2   S    
C73   H15   S    
C36   H56   S    
C63   N32   A    
H37   O27   S    
C46   C61   A    
C93   O1    D    
C9    C62   S    
C4    O19   S    
C7    O25   D    
N4    N13   A    
C18   F7    S    
C44   F11   S    
C86   C90   A    
C85   C89   A    
C2    C59   S    
C34   C38   D    
C1    H1    S    
N7    N16   A    
N20   N30   A    
C10   C24   S    
N12   N24   A    
N7    Ni8   S    
C33   C37   D    
N5    N14   A    
C56   C60   D    
N6    Ni5   S    
C12   C26   S    
H48   O17   S    
C82   N20   A    
C4    O18   D    
N5    Ni6   S    
N8    Ni7   S    
C19   C23   S    
C34   C41   S    
C52   C72   S    
C97   O31   S    
C101  O7    D    
C42   F9    S    
C83   C84   A    
C39   H34   S    
C7    O26   S    
C84   H26   S    
C84   N21   A    
H42   O6    S    
C49   F12   S    
C8    C74   A    
C5    O20   D    
C88   C92   A    
C87   N25   A    
C63   H9    S    
C2    C73   A    
N19   Ni5   S    
C30   H54   S    
N6    N15   A    
C79   H21   S    
N32   Ni2   S    
C100  O5    D    
C72   C82   A    
C21   H33   S    
H36   O12   S    
C67   N5    A    
C77   N15   A    
N31   Ni8   S    
N9    N32   A    
C78   N16   A    
C56   C100  S    
C64   N2    A    
C48   N31   A    
C19   C29   S    
C32   C36   D    
C39   C92   A    
H46   O13   S    
C76   N14   A    
C11   C68   A    
C102  O10   S    
C104  O15   S    
N3    N11   A    
C95   O27   S    
C36   C90   S    
C25   C30   S    
C39   N27   A    
C54   C55   S    
C58   H5    S    
C76   H18   S    
C47   C104  S    
C22   C30   S    
N14   Ni1   S    
C40   H4    S    
N26   Ni3   S    
C18   C22   S    
C38   H3    S    
C80   N18   A    
C14   C19   S    
C17   C90   A    
C57   C101  S    
C58   C94   S    
C50   C80   A    
N18   N28   A    
C4    C67   S    
H52   O26   S    
C85   H27   S    
C75   H17   S    
C17   H12   S    
C104  O14   D    
C74   N11   A    
C20   C27   S    
N1    Ni1   S    
C103  O13   S    
C77   H19   S    
C46   C103  S    
C64   H10   S    
N28   Ni5   S    
N21   N31   A    
C48   C83   A    
C37   C89   S    
C53   C83   S    
C22   H35   S    
C35   C40   D    
N18   Ni6   S    
C18   C25   S    
C69   N7    A    
C71   H14   S    
H40   O2    S    
C73   N10   A    
C17   N12   A    
C70   N8    A    
C99   O3    D    
C45   C50   A    
C59   H6    S    
C51   F2    S    
C53   F4    S    
N15   Ni2   S    
C68   N6    A    
N27   Ni4   S    
C96   O29   S    
C32   C43   S    
C86   H28   S    
C93   O12   S    
C40   C91   S    
C6    O22   D    
C43   C52   D    
C33   C44   S    
C19   H31   S    
C47   C72   A    
C45   C102  S    
C22   C26   S    
C101  O8    S    
C26   C31   S    
C60   H7    S    
N23   Ni3   S    
N19   N29   A    
C47   N30   A    
C16   C18   S    
H43   O8    S    
C99   O4    S    
C55   C99   S    
N1    N22   A    
H49   O19   S    
C88   H30   S    
C14   C15   S    
C54   C98   S    
N25   Ni4   S    
C61   C81   A    
C9    C75   A    
C29   H53   S    
C35   C97   S    
C78   H20   S    
C3    O16   D    
C15   C20   S    
C8    C60   S    
C102  O9    D    
N23   N25   A    
H39   O31   S    
