data_mof_unit_60266.cif
_audit_creation_date              2013-03-05T16:09:40-0500
_audit_creation_method            fapswitch 2.2
_symmetry_space_group_name_H-M    P1
_symmetry_Int_Tables_number       1
_space_group_crystal_system       triclinic
_cell_length_a                    37.42947
_cell_length_b                    30.404528
_cell_length_c                    21.738763
_cell_angle_alpha                 89.997549
_cell_angle_beta                  54.141642
_cell_angle_gamma                 89.999387
_cell_volume                      20050.3716194

loop_
_atom_site_label
_atom_site_type_symbol
_atom_site_description
_atom_site_fract_x
_atom_site_fract_y
_atom_site_fract_z
_atom_type_partial_charge
O1    O     O_R   0.064270 0.537190 0.435730 -0.589396
O2    O     O_R   0.935730 0.537190 0.564270 -0.584313
O3    O     O_R   0.564270 0.037190 0.435730 -0.584287
O4    O     O_R   0.435730 0.037190 0.564270 -0.589343
O5    O     O_R   0.064270 0.462800 0.435730 -0.531694
O6    O     O_R   0.935730 0.462800 0.564270 -0.543658
O7    O     O_R   0.564270 0.962800 0.435730 -0.543751
O8    O     O_R   0.435730 0.962800 0.564270 -0.531793
C1    C     C_R   0.085192 0.499907 0.415932 0.802141
C2    C     C_R   0.914923 0.499899 0.583810 0.812063
C3    C     C_R   0.585080 0.999901 0.416199 0.811894
C4    C     C_R   0.414808 0.999907 0.584067 0.802094
O9    O     O_R   0.000010 0.537190 0.590170 -0.580893
O10   O     O_R   0.999990 0.537190 0.409830 -0.585271
O11   O     O_R   0.500010 0.037190 0.590170 -0.585319
O12   O     O_R   0.499990 0.037190 0.409830 -0.580938
O13   O     O_R   0.000000 0.462800 0.590170 -0.559928
O14   O     O_R   0.000000 0.462800 0.409830 -0.549915
O15   O     O_R   0.500000 0.962800 0.590170 -0.549818
O16   O     O_R   0.500000 0.962800 0.409830 -0.559913
C5    C     C_R   0.000345 0.499927 0.618358 0.764002
C6    C     C_R   0.999615 0.499952 0.381681 0.774841
C7    C     C_R   0.500385 0.999950 0.618319 0.774649
C8    C     C_R   0.499657 0.999928 0.381640 0.763894
Cu1   Cu    Cu3+1 0.000000 0.544050 0.500000 1.025025
Cu2   Cu    Cu3+1 0.500000 0.044050 0.500000 1.025003
Cu3   Cu    Cu3+1 0.000000 0.455950 0.500000 1.121198
Cu4   Cu    Cu3+1 0.500000 0.955950 0.500000 1.121135
C9    C     C_R   0.964515 0.657425 0.008526 0.340682
C10   C     C_R   0.035687 0.657455 0.990376 0.337689
C11   C     C_R   0.464309 0.157457 0.009641 0.337690
C12   C     C_R   0.535492 0.157425 0.991451 0.340652
C13   C     C_R   0.500093 0.633434 0.999875 -0.026495
C14   C     C_R   0.999898 0.133416 0.000111 -0.039770
C15   C     C_R   0.078156 0.529628 0.604511 -0.251174
C16   C     C_R   0.923761 0.534770 0.394366 -0.234402
C17   C     C_R   0.576240 0.034766 0.605634 -0.234237
C18   C     C_R   0.421857 0.029658 0.395476 -0.250861
C19   C     C_R   0.113011 0.551572 0.597693 0.258369
C20   C     C_R   0.889840 0.558282 0.400572 0.251319
C21   C     C_R   0.610155 0.058289 0.599432 0.251633
C22   C     C_R   0.387010 0.051613 0.402284 0.258660
C23   C     C_R   0.108430 0.565521 0.663545 0.190404
C24   C     C_R   0.894148 0.570519 0.334270 0.192115
C25   C     C_R   0.605838 0.070535 0.665735 0.192679
C26   C     C_R   0.391593 0.065558 0.336427 0.190941
C27   C     C_R   0.070039 0.554622 0.735977 0.204840
C28   C     C_R   0.931467 0.557066 0.262380 0.207100
C29   C     C_R   0.568520 0.057077 0.737625 0.207350
C30   C     C_R   0.429978 0.054643 0.264000 0.205089
C31   C     C_R   0.036998 0.527068 0.742610 -0.045126
C32   C     C_R   0.963680 0.528568 0.256706 -0.046537
C33   C     C_R   0.536314 0.028570 0.743296 -0.046108
C34   C     C_R   0.463011 0.027080 0.257378 -0.044662
C35   C     C_R   0.039451 0.518935 0.676074 0.002095
C36   C     C_R   0.961317 0.521180 0.323372 0.006178
C37   C     C_R   0.538682 0.021177 0.676628 0.006376
C38   C     C_R   0.460557 0.018951 0.323916 0.002255
C39   C     C_R   0.003032 0.500096 0.682274 -0.001607
C40   C     C_R   0.996714 0.500269 0.317990 -0.000634
C41   C     C_R   0.503287 0.000262 0.682010 -0.000166
C42   C     C_R   0.496970 0.000099 0.317725 -0.001161
C43   C     C_R   0.966924 0.484604 0.751586 -0.187900
C44   C     C_R   0.031726 0.482644 0.249603 -0.182863
C45   C     C_R   0.468278 0.982628 0.750396 -0.182677
C46   C     C_R   0.533068 0.984588 0.248421 -0.187904
C47   C     C_R   0.966382 0.487544 0.815560 -0.163641
C48   C     C_R   0.032366 0.485664 0.185571 -0.162857
C49   C     C_R   0.467639 0.985647 0.814427 -0.163681
C50   C     C_R   0.533610 0.987526 0.184448 -0.164834
C51   C     C_R   0.001082 0.507822 0.812428 -0.028450
C52   C     C_R   0.998742 0.507706 0.187717 -0.029897
C53   C     C_R   0.501257 0.007700 0.812284 -0.028471
C54   C     C_R   0.498919 0.007820 0.187570 -0.027017
C55   C     C_R   0.203795 0.463157 0.321525 0.282949
C56   C     C_R   0.796593 0.466187 0.670177 0.291512
C57   C     C_R   0.703417 0.966190 0.329885 0.291675
C58   C     C_R   0.296204 0.963169 0.678432 0.282737
C59   C     C_R   0.157399 0.462485 0.367350 0.266163
C60   C     C_R   0.843085 0.466221 0.622217 0.260297
C61   C     C_R   0.656920 0.966212 0.377807 0.259621
C62   C     C_R   0.342601 0.962494 0.632618 0.265914
C63   C     C_R   0.133785 0.499625 0.369538 -0.177277
C64   C     C_R   0.866526 0.499493 0.630467 -0.163526
C65   C     C_R   0.633484 0.999504 0.369582 -0.163766
C66   C     C_R   0.366215 0.999625 0.630454 -0.177407
C67   C     C_R   0.156969 0.537159 0.327125 -0.160963
C68   C     C_R   0.843425 0.532077 0.685928 -0.174842
C69   C     C_R   0.656596 0.032138 0.314217 -0.174758
C70   C     C_R   0.343032 0.037155 0.672880 -0.161006
H1    H     H_    0.139641 0.565966 0.328035 0.183945
H2    H     H_    0.860893 0.557596 0.693126 0.178261
H3    H     H_    0.639137 0.057682 0.307049 0.178396
H4    H     H_    0.360360 0.065955 0.671988 0.184019
C71   C     C_R   0.202772 0.537873 0.282155 -0.155269
C72   C     C_R   0.797667 0.531550 0.733921 -0.168404
C73   C     C_R   0.702358 0.031631 0.266275 -0.168207
C74   C     C_R   0.297229 0.037870 0.717841 -0.155014
C75   C     C_R   0.226307 0.501041 0.278400 -0.034905
C76   C     C_R   0.774171 0.498937 0.726418 -0.052824
C77   C     C_R   0.725846 0.998976 0.273712 -0.053092
C78   C     C_R   0.273693 0.001046 0.721574 -0.035162
C79   C     C_R   0.298487 0.529320 0.241911 -0.072089
C80   C     C_R   0.702166 0.486150 0.849543 -0.105147
C81   C     C_R   0.797835 0.985537 0.150906 -0.102970
C82   C     C_R   0.201510 0.029349 0.758104 -0.071892
C83   C     C_R   0.344340 0.527603 0.195873 -0.223888
C84   C     C_R   0.656324 0.486983 0.894680 -0.210490
C85   C     C_R   0.843679 0.986373 0.105720 -0.209837
C86   C     C_R   0.155656 0.027633 0.804151 -0.223876
C87   C     C_R   0.366781 0.498760 0.133741 -0.141201
C88   C     C_R   0.633647 0.503560 0.866095 -0.147323
C89   C     C_R   0.866370 0.003551 0.133879 -0.146147
C90   C     C_R   0.133218 0.998767 0.866254 -0.139791
C91   C     C_R   0.342710 0.470921 0.118027 0.338255
C92   C     C_R   0.657973 0.520717 0.791215 0.316759
C93   C     C_R   0.842078 0.021316 0.208336 0.319888
C94   C     C_R   0.157291 0.970904 0.881933 0.338517
C95   C     C_R   0.296616 0.473128 0.164749 -0.156168
C96   C     C_R   0.704065 0.518385 0.745785 -0.127869
C97   C     C_R   0.795978 0.018996 0.253850 -0.130345
C98   C     C_R   0.203385 0.973109 0.835203 -0.155929
C99   C     C_R   0.274572 0.501823 0.226811 0.065741
C100  C     C_R   0.726009 0.501230 0.774815 0.080107
C101  C     C_R   0.774012 0.001238 0.225263 0.079561
C102  C     C_R   0.225427 0.001826 0.773167 0.066155
C103  C     C_R   0.000082 0.633778 0.999526 -0.194216
C104  C     C_R   0.499920 0.133779 0.000469 -0.194113
C105  C     C_R   0.964786 0.703337 0.009375 -0.186080
C106  C     C_R   0.035324 0.703360 0.989789 -0.179179
C107  C     C_R   0.464671 0.203361 0.010233 -0.179189
C108  C     C_R   0.535220 0.203338 0.990608 -0.186054
C109  C     C_R   0.500121 0.725779 0.999824 0.089770
C110  C     C_R   0.999877 0.225757 0.000187 0.085511
C111  C     C_R   0.000020 0.726335 0.999705 -0.030376
C112  C     C_R   0.499980 0.226336 0.000300 -0.030437
O17   O     O_R   0.962800 0.435720 0.037190 -0.591795
O18   O     O_R   0.037200 0.435720 0.962810 -0.591590
O19   O     O_R   0.462800 0.935720 0.037190 -0.591510
O20   O     O_R   0.537200 0.935720 0.962810 -0.590833
C113  C     C_R   0.999998 0.414847 0.000022 0.761381
C114  C     C_R   0.500002 0.914850 0.000001 0.761111
O21   O     O_R   0.962790 0.499990 0.947030 -0.576333
O22   O     O_R   0.037210 0.499990 0.052970 -0.574401
O23   O     O_R   0.462790 0.999990 0.947030 -0.576803
O24   O     O_R   0.537210 0.999990 0.052970 -0.578732
O25   O     O_R   0.037190 0.500000 0.872640 -0.572584
O26   O     O_R   0.962810 0.500000 0.127360 -0.570885
O27   O     O_R   0.537190 0.000000 0.872640 -0.568261
O28   O     O_R   0.462810 0.000000 0.127360 -0.570145
C115  C     C_R   0.000294 0.503725 0.880736 0.821061
C116  C     C_R   0.999673 0.503796 0.119273 0.822297
C117  C     C_R   0.500327 0.003794 0.880727 0.822343
C118  C     C_R   0.499706 0.003725 0.119263 0.820842
Cu5   Cu    Cu3+1 0.955950 0.499980 0.044050 1.118800
Cu6   Cu    Cu3+1 0.044050 0.499980 0.955950 1.120261
Cu7   Cu    Cu3+1 0.455950 0.999980 0.044050 1.120682
Cu8   Cu    Cu3+1 0.544050 0.999980 0.955950 1.119736
O29   O     O_R   0.962790 0.564250 0.037210 -0.511964
O30   O     O_R   0.037210 0.564250 0.962790 -0.513008
O31   O     O_R   0.462790 0.064250 0.037210 -0.513093
O32   O     O_R   0.537210 0.064250 0.962790 -0.512081
C119  C     C_R   0.509245 0.297764 0.045098 -0.123900
C120  C     C_R   0.490749 0.297692 0.955215 -0.126984
C121  C     C_R   0.009243 0.797689 0.044802 -0.127036
C122  C     C_R   0.990761 0.797766 0.954900 -0.123944
C123  C     C_R   0.000018 0.585168 0.999774 0.957973
C124  C     C_R   0.499983 0.085168 0.000223 0.957776
O33   O     O_R   0.500000 0.435740 0.052190 -0.589948
O34   O     O_R   0.500000 0.435740 0.947810 -0.565145
O35   O     O_R   0.000000 0.935740 0.052190 -0.565299
O36   O     O_R   0.000000 0.935740 0.947810 -0.590171
C125  C     C_R   0.500042 0.414988 0.999964 0.825102
C126  C     C_R   0.999957 0.914988 0.000039 0.824687
O37   O     O_R   0.435730 0.500010 0.116460 -0.575625
O38   O     O_R   0.564270 0.500010 0.883540 -0.530161
O39   O     O_R   0.935730 0.000010 0.116460 -0.531855
O40   O     O_R   0.064270 0.000010 0.883540 -0.578101
O41   O     O_R   0.435720 0.500010 0.012080 -0.554588
O42   O     O_R   0.564280 0.500010 0.987920 -0.599191
O43   O     O_R   0.935720 0.000010 0.012080 -0.596916
O44   O     O_R   0.064280 0.000010 0.987920 -0.551917
C127  C     C_R   0.415033 0.499420 0.085112 0.842494
C128  C     C_R   0.585107 0.501502 0.914711 0.828633
C129  C     C_R   0.914899 0.001495 0.085279 0.830774
C130  C     C_R   0.084967 0.999423 0.914888 0.843104
Cu9   Cu    Cu3+1 0.500000 0.500010 0.061800 1.010321
Cu10  Cu    Cu3+1 0.500000 0.500010 0.938200 1.102984
Cu11  Cu    Cu3+1 0.000000 0.000010 0.061800 1.101703
Cu12  Cu    Cu3+1 0.000000 0.000010 0.938200 1.011641
O45   O     O_R   0.500010 0.564280 0.052190 -0.595901
O46   O     O_R   0.499990 0.564280 0.947810 -0.563100
O47   O     O_R   0.000010 0.064280 0.052190 -0.566922
O48   O     O_R   0.999990 0.064280 0.947810 -0.592747
C131  C     C_R   0.509049 0.343540 0.045317 -0.166191
C132  C     C_R   0.490957 0.343473 0.954844 -0.106408
C133  C     C_R   0.009034 0.843470 0.045172 -0.106409
C134  C     C_R   0.990956 0.843542 0.954682 -0.166364
C135  C     C_R   0.500030 0.585083 0.999964 0.783699
C136  C     C_R   0.999967 0.085077 0.000035 0.786408
C137  C     C_R   0.037716 0.297317 0.943904 -0.147039
C138  C     C_R   0.962159 0.297367 0.056426 -0.143141
C139  C     C_R   0.537608 0.797377 0.981145 -0.140543
C140  C     C_R   0.462529 0.797334 0.018664 -0.147014
C141  C     C_R   0.037875 0.343175 0.944194 -0.159429
C142  C     C_R   0.962061 0.343224 0.056040 -0.159375
C143  C     C_R   0.537709 0.843233 0.980598 -0.160166
C144  C     C_R   0.462360 0.843192 0.019325 -0.157973
C145  C     C_R   0.999981 0.366492 0.000085 -0.035435
C146  C     C_R   0.500019 0.866501 0.999986 -0.029860
C147  C     C_R   0.500006 0.274602 0.000182 0.136844
C148  C     C_R   0.999993 0.774601 0.999825 0.136906
C149  C     C_R   0.500020 0.366745 0.000028 -0.034937
C150  C     C_R   0.999978 0.866745 0.999979 -0.034736
C151  C     C_R   0.999919 0.274141 0.000182 0.088993
C152  C     C_R   0.500087 0.774158 0.999873 0.092402
C153  C     C_R   0.486657 0.702582 0.960910 -0.141650
C154  C     C_R   0.513605 0.702582 0.038715 -0.146656
C155  C     C_R   0.985634 0.202536 0.066636 -0.148338
C156  C     C_R   0.014094 0.202576 0.933722 -0.145322
C157  C     C_R   0.486981 0.656726 0.960406 -0.141870
C158  C     C_R   0.513258 0.656725 0.039259 -0.156730
C159  C     C_R   0.985978 0.156678 0.066457 -0.124721
C160  C     C_R   0.013768 0.156721 0.933828 -0.170222
H5    H     H_    0.476560 0.639521 0.929790 0.166240
H6    H     H_    0.523675 0.639519 0.069884 0.162861
H7    H     H_    0.974959 0.139440 0.118372 0.189812
H8    H     H_    0.024794 0.139519 0.881884 0.163597
N1    N     N_R   0.928448 0.635731 0.014658 0.153620
O49   O     O_R   0.888343 0.649573 0.063835 -0.284327
O50   O     O_R   0.936033 0.607979 0.962698 -0.308555
N2    N     N_R   0.071957 0.635814 0.983634 0.155116
O51   O     O_R   0.112009 0.649534 0.933694 -0.277251
O52   O     O_R   0.064701 0.608338 0.035705 -0.303873
N3    N     N_R   0.428032 0.135817 0.016404 0.155151
O53   O     O_R   0.387983 0.149532 0.066365 -0.277097
O54   O     O_R   0.435278 0.108350 0.964334 -0.303840
N4    N     N_R   0.571566 0.135731 0.985296 0.153655
O55   O     O_R   0.611669 0.149572 0.936097 -0.284135
O56   O     O_R   0.563992 0.107980 0.037255 -0.308488
H9    H     H_    0.220015 0.566979 0.249007 0.166858
H10   H     H_    0.780405 0.557015 0.776550 0.172359
H11   H     H_    0.719627 0.057125 0.223703 0.172870
H12   H     H_    0.279987 0.066972 0.751002 0.167240
H13   H     H_    0.281596 0.551443 0.290104 0.184660
H14   H     H_    0.719088 0.472909 0.872268 0.156725
H15   H     H_    0.780896 0.971829 0.128526 0.156692
H16   H     H_    0.218398 0.051490 0.709934 0.183979
H17   H     H_    0.362415 0.549194 0.208242 0.171902
H18   H     H_    0.638558 0.473888 0.951750 0.177393
H19   H     H_    0.861440 0.972806 0.048966 0.177050
H20   H     H_    0.137577 0.049245 0.791814 0.169099
N5    N     N_R   0.364142 0.438993 0.057811 0.135884
O57   O     O_R   0.397061 0.416012 0.045569 -0.354815
O58   O     O_R   0.346744 0.428099 0.022803 -0.317870
N6    N     N_R   0.636856 0.542373 0.761724 0.137982
O59   O     O_R   0.607689 0.572904 0.801365 -0.336132
O60   O     O_R   0.652345 0.537577 0.690678 -0.281758
N7    N     N_R   0.863242 0.043573 0.237239 0.137822
O61   O     O_R   0.892711 0.073683 0.196557 -0.355052
O62   O     O_R   0.847584 0.039738 0.308508 -0.283835
N8    N     N_R   0.135860 0.938956 0.942123 0.135886
O63   O     O_R   0.102932 0.915994 0.954366 -0.355088
O64   O     O_R   0.153268 0.928028 0.977104 -0.317815
H21   H     H_    0.277707 0.451462 0.154307 0.184674
H22   H     H_    0.723012 0.531022 0.688267 0.206031
H23   H     H_    0.777042 0.032101 0.311055 0.206199
H24   H     H_    0.222296 0.951427 0.845619 0.184441
H25   H     H_    0.516221 0.360716 0.080563 0.168001
H26   H     H_    0.483764 0.360600 0.919584 0.186554
H27   H     H_    0.016221 0.860596 0.080439 0.186517
H28   H     H_    0.983790 0.860720 0.919427 0.167957
H29   H     H_    0.937492 0.721261 0.016739 0.182751
H30   H     H_    0.062624 0.721294 0.982391 0.188614
H31   H     H_    0.437367 0.221295 0.017647 0.188671
H32   H     H_    0.562517 0.221261 0.983232 0.182835
H33   H     H_    0.516112 0.280403 0.080620 0.155967
H34   H     H_    0.483852 0.280269 0.919782 0.159993
H35   H     H_    0.016134 0.780264 0.080242 0.159950
H36   H     H_    0.983899 0.780407 0.919369 0.155926
H37   H     H_    0.067251 0.279894 0.900312 0.146983
H38   H     H_    0.932599 0.279984 0.100046 0.152122
H39   H     H_    0.566983 0.779990 0.966057 0.147245
H40   H     H_    0.433179 0.779911 0.033712 0.144327
H41   H     H_    0.939069 0.469975 0.756072 0.146522
H42   H     H_    0.058773 0.466472 0.245793 0.152313
H43   H     H_    0.441235 0.966450 0.754205 0.151697
H44   H     H_    0.560917 0.969948 0.243943 0.145924
H45   H     H_    0.067484 0.360364 0.900292 0.166110
H46   H     H_    0.932473 0.360453 0.099905 0.167507
H47   H     H_    0.567109 0.860461 0.965723 0.161591
H48   H     H_    0.432938 0.860389 0.034234 0.162055
H49   H     H_    0.476404 0.719987 0.930192 0.148217
H50   H     H_    0.523864 0.719987 0.069422 0.144821
H51   H     H_    0.974782 0.219923 0.118352 0.153598
H52   H     H_    0.024941 0.219993 0.882031 0.147947
H53   H     H_    0.081547 0.521167 0.552970 0.186297
H54   H     H_    0.920590 0.527539 0.446061 0.195523
H55   H     H_    0.579417 0.027526 0.553936 0.195390
H56   H     H_    0.418464 0.021200 0.447020 0.186243
N9    N     N_R   0.151645 0.562080 0.523386 0.163956
O65   O     O_R   0.166699 0.534189 0.468019 -0.346802
O66   O     O_R   0.169711 0.600801 0.508965 -0.269165
N10   N     N_R   0.852713 0.572191 0.474347 0.168939
O67   O     O_R   0.838198 0.547418 0.533362 -0.348685
O68   O     O_R   0.836123 0.611366 0.484386 -0.251846
N11   N     N_R   0.647284 0.072198 0.525657 0.168882
O69   O     O_R   0.661819 0.047411 0.466653 -0.348560
O70   O     O_R   0.663859 0.111382 0.515606 -0.252806
N12   N     N_R   0.348382 0.062138 0.476588 0.163929
O71   O     O_R   0.333321 0.034256 0.531973 -0.346671
O72   O     O_R   0.330330 0.100864 0.490985 -0.269961
N13   N     N_R   0.142358 0.591711 0.657000 0.196576
O73   O     O_R   0.181927 0.575857 0.623503 -0.252969
O74   O     O_R   0.134532 0.632387 0.679941 -0.234812
N14   N     N_R   0.861113 0.597666 0.339604 0.197624
O75   O     O_R   0.820791 0.583512 0.375392 -0.241622
O76   O     O_R   0.870644 0.637543 0.312806 -0.233446
N15   N     N_R   0.638864 0.097696 0.660403 0.197564
O77   O     O_R   0.679190 0.083555 0.624618 -0.241733
O78   O     O_R   0.629322 0.137571 0.687198 -0.233958
N16   N     N_R   0.357675 0.091758 0.342961 0.196526
O79   O     O_R   0.318100 0.075919 0.376468 -0.252987
O80   O     O_R   0.365516 0.132432 0.319996 -0.235308
N17   N     N_R   0.062213 0.576971 0.800766 0.136003
O81   O     O_R   0.027899 0.602327 0.840196 -0.362032
O82   O     O_R   0.093008 0.579070 0.811296 -0.264289
N18   N     N_R   0.939298 0.577905 0.196579 0.132953
O83   O     O_R   0.973310 0.603576 0.156763 -0.362328
O84   O     O_R   0.908089 0.579690 0.187040 -0.265589
N19   N     N_R   0.560682 0.077918 0.803428 0.132683
O85   O     O_R   0.526659 0.103573 0.843251 -0.362540
O86   O     O_R   0.591891 0.079718 0.812967 -0.265327
N20   N     N_R   0.437810 0.076986 0.199200 0.135757
O87   O     O_R   0.472129 0.102337 0.159764 -0.362245
O88   O     O_R   0.407012 0.079094 0.188676 -0.264043
H57   H     H_    0.938749 0.473165 0.867783 0.168716
H58   H     H_    0.059190 0.469907 0.134061 0.169321
H59   H     H_    0.440819 0.969881 0.865937 0.167245
H60   H     H_    0.561234 0.973132 0.132234 0.166781
N21   N     N_R   0.227865 0.426274 0.321517 0.142610
O89   O     O_R   0.219613 0.386615 0.310597 -0.257323
O90   O     O_R   0.258600 0.432265 0.331425 -0.287213
N22   N     N_R   0.772340 0.433959 0.659992 0.153452
O91   O     O_R   0.739880 0.412546 0.717908 -0.314325
O92   O     O_R   0.782210 0.426389 0.592758 -0.238791
N23   N     N_R   0.727659 0.933968 0.340107 0.153831
O93   O     O_R   0.760117 0.912541 0.282219 -0.314721
O94   O     O_R   0.717760 0.926396 0.407361 -0.237385
N24   N     N_R   0.272135 0.926294 0.678415 0.142766
O95   O     O_R   0.280385 0.886628 0.689310 -0.257184
O96   O     O_R   0.241400 0.932302 0.668510 -0.286925
N25   N     N_R   0.134618 0.425623 0.416226 0.164334
O97   O     O_R   0.127875 0.390544 0.390091 -0.273461
O98   O     O_R   0.116809 0.428829 0.488436 -0.313301
N26   N     N_R   0.866110 0.432684 0.565363 0.160123
O99   O     O_R   0.857784 0.391365 0.584135 -0.268869
O100  O     O_R   0.893608 0.443337 0.494196 -0.332935
N27   N     N_R   0.633889 0.932649 0.434613 0.160307
O101  O     O_R   0.642240 0.891338 0.415794 -0.268327
O102  O     O_R   0.606374 0.943270 0.505790 -0.331688
N28   N     N_R   0.365383 0.925639 0.583729 0.164546
O103  O     O_R   0.372121 0.890550 0.609855 -0.273539
O104  O     O_R   0.383202 0.928862 0.511517 -0.312122

loop_
_geom_bond_atom_site_label_1
_geom_bond_atom_site_label_2
_geom_bond_distance
_ccdc_geom_bond_type
N16   O80   1.301139 A    
Cu7   Cu8   2.672597 S    
C67   H1    1.083096 S    
C57   C77   1.410151 A    
C79   C99   1.397218 A    
C88   C128  1.473812 S    
N9    O65   1.300330 A    
C17   C21   1.393047 A    
C5    C39   1.450666 S    
C35   C39   1.410388 A    
C6    C40   1.450895 S    
C93   N7    1.436485 S    
O19   C114  1.294721 A    
C71   C75   1.397299 A    
C13   C135  1.470072 S    
C110  C155  1.402507 A    
C95   H21   1.083817 S    
C157  H5    1.083039 S    
C61   N27   1.436025 S    
O27   C117  1.289885 A    
C122  C148  1.401640 A    
C34   C54   1.436228 A    
C140  C144  1.394329 A    
C50   C54   1.402886 A    
C143  C146  1.404187 A    
O4    C4    1.299443 A    
C74   H12   1.083540 S    
C13   C158  1.404171 A    
O21   C115  1.300091 A    
C111  C148  1.467519 S    
C22   N12   1.437315 S    
C31   C51   1.436217 A    
C24   N14   1.433759 S    
C160  H8    1.083063 S    
N25   O98   1.300814 A    
O38   Cu10  1.962130 S    
C43   C47   1.381819 A    
C62   N28   1.432008 S    
C153  C157  1.394255 A    
N4    O56   1.301081 A    
Cu5   Cu6   2.672597 S    
O33   Cu9   1.965246 S    
C66   C70   1.402895 A    
C83   H17   1.083576 S    
O41   Cu10  1.959852 S    
O16   Cu4   1.971209 S    
O36   Cu12  1.965229 S    
C74   C78   1.397303 A    
O13   C5    1.288117 A    
O7    Cu4   1.960777 S    
C84   H18   1.083212 S    
N14   O75   1.301013 A    
C76   C100  1.462670 S    
C125  C149  1.466815 S    
C122  C134  1.391816 A    
N1    O49   1.301237 A    
C32   C52   1.438069 A    
O42   Cu9   1.959852 S    
O23   Cu7   1.970077 S    
O43   Cu12  1.959852 S    
C58   C62   1.407760 A    
O24   C118  1.300086 A    
C48   C52   1.402290 A    
N2    O52   1.301042 A    
O9    C5    1.291583 A    
C1    C63   1.475209 S    
C155  H51   1.083246 S    
C26   N16   1.433617 S    
O8    Cu4   1.960787 S    
O48   C136  1.299104 A    
C134  C150  1.403944 A    
C113  C145  1.470187 S    
C138  H38   1.083256 S    
O37   C127  1.297454 A    
C92   N6    1.436289 S    
O38   C128  1.299495 A    
C10   C103  1.422432 A    
C85   H19   1.083222 S    
O43   C129  1.299476 A    
O3    Cu2   1.960817 S    
C64   C68   1.400523 A    
N7    O62   1.301387 A    
O18   C113  1.294765 A    
C19   C23   1.403936 A    
C37   C41   1.411253 A    
C95   C99   1.399329 A    
C56   C76   1.410175 A    
C56   N22   1.438278 S    
C39   C43   1.390307 A    
C4    C66   1.475214 S    
C45   H43   1.084076 S    
C46   H44   1.084065 S    
C46   C50   1.381819 A    
C29   C33   1.430181 A    
O29   C123  1.296094 A    
C31   C35   1.416383 A    
C141  H45   1.083046 S    
N24   O95   1.300622 A    
O3    C3    1.298063 A    
C43   H41   1.084066 S    
O40   C130  1.297430 A    
C41   C45   1.390059 A    
C28   C32   1.430184 A    
O19   Cu7   1.964821 S    
C69   C73   1.388813 A    
N27   O101  1.301118 A    
C21   C25   1.403362 A    
C79   C83   1.391953 A    
C23   C27   1.415322 A    
C25   N15   1.433759 S    
C17   C37   1.409589 A    
C133  C150  1.403893 A    
C24   C28   1.415394 A    
C108  H32   1.083822 S    
C17   H55   1.081250 S    
Cu8   O32   1.965088 S    
N15   O78   1.301168 A    
C18   H56   1.082149 S    
C49   H59   1.083681 S    
O28   Cu7   1.972477 S    
C97   H23   1.083982 S    
C98   H24   1.083817 S    
O5    C1    1.294793 A    
C79   H13   1.083396 S    
N28   O104  1.300814 A    
C44   C48   1.381134 A    
C22   C26   1.403930 A    
N5    O57   1.301155 A    
C159  H7    1.083085 S    
N13   O74   1.301138 A    
C73   H11   1.083624 S    
N28   O103  1.300798 A    
O17   Cu5   1.964821 S    
C94   C98   1.399891 A    
N17   O82   1.301604 A    
C11   C107  1.395903 A    
O20   Cu8   1.964813 S    
C105  C111  1.395546 A    
O21   Cu5   1.970077 S    
C144  H48   1.083053 S    
N6    O60   1.301427 A    
C77   C101  1.462726 S    
O26   Cu5   1.972477 S    
C133  H27   1.083014 S    
O27   Cu8   1.972472 S    
C86   C90   1.403503 A    
C134  H28   1.082986 S    
C108  C112  1.395544 A    
N10   O68   1.301233 A    
Cu11  Cu12  2.686913 S    
C87   C127  1.463874 S    
O36   C126  1.298069 A    
N21   O90   1.301271 A    
C96   H22   1.084020 S    
C42   C46   1.390316 A    
Cu5   O29   1.965082 S    
O13   Cu3   1.971224 S    
Cu6   O30   1.965088 S    
C107  C112  1.395293 A    
N20   O87   1.299574 A    
C119  H33   1.083299 S    
C86   H20   1.083591 S    
C11   N3    1.436781 S    
C92   C96   1.400193 A    
O22   Cu6   1.970081 S    
O25   C115  1.290810 A    
C97   C101  1.397255 A    
C14   C136  1.469717 S    
C156  H52   1.083254 S    
C16   H54   1.081245 S    
O8    C4    1.294806 A    
C89   C129  1.473492 S    
C55   C75   1.410696 A    
C132  H26   1.083011 S    
O15   Cu4   1.971224 S    
O32   C124  1.296099 A    
C80   H14   1.083440 S    
C9    C103  1.422057 A    
C89   C93   1.419218 A    
C131  H25   1.082988 S    
C88   C92   1.419296 A    
C14   C159  1.404112 A    
C81   C85   1.391102 A    
C8    C42   1.450663 S    
O14   C6    1.288757 A    
C83   C87   1.403499 A    
O26   C116  1.289871 A    
N22   O92   1.301217 A    
N18   O83   1.299247 A    
C78   C102  1.465713 S    
C120  C132  1.391983 A    
C121  C148  1.401860 A    
N8    O63   1.301154 A    
C80   C100  1.395399 A    
C50   H60   1.083543 S    
C140  C152  1.402438 A    
C91   C95   1.399892 A    
C109  C154  1.402392 A    
Cu10  O46   1.965220 S    
O10   C6    1.290981 A    
C9    N1    1.436814 S    
O22   C116  1.300915 A    
C154  H50   1.083256 S    
C55   C59   1.407746 A    
C3    C65   1.469175 S    
C110  C156  1.402440 A    
C72   C76   1.396923 A    
C153  H49   1.083260 S    
C69   H3    1.083435 S    
O37   Cu9   1.962134 S    
C139  H39   1.083259 S    
C20   C24   1.403364 A    
N22   O91   1.301145 A    
O34   Cu10  1.965229 S    
C137  C141  1.394340 A    
C61   C65   1.417668 A    
C13   C157  1.404211 A    
C38   C42   1.410386 A    
C63   C67   1.402893 A    
C68   C72   1.388755 A    
C81   H15   1.083422 S    
C58   C78   1.410706 A    
C105  H29   1.083825 S    
C106  C111  1.395295 A    
C156  C160  1.394252 A    
C60   C64   1.417628 A    
N25   O97   1.300795 A    
C30   C34   1.429398 A    
O20   C114  1.294611 A    
C142  H46   1.083045 S    
C82   C86   1.391966 A    
O40   Cu12  1.962130 S    
C44   H42   1.084080 S    
O39   C129  1.299454 A    
N14   O76   1.301168 A    
O44   C130  1.296236 A    
C57   N23   1.438273 S    
C18   C38   1.408622 A    
C51   C115  1.473117 S    
C52   C116  1.472546 S    
O42   C128  1.299631 A    
N3    O53   1.301225 A    
C49   C53   1.402292 A    
C138  C151  1.402381 A    
C106  H30   1.083857 S    
N16   O79   1.301003 A    
C58   N24   1.438422 S    
C70   H4    1.083098 S    
N12   O72   1.301207 A    
N9    O66   1.301202 A    
O12   Cu2   1.971479 S    
O35   C126  1.298307 A    
N11   O69   1.300641 A    
C56   C60   1.410565 A    
C139  C152  1.402359 A    
O1    C1    1.299455 A    
N23   O93   1.301130 A    
C65   C69   1.400559 A    
C27   C31   1.429399 A    
C10   C106  1.395910 A    
C84   C88   1.406598 A    
C126  C150  1.466818 S    
C15   C19   1.393776 A    
N19   O85   1.299251 A    
C16   C36   1.409592 A    
C121  C133  1.391990 A    
C119  C131  1.391823 A    
N24   O96   1.301268 A    
O25   Cu6   1.972472 S    
O24   Cu8   1.970081 S    
C81   C101  1.395436 A    
Cu7   O31   1.965082 S    
C80   C84   1.391065 A    
O17   C113  1.294657 A    
N4    O55   1.301238 A    
C33   C37   1.417161 A    
C109  C152  1.470947 S    
O6    C2    1.292957 A    
O4    Cu2   1.960813 S    
C18   C22   1.393769 A    
O47   C136  1.299004 A    
C82   C102  1.397234 A    
C90   C130  1.463852 S    
Cu9   Cu10  2.686913 S    
N1    O50   1.301084 A    
C62   C66   1.417499 A    
C59   C63   1.417513 A    
C12   C104  1.422065 A    
N13   O73   1.301002 A    
C12   N4    1.436812 S    
C45   C49   1.381146 A    
N2    O51   1.301226 A    
O2    Cu1   1.960813 S    
C47   C51   1.402888 A    
O10   Cu1   1.971479 S    
N17   O81   1.299576 A    
C131  C149  1.403940 A    
C110  C151  1.471103 S    
C155  C159  1.394347 A    
N15   O77   1.301013 A    
C36   C40   1.411256 A    
C7    C41   1.450903 S    
N12   O71   1.300326 A    
C82   H16   1.083395 S    
C60   N26   1.436036 S    
O34   C125  1.298294 A    
O15   C7    1.288755 A    
N21   O89   1.300620 A    
O7    C3    1.293035 A    
C54   C118  1.473107 S    
O45   C135  1.299227 A    
C47   H57   1.083537 S    
N20   O88   1.301602 A    
O46   C135  1.299061 A    
C158  H6    1.083037 S    
C120  C147  1.401853 A    
O35   Cu11  1.965246 S    
O30   C123  1.295210 A    
C10   N2    1.436782 S    
C20   N10   1.439115 S    
C93   C97   1.400400 A    
C137  C151  1.402464 A    
C59   N25   1.432010 S    
O16   C8    1.288110 A    
C91   N5    1.438496 S    
O44   Cu11  1.959852 S    
C57   C61   1.410662 A    
Cu9   O45   1.965202 S    
C85   C89   1.406427 A    
O23   C117  1.300895 A    
O11   C7    1.290989 A    
O12   C8    1.291592 A    
O5    Cu3   1.960777 S    
O1    Cu1   1.960817 S    
N3    O54   1.301044 A    
C120  H34   1.083290 S    
C11   C104  1.422432 A    
C121  H35   1.083291 S    
C122  H36   1.083299 S    
C14   C160  1.404048 A    
C40   C44   1.390045 A    
C154  C158  1.394285 A    
O41   C127  1.296222 A    
C15   H53   1.082150 S    
C9    C105  1.396192 A    
O39   Cu11  1.962134 S    
C23   N13   1.433616 S    
C15   C35   1.408617 A    
C68   H2    1.083440 S    
C16   C20   1.393041 A    
N18   O84   1.301647 A    
C137  H37   1.083257 S    
N5    O58   1.301393 A    
C119  C147  1.401645 A    
O11   Cu2   1.971457 S    
N8    O64   1.301397 A    
C139  C143  1.394264 A    
C21   N11   1.439102 S    
C109  C153  1.402355 A    
C67   C71   1.389882 A    
N11   O70   1.301231 A    
N26   O100  1.300830 A    
C98   C102  1.399334 A    
C107  H31   1.083855 S    
Cu11  O47   1.965202 S    
N23   O94   1.301216 A    
C112  C147  1.467513 S    
O6    Cu3   1.960787 S    
C94   N8    1.438498 S    
C141  C145  1.404159 A    
N6    O59   1.301538 A    
C25   C29   1.415393 A    
N27   O102  1.300835 A    
N19   O86   1.301646 A    
C72   H10   1.083627 S    
C90   C94   1.416142 A    
C103  C123  1.477974 S    
N10   O67   1.300644 A    
C71   H9    1.083541 S    
C138  C142  1.394321 A    
C114  C146  1.470007 S    
N7    O61   1.301517 A    
O2    C2    1.298036 A    
C12   C108  1.396192 A    
C75   C99   1.465691 S    
C34   C38   1.416378 A    
O18   Cu6   1.964813 S    
C27   N17   1.431074 S    
O33   C125  1.298078 A    
C140  H40   1.083254 S    
C55   N21   1.438422 S    
C33   C53   1.438057 A    
O14   Cu3   1.971209 S    
O9    Cu1   1.971457 S    
C143  H47   1.083050 S    
C29   N19   1.429088 S    
Cu1   Cu3   2.678636 S    
C26   C30   1.415324 A    
Cu2   Cu4   2.678636 S    
C19   N9    1.437310 S    
C48   H58   1.083673 S    
C132  C149  1.403895 A    
C142  C145  1.404237 A    
C28   N18   1.429085 S    
C30   N20   1.431059 S    
C2    C64   1.468959 S    
N26   O99   1.301119 A    
O31   C124  1.295208 A    
Cu12  O48   1.965220 S    
C32   C36   1.417172 A    
C144  C146  1.404133 A    
O28   C118  1.290809 A    
C53   C117  1.472531 S    
C104  C124  1.477986 S    
C87   C91   1.416151 A    
C70   C74   1.389882 A    
C73   C77   1.396909 A    
C96   C100  1.397207 A    
