data_mof_unit_30411.cif
_audit_creation_date              2013-03-05T15:47:46-0500
_audit_creation_method            fapswitch 2.2
_symmetry_space_group_name_H-M    P1
_symmetry_Int_Tables_number       1
_space_group_crystal_system       triclinic
_cell_length_a                    10.898947
_cell_length_b                    13.027733
_cell_length_c                    11.834722
_cell_angle_alpha                 102.096955
_cell_angle_beta                  92.026153
_cell_angle_gamma                 95.565215
_cell_volume                      1632.65759894

loop_
_atom_site_label
_atom_site_type_symbol
_atom_site_description
_atom_site_fract_x
_atom_site_fract_y
_atom_site_fract_z
_atom_type_partial_charge
O1    O     O_R   0.506570 0.354460 0.582000 -0.562210
O2    O     O_R   0.493430 0.645540 0.418000 -0.562233
O3    O     O_R   0.490940 0.341410 0.386200 -0.546935
O4    O     O_R   0.509060 0.658590 0.613800 -0.546901
C1    C     C_R   0.502600 0.298684 0.475855 0.817510
C2    C     C_R   0.497397 0.701316 0.524146 0.817515
O5    O     O_R   0.327470 0.506520 0.597900 -0.554906
O6    O     O_R   0.672530 0.493480 0.402100 -0.554805
O7    O     O_R   0.311840 0.493460 0.402100 -0.552257
O8    O     O_R   0.688160 0.506540 0.597900 -0.552282
C3    C     C_R   0.263943 0.511974 0.503038 0.811068
C4    C     C_R   0.736058 0.488030 0.496962 0.811119
Cu1   Cu    Cu3+1 0.509250 0.507730 0.615930 1.057291
Cu2   Cu    Cu3+1 0.490750 0.492270 0.384070 1.057300
C5    C     C_R   0.123075 0.573459 0.718817 -0.174716
C6    C     C_R   0.876923 0.426565 0.281178 -0.174713
C7    C     C_R   0.060159 0.568523 0.818526 -0.088794
C8    C     C_R   0.939843 0.431483 0.181470 -0.089013
C9    C     C_R   0.945217 0.508700 0.810360 0.477788
C10   C     C_R   0.054797 0.491287 0.189633 0.477669
C11   C     C_R   0.889857 0.463722 0.700908 -0.193716
C12   C     C_R   0.110153 0.536275 0.299084 -0.193708
C13   C     C_R   0.941257 0.487773 0.600591 0.027478
C14   C     C_R   0.058747 0.512237 0.399404 0.027502
C15   C     C_R   0.066737 0.527921 0.608192 0.103836
C16   C     C_R   0.933264 0.472096 0.391804 0.103919
C17   C     C_R   0.870491 0.474082 0.494480 -0.186265
C18   C     C_R   0.129512 0.525930 0.505517 -0.186274
H1    H     H_    0.213598 0.616582 0.729209 0.150850
H2    H     H_    0.786397 0.383450 0.270786 0.150843
H3    H     H_    0.103324 0.608037 0.901851 0.205195
H4    H     H_    0.896677 0.391964 0.098147 0.205228
H5    H     H_    0.804262 0.412961 0.695109 0.176751
H6    H     H_    0.195750 0.587033 0.304878 0.176756
C19   C     C_R   0.492603 0.816610 0.541165 -0.108294
C20   C     C_R   0.507391 0.183389 0.458837 -0.108259
C21   C     C_R   0.478045 0.003064 0.345102 -0.217292
C22   C     C_R   0.521951 0.996934 0.654902 -0.217327
C23   C     C_R   0.490673 0.111786 0.349054 0.002552
C24   C     C_R   0.509319 0.888211 0.650947 0.002583
C25   C     C_R   0.524370 0.143095 0.558794 -0.197797
C26   C     C_R   0.475625 0.856904 0.441209 -0.197811
C27   C     C_R   0.512645 0.035144 0.553565 0.146714
C28   C     C_R   0.487352 0.964855 0.446439 0.146740
H7    H     H_    0.453553 0.804144 0.357855 0.197168
H8    H     H_    0.546435 0.195855 0.642150 0.197129
H9    H     H_    0.464885 0.947826 0.262079 0.140613
H10   H     H_    0.535111 0.052169 0.737927 0.140576
N1    N     N_R   0.523180 0.519350 0.790130 -0.298510
N2    N     N_R   0.476820 0.480650 0.209870 -0.298487
C29   C     C_R   0.383851 0.396137 0.018242 -0.191722
C30   C     C_R   0.616168 0.603853 0.981750 -0.191774
C31   C     C_R   0.388517 0.406766 0.139348 0.447825
C32   C     C_R   0.611503 0.593215 0.860645 0.447868
C33   C     C_R   0.551793 0.546417 0.158014 0.463420
C34   C     C_R   0.448183 0.453606 0.841988 0.463437
C35   C     C_R   0.541853 0.538199 0.035326 -0.116345
C36   C     C_R   0.458141 0.461811 0.964673 -0.116302
H11   H     H_    0.318086 0.336516 0.965305 0.248469
H12   H     H_    0.681962 0.663451 0.034677 0.248482
N3    N     N_R   0.119048 0.501391 0.088016 0.128617
O9    O     O_R   0.097833 0.429126 0.993348 -0.324899
O10   O     O_R   0.206975 0.577503 0.092385 -0.429886
N4    N     N_R   0.880976 0.498568 0.911975 0.128604
O11   O     O_R   0.902185 0.570821 0.006655 -0.325109
O12   O     O_R   0.793054 0.422448 0.907591 -0.429925
C37   C     C_R   0.501834 0.855996 0.763629 0.148568
C38   C     C_R   0.596314 0.892289 0.851040 -0.071419
C39   C     C_R   0.581988 0.873135 0.962044 -0.104113
C40   C     C_R   0.473165 0.818324 0.986897 -0.143395
C41   C     C_R   0.378447 0.782807 0.900926 -0.142815
C42   C     C_R   0.392085 0.802558 0.790082 -0.126596
H13   H     H_    0.680322 0.936365 0.833462 0.149450
H14   H     H_    0.654994 0.901208 0.028941 0.169627
H15   H     H_    0.462149 0.803447 0.072757 0.167488
H16   H     H_    0.293713 0.741556 0.920858 0.158130
H17   H     H_    0.316227 0.778996 0.725436 0.110452
C43   C     C_R   0.498140 0.143996 0.236366 0.148585
C44   C     C_R   0.607857 0.197490 0.209923 -0.126467
C45   C     C_R   0.621488 0.217237 0.099077 -0.142809
C46   C     C_R   0.526800 0.181654 0.013090 -0.143461
C47   C     C_R   0.418011 0.126784 0.037931 -0.104050
C48   C     C_R   0.403687 0.107642 0.148940 -0.071445
H18   H     H_    0.683696 0.221101 0.274582 0.110408
H19   H     H_    0.706196 0.258539 0.079155 0.158129
H20   H     H_    0.537812 0.196525 0.927227 0.167362
H21   H     H_    0.345033 0.098654 0.971020 0.169563
H22   H     H_    0.319707 0.063519 0.166507 0.149399
N5    N     N_R   0.361090 0.374168 0.772372 0.142626
O13   O     O_R   0.248077 0.394813 0.758148 -0.327537
O14   O     O_R   0.382085 0.275879 0.758175 -0.415062
N6    N     N_R   0.638771 0.625954 0.227647 0.142595
O15   O     O_R   0.751752 0.605311 0.242317 -0.327453
O16   O     O_R   0.617784 0.724235 0.241569 -0.415311
N7    N     N_R   0.708804 0.658107 0.818325 0.117085
O17   O     O_R   0.802847 0.704222 0.887394 -0.366284
O18   O     O_R   0.700393 0.686106 0.720334 -0.324555
N8    N     N_R   0.291231 0.341846 0.181655 0.117100
O19   O     O_R   0.197227 0.295675 0.112562 -0.366220
O20   O     O_R   0.299595 0.313915 0.279685 -0.324525

loop_
_geom_bond_atom_site_label_1
_geom_bond_atom_site_label_2
_geom_bond_distance
_ccdc_geom_bond_type
N7    O17   1.301985 A    
O7    Cu2   1.970253 S    
C46   C47   1.397002 A    
Cu2   N2    2.034405 S    
C15   C18   1.412204 A    
O5    C3    1.316373 A    
C16   C17   1.412215 A    
C45   H19   1.081508 S    
C8    H4    1.079923 S    
O1    C1    1.309728 A    
C9    C11   1.394030 A    
C14   C16   1.408850 A    
C39   C40   1.396987 A    
C44   H18   1.081985 S    
C5    C15   1.410673 A    
C11   H5    1.081252 S    
C6    H2    1.076591 S    
N1    C32   1.405714 A    
C1    C20   1.479374 S    
C10   N3    1.435967 S    
C2    C19   1.479366 S    
C37   C42   1.403476 A    
O4    Cu1   1.971000 S    
N3    O10   1.301903 A    
C19   C26   1.404566 A    
C30   H12   1.079728 S    
C42   H17   1.082000 S    
C43   C48   1.406878 A    
C38   C39   1.398864 A    
C24   C37   1.482168 S    
C25   H8    1.081855 S    
C40   C41   1.396695 A    
C13   C17   1.419390 A    
N5    O14   1.299845 A    
C22   H10   1.085128 S    
C46   H20   1.082198 S    
C48   H22   1.083006 S    
Cu1   Cu2   2.707786 S    
C25   C27   1.387845 A    
C20   C25   1.404585 A    
O2    C2    1.309731 A    
C26   C28   1.387840 A    
C30   C32   1.409336 A    
C5    H1    1.076610 S    
C6    C16   1.410676 A    
C12   H6    1.081257 S    
N2    C31   1.405743 A    
C4    C17   1.494340 S    
C37   C38   1.406879 A    
C23   C43   1.482192 S    
O4    C2    1.305182 A    
C43   C44   1.403491 A    
C38   H13   1.082996 S    
C29   C31   1.409349 A    
C26   H7    1.081845 S    
N4    O12   1.301905 A    
C27   C28   1.400561 A    
C33   N6    1.431005 S    
C9    N4    1.435974 S    
O6    C4    1.316364 A    
N6    O16   1.299961 A    
C21   H9    1.085128 S    
C39   H14   1.082274 S    
C29   C36   1.385219 A    
O7    C3    1.305926 A    
C32   N7    1.459891 S    
O3    Cu2   1.971002 S    
O8    C4    1.305932 A    
Cu1   N1    2.034405 S    
C34   N5    1.430943 S    
C10   C12   1.394027 A    
N8    O19   1.301997 A    
N8    O20   1.289406 A    
C33   C35   1.432794 A    
C7    H3    1.079922 S    
C12   C14   1.410816 A    
O1    Cu1   1.949603 S    
C5    C7    1.395447 A    
O6    Cu2   1.983334 S    
C20   C23   1.426085 A    
C14   C18   1.419398 A    
C45   C46   1.396682 A    
O3    C1    1.305185 A    
O8    Cu1   1.970253 S    
N7    O18   1.289424 A    
C31   N8    1.459921 S    
N1    C34   1.377814 A    
N2    C33   1.377857 A    
N4    O11   1.300929 A    
C21   C28   1.395632 A    
C11   C13   1.410808 A    
C19   C24   1.426071 A    
C22   C27   1.395644 A    
C21   C23   1.400464 A    
C22   C24   1.400462 A    
C35   C36   1.393957 A    
C41   H16   1.081489 S    
C3    C18   1.494343 S    
N6    O15   1.299013 A    
C7    C9    1.398797 A    
C34   C36   1.432793 A    
C8    C10   1.398785 A    
C13   C15   1.408845 A    
N3    O9    1.300926 A    
O2    Cu2   1.949600 S    
C30   C35   1.385238 A    
C44   C45   1.398922 A    
O5    Cu1   1.983333 S    
C29   H11   1.079743 S    
C6    C8    1.395427 A    
C47   C48   1.398861 A    
C40   H15   1.082197 S    
C41   C42   1.398918 A    
N5    O13   1.298608 A    
C47   H21   1.082266 S    
