data_mof_unit_47108.cif
_audit_creation_date              2012-12-11T21:12:30-0500
_audit_creation_method            fapswitch 2.2
_symmetry_space_group_name_H-M    P1
_symmetry_Int_Tables_number       1
_space_group_crystal_system       triclinic
_cell_length_a                    8.235889
_cell_length_b                    18.894791
_cell_length_c                    26.950473
_cell_angle_alpha                 99.866324
_cell_angle_beta                  92.218786
_cell_angle_gamma                 88.389698
_cell_volume                      4127.80212109

loop_
_atom_site_label
_atom_site_type_symbol
_atom_type_description
_atom_site_fract_x
_atom_site_fract_y
_atom_site_fract_z
_atom_type_partial_charge
Ba1   Ba    Ba6+2 0.160810 0.465630 0.521640 1.709755
Ba2   Ba    Ba6+2 0.649380 0.534380 0.478400 1.657119
C1    C     C_3   0.514299 0.238707 0.687838 -0.315758
C2    C     C_3   0.507326 0.276502 0.642334 0.249892
C3    C     C_3   0.467337 0.313973 0.394757 0.307787
C4    C     C_3   0.463496 0.233017 0.377719 -0.391951
C5    C     C_3   0.871255 0.721035 0.377045 0.353950
C6    C     C_3   0.877093 0.794845 0.361992 -0.364537
C7    C     C_3   0.364502 0.696936 0.349817 0.296561
C8    C     C_3   0.405086 0.710983 0.297924 -0.347096
C9    C     C_R   0.992543 0.047117 0.474837 0.012076
C10   C     C_R   0.071078 0.095302 0.449273 -0.093421
C11   C     C_R   0.203891 0.950499 0.455005 -0.101062
C12   C     C_3   0.049067 0.296987 0.680828 0.315846
C13   C     C_R   0.053693 0.975622 0.475813 0.020931
C14   C     C_R   0.259111 0.880088 0.454168 -0.094906
C15   C     C_R   0.168089 0.830884 0.474166 -0.030306
C16   C     C_R   0.021398 0.854965 0.498050 0.000789
C17   C     C_R   0.964251 0.927727 0.499164 0.023515
C18   C     C_R   0.219846 0.758282 0.471214 -0.012493
C19   C     C_R   0.122860 0.710012 0.489932 -0.295244
C20   C     C_R   0.983349 0.732762 0.516364 0.044881
C21   C     C_R   0.933429 0.806655 0.521518 -0.038699
C22   C     C_R   0.844955 0.070850 0.498548 0.038163
C23   C     C_3   0.050710 0.308659 0.738385 -0.433108
C24   C     C_R   0.785311 0.143003 0.498531 0.041368
C25   C     C_R   0.875096 0.191847 0.476050 -0.021829
C26   C     C_R   0.013056 0.165336 0.449593 -0.029904
C27   C     C_R   0.799888 0.834254 0.549877 -0.022449
C28   C     C_R   0.742639 0.904517 0.550510 -0.086785
C29   C     C_R   0.818418 0.951917 0.523683 0.011108
C30   C     C_R   0.755766 0.022959 0.521970 0.029046
C31   C     C_R   0.603552 0.047288 0.541665 -0.086107
C32   C     C_R   0.634868 0.166095 0.520503 -0.010256
C33   C     C_R   0.544917 0.116889 0.540858 -0.085230
C34   C     C_3   0.824659 0.636496 0.635167 0.295033
C35   C     C_R   0.577766 0.237543 0.520680 -0.030954
C36   C     C_R   0.670619 0.284762 0.499900 -0.272982
C37   C     C_R   0.820803 0.264903 0.479494 0.056542
C38   C     C_R   0.288072 0.447257 0.171321 0.589011
C39   C     C_R   0.186976 0.568426 0.176100 0.580303
C40   C     C_2   0.032893 0.525816 0.268600 -0.069173
C41   C     C_3   0.996824 0.520228 0.322634 -0.053650
C42   C     C_1   0.282364 0.492733 0.335714 0.011692
C43   C     C_2   0.317563 0.494100 0.288303 -0.096359
C44   C     C_2   0.185534 0.510907 0.251613 0.209096
C45   C     C_3   0.788166 0.669171 0.689374 -0.370166
C46   C     C_R   0.296753 0.505473 0.097239 -0.078742
C47   C     C_R   0.326710 0.444727 0.120388 -0.033261
C48   C     C_R   0.395497 0.382711 0.092273 -0.061118
C49   C     C_R   0.226144 0.567675 0.125399 -0.029963
C50   C     C_2   0.151084 0.526027 0.355148 -0.287374
C51   C     C_2   0.661171 0.482543 0.640117 -0.260893
C52   C     C_R   0.437225 0.437768 0.965602 0.022412
C53   C     C_R   0.361938 0.566369 0.973441 0.023256
C54   C     C_R   0.421396 0.501561 0.944326 0.054516
C55   C     C_R   0.486987 0.373686 0.934011 -0.094458
C56   C     C_3   0.981345 0.370014 0.365977 0.288884
C57   C     C_R   0.526661 0.372985 0.884180 -0.059875
C58   C     C_R   0.519270 0.436102 0.863485 -0.024211
C59   C     C_R   0.466090 0.500586 0.893430 -0.071192
C60   C     C_R   0.457862 0.564123 0.872522 -0.027448
C61   C     C_R   0.506627 0.562756 0.822665 0.618910
C62   C     C_R   0.564040 0.436082 0.813399 0.651471
C63   C     C_2   0.770439 0.490257 0.729671 -0.074371
C64   C     C_3   0.812531 0.489053 0.674679 -0.160978
C65   C     C_1   0.523918 0.513038 0.656984 -0.005510
C66   C     C_2   0.483474 0.511465 0.703794 -0.120303
C67   C     C_3   0.015887 0.340417 0.311072 -0.359412
C68   C     C_2   0.610723 0.498812 0.742814 0.238636
C69   C     C_R   0.402433 0.439919 0.017365 0.020962
C70   C     C_R   0.337272 0.503992 0.045901 0.050560
C71   C     C_R   0.312455 0.566648 0.023699 0.021793
C72   C     C_R   0.432439 0.380222 0.042029 -0.099628
C73   C     C_R   0.195954 0.627950 0.102343 -0.060902
C74   C     C_R   0.355984 0.629131 0.951237 -0.090547
C75   C     C_R   0.403041 0.627917 0.902042 -0.050486
C76   C     C_R   0.238073 0.627604 0.052776 -0.097667
C77   C     C_3   0.332080 0.684331 0.590748 0.305983
C78   C     C_3   0.334271 0.765592 0.606567 -0.382036
H1    H     H_    0.497316 0.335327 0.656015 0.040664
H2    H     H_    0.708178 0.717621 0.689972 0.142721
H3    H     H_    0.724863 0.630537 0.707976 0.088792
H4    H     H_    0.903049 0.684672 0.710937 0.120356
H5    H     H_    0.094435 0.391071 0.385715 0.020524
H6    H     H_    0.887589 0.413598 0.367907 0.038019
H7    H     H_    0.100152 0.293118 0.308858 0.148531
H8    H     H_    0.073009 0.381029 0.292799 0.079863
H9    H     H_    0.900776 0.323683 0.290054 0.116221
H10   H     H_    0.205711 0.667563 0.581494 0.006591
H11   H     H_    0.407401 0.669348 0.557132 0.069052
H12   H     H_    0.625385 0.254533 0.711340 0.140968
H13   H     H_    0.255790 0.782301 0.639311 0.130207
H14   H     H_    0.288706 0.792555 0.575214 0.059764
H15   H     H_    0.460438 0.783026 0.617174 0.115325
H16   H     H_    0.622482 0.262553 0.622372 0.081216
H17   H     H_    0.518044 0.179551 0.675310 0.116885
H18   H     H_    0.595650 0.329774 0.402865 0.020088
H19   H     H_    0.396668 0.327420 0.429532 0.051500
H20   H     H_    0.534896 0.217391 0.343274 0.134027
H21   H     H_    0.516748 0.205236 0.407827 0.049077
H22   H     H_    0.336010 0.215798 0.369461 0.115663
H23   H     H_    0.406256 0.253887 0.710953 0.099045
H24   H     H_    0.143844 0.273239 0.753167 0.066045
H25   H     H_    0.769668 0.721402 0.402987 0.108189
H26   H     H_    0.987636 0.710384 0.396652 -0.048974
H27   H     H_    0.762813 0.806059 0.341189 0.137833
H28   H     H_    0.890612 0.836665 0.396105 0.075075
H29   H     H_    0.981838 0.797172 0.337616 0.122026
H30   H     H_    0.232886 0.708318 0.355384 -0.017366
H31   H     H_    0.392702 0.639466 0.351043 0.070199
H32   H     H_    0.336135 0.674146 0.268709 0.129265
H33   H     H_    0.537012 0.701424 0.291778 0.152765
H34   H     H_    0.167493 0.312345 0.668597 0.074728
H35   H     H_    0.372299 0.767376 0.294430 0.117117
H36   H     H_    0.161864 0.654287 0.486447 0.064495
H37   H     H_    0.374521 0.864908 0.437268 0.112253
H38   H     H_    0.078446 0.198163 0.428390 0.092538
H39   H     H_    0.736119 0.801907 0.571810 0.098707
H40   H     H_    0.426653 0.131191 0.556041 0.109762
H41   H     H_    0.621661 0.337599 0.497872 0.097975
H42   H     H_    0.284103 0.984235 0.439342 0.069454
H43   H     H_    0.177557 0.080385 0.427623 0.058374
H44   H     H_    0.639279 0.920469 0.573441 0.061913
H45   H     H_    0.523567 0.013045 0.556995 0.068638
H46   H     H_    0.440412 0.482203 0.275726 0.113225
H47   H     H_    0.421692 0.335369 0.109141 0.122367
H48   H     H_    0.564560 0.322365 0.861871 0.113963
H49   H     H_    0.493941 0.322375 0.946323 0.067876
H50   H     H_    0.488260 0.330800 0.023902 0.069749
H51   H     H_    0.933612 0.535376 0.242712 0.099862
H52   H     H_    0.139732 0.676271 0.122746 0.121694
H53   H     H_    0.319060 0.680981 0.971281 0.068460
H54   H     H_    0.081333 0.365015 0.753929 0.132744
H55   H     H_    0.396671 0.677751 0.887194 0.121042
H56   H     H_    0.359109 0.522926 0.714984 0.112827
H57   H     H_    0.207571 0.675984 0.038088 0.070703
H58   H     H_    0.153113 0.554698 0.393715 0.063720
H59   H     H_    0.929735 0.297174 0.751696 0.159278
H60   H     H_    0.710200 0.616601 0.615561 0.035689
H61   H     H_    0.915593 0.592068 0.634594 0.035811
N1    N     N_R   0.220303 0.508926 0.198804 -0.426691
N2    N     N_R   0.560835 0.499333 0.794007 -0.406736
O1    O     O_2   0.106080 0.324280 0.466820 -0.474498
O2    O     O_3   0.393342 0.652738 0.631033 -0.631559
O3    O     O_3   0.916559 0.335495 0.662836 -0.607291
O4    O     O_2   0.704230 0.675760 0.533200 -0.470489
O5    O     O_3   0.951180 0.586390 0.529420 -0.473990
O6    O     O_3   0.434080 0.629720 0.443130 -0.474985
O7    O     O_3   0.890182 0.689611 0.612682 -0.645720
O8    O     O_3   0.351080 0.462080 0.440130 -0.469723
O9    O     O_3   0.839200 0.593040 0.416790 -0.486047
O10   O     O_2   0.664673 0.559656 0.331654 -0.493530
O11   O     O_3   0.848265 0.669156 0.333612 -0.593815
O12   O     O_3   0.859130 0.413620 0.470620 -0.437505
O13   O     O_3   0.459240 0.537930 0.559910 -0.449583
O14   O     O_2   0.583120 0.462390 0.379940 -0.460091
O15   O     O_3   0.399176 0.347953 0.356243 -0.635197
O16   O     O_2   0.557830 0.756437 0.480007 -0.493324
O17   O     O_3   0.458171 0.741713 0.386245 -0.606551
O18   O     O_2   0.313045 0.394154 0.191052 -0.596086
O19   O     O_2   0.607015 0.379920 0.787099 -0.615792
O20   O     O_2   0.124446 0.622344 0.200155 -0.601984
O21   O     O_2   0.502163 0.618123 0.804859 -0.596503
O22   O     O_3   0.376230 0.370290 0.556910 -0.469143
O23   O     O_2   0.237743 0.244673 0.522449 -0.469457
O24   O     O_3   0.923323 0.313839 0.387129 -0.651978
O25   O     O_3   0.370239 0.253842 0.611649 -0.621531
O26   O     O_2   0.227190 0.537650 0.620070 -0.478874
O27   O     O_3   0.971110 0.406970 0.583250 -0.420995
O28   O     O_2   0.147545 0.435752 0.669617 -0.538275
P1    P     P_3+3 0.929380 0.335110 0.452880 1.004055
P2    P     P_3+3 0.398530 0.559060 0.613740 1.007744
P3    P     P_3+3 0.971231 0.419565 0.649436 0.973620
P4    P     P_3+3 0.880940 0.664900 0.547160 0.987805
P5    P     P_3+3 0.836585 0.584286 0.351046 0.970944
P6    P     P_3+3 0.390831 0.276352 0.551859 0.966880
P7    P     P_3+3 0.399885 0.441071 0.376576 0.963285
P8    P     P_3+3 0.416523 0.722441 0.445588 0.926257
C79   C     C_2   0.032742 0.218175 0.660228 0.554596
H62   H     H_    0.123775 0.180148 0.670578 -0.051660
O29   O     O_2   0.919903 0.196162 0.631500 -0.582183
C80   C     C_2   0.907559 0.494749 0.767701 0.517900
H63   H     H_    0.031229 0.495569 0.755516 -0.018494
O30   O     O_2   0.885943 0.499254 0.812681 -0.576731
C81   C     C_2   0.656934 0.428230 0.594630 0.660986
H64   H     H_    0.653640 0.372286 0.597554 -0.148385
O31   O     O_2   0.681096 0.445057 0.554103 -0.540837

loop_
_geom_bond_atom_site_label_1
_geom_bond_atom_site_label_2
_ccdc_geom_bond_type
C7    H31   S    
C53   C54   A    
C56   H5    S    
Ba2   O12   S    
C38   N1    Am   
C32   C35   A    
O22   P6    S    
Ba1   O27   S    
C60   C75   A    
C80   H63   S    
C17   C29   A    
C20   P4    S    
C5    C6    S    
C77   O2    S    
C43   C44   S    
C79   H62   S    
C13   C17   A    
C27   H39   S    
O10   P5    D    
Ba1   P2    S    
C24   C25   A    
C60   C61   A    
C76   H57   S    
C10   C26   A    
C21   C27   A    
C55   H49   S    
C23   H59   S    
C35   C36   A    
C49   C73   A    
Ba1   Ba2   S    
C80   O30   D    
C63   C80   S    
C3    C4    S    
O4    P4    D    
C41   C50   S    
C45   H2    S    
Ba2   O5    S    
O25   P6    S    
C6    H28   S    
C9    C22   A    
O6    P8    S    
C15   C18   A    
C34   C45   S    
C32   C33   A    
C40   C44   D    
C4    H21   S    
Ba1   O12   S    
C77   H10   S    
C2    H16   S    
C9    C13   A    
O12   P1    S    
C24   C32   A    
C46   C49   A    
O26   P2    D    
C52   C69   A    
C3    H19   S    
C25   C37   A    
C14   C15   A    
C10   H43   S    
C50   H58   S    
C71   C76   A    
C5    H25   S    
C8    H32   S    
C40   H51   S    
C45   H3    S    
C7    C8    S    
C77   H11   S    
C67   H7    S    
C42   C50   D    
Ba2   O6    S    
O7    P4    S    
C57   C58   A    
C19   C20   A    
C67   H8    S    
C33   H40   S    
C46   C70   A    
C19   H36   S    
C67   H9    S    
C56   H6    S    
C79   O29   D    
C18   P8    S    
Ba2   O9    S    
C61   O21   D    
O28   P3    D    
C52   C54   A    
O13   P2    S    
C44   N1    S    
O5    P4    S    
C2    H1    S    
C65   C66   D    
C66   H56   S    
C74   C75   A    
C62   O19   D    
C42   P7    S    
C16   C17   A    
O8    P7    S    
C38   O18   D    
C7    O17   S    
C57   H48   S    
C12   H34   S    
C16   C21   A    
O9    P5    S    
C58   C59   A    
C4    H20   S    
Ba1   O13   S    
C51   C81   S    
C22   C30   A    
O17   P8    S    
C27   C28   A    
C23   H54   S    
Ba2   P4    S    
C41   P5    S    
C1    H17   S    
C29   C30   A    
Ba1   O22   S    
C43   H46   S    
C74   H53   S    
C31   H45   S    
C15   C16   A    
C68   N2    S    
C5    H26   S    
C56   C67   S    
O23   P6    D    
C45   H4    S    
C18   C19   A    
C78   H15   S    
C56   O24   S    
C34   H60   S    
C48   C72   A    
C8    H33   S    
C81   H64   S    
C53   C74   A    
C46   C47   A    
O2    P2    S    
C63   C64   S    
C39   O20   D    
C40   C41   S    
C78   H14   S    
C1    C2    S    
C3    O15   S    
C6    H27   S    
C73   H52   S    
O27   P3    S    
C1    H23   S    
C7    H30   S    
C34   H61   S    
C12   O3    S    
Ba2   O13   S    
C54   C59   A    
C64   P3    S    
C42   C43   D    
C22   C24   A    
C28   H44   S    
C70   C71   A    
C69   C72   A    
C9    C10   A    
C23   H24   S    
O24   P1    S    
C62   N2    Am   
C35   P6    S    
O1    P1    D    
Ba1   P1    S    
O11   P5    S    
C58   C62   A    
C30   C31   A    
C11   C13   A    
Ba2   O4    S    
C39   N1    Am   
Ba1   O1    S    
C51   C64   S    
C14   H37   S    
Ba2   O8    S    
C11   H42   S    
C28   C29   A    
C34   O7    S    
C38   C47   A    
C36   C37   A    
C5    O11   S    
C65   P2    S    
Ba2   O14   S    
O3    P3    S    
Ba1   O26   S    
C31   C33   A    
C72   H50   S    
Ba1   O8    S    
O14   P7    D    
C4    H22   S    
C12   C23   S    
O15   P7    S    
C59   C60   A    
C51   C65   D    
C73   C76   A    
C36   H41   S    
C55   C57   A    
C77   C78   S    
C53   C71   A    
C2    O25   S    
C69   C70   A    
O16   P8    D    
C3    H18   S    
C37   P1    S    
C66   C68   S    
C47   C48   A    
C11   C14   A    
C25   C26   A    
C61   N2    Am   
C20   C21   A    
C1    H12   S    
Ba1   O5    S    
C26   H38   S    
C48   H47   S    
C75   H55   S    
C78   H13   S    
C6    H29   S    
C81   O31   D    
C39   C49   A    
C12   C79   S    
C8    H35   S    
C63   C68   D    
C52   C55   A    
