data_mof_unit_46634.cif
_audit_creation_date              2012-12-10T19:45:00-0500
_audit_creation_method            fapswitch 2.2
_symmetry_space_group_name_H-M    P1
_symmetry_Int_Tables_number       1
_space_group_crystal_system       triclinic
_cell_length_a                    15.066229
_cell_length_b                    10.863702
_cell_length_c                    13.675218
_cell_angle_alpha                 90.645756
_cell_angle_beta                  89.841638
_cell_angle_gamma                 89.960302
_cell_volume                      2238.14031416

loop_
_atom_site_label
_atom_site_type_symbol
_atom_type_description
_atom_site_fract_x
_atom_site_fract_y
_atom_site_fract_z
_atom_type_partial_charge
C1    C     C_R   0.497736 0.262056 0.499116 0.795855
C2    C     C_R   0.549212 0.886644 0.683216 0.086265
C3    C     C_R   0.502058 0.088883 0.232783 -0.178971
C4    C     C_R   0.497943 0.911118 0.767217 -0.178971
C5    C     C_R   0.476914 0.135923 0.142374 -0.197583
C6    C     C_R   0.523087 0.864077 0.857627 -0.197584
C7    C     C_R   0.400751 0.208437 0.134861 -0.102066
C8    C     C_R   0.599250 0.791564 0.865139 -0.102066
C9    C     C_R   0.481332 0.931587 0.415867 -0.239800
C10   C     C_R   0.518668 0.068413 0.584133 -0.239800
C11   C     C_R   0.503773 0.871792 0.502528 -0.087244
C12   C     C_R   0.502264 0.737944 0.500884 0.795855
C13   C     C_R   0.496227 0.128207 0.497471 -0.087244
C14   C     C_R   0.523279 0.941091 0.588190 0.012496
C15   C     C_R   0.476721 0.058909 0.411810 0.012496
C16   C     C_R   0.328485 0.500627 0.500147 0.812719
C17   C     C_R   0.671515 0.499373 0.499853 0.812720
C18   C     C_R   0.561244 0.430999 0.792004 0.008748
C19   C     C_R   0.438756 0.569001 0.207996 0.008748
C20   C     C_R   0.438785 0.568315 0.794048 0.046542
C21   C     C_R   0.561215 0.431685 0.205952 0.046542
C22   C     C_R   0.437289 0.569432 0.896983 -0.035030
C23   C     C_R   0.045821 0.431511 0.669133 -0.214632
C24   C     C_R   0.562711 0.430569 0.103017 -0.035030
C25   C     C_R   0.500220 0.499485 0.948159 0.025157
C26   C     C_R   0.499780 0.500515 0.051841 0.025158
C27   C     C_R   0.563522 0.428772 0.895525 -0.005221
C28   C     C_R   0.436479 0.571229 0.104475 -0.005221
C29   C     C_R   0.374606 0.639703 0.949137 -0.215633
C30   C     C_R   0.625395 0.360299 0.050863 -0.215634
C31   C     C_R   0.373373 0.641593 0.052202 0.181594
C32   C     C_R   0.626629 0.358410 0.947798 0.181595
C33   C     C_R   0.814727 0.532580 0.415121 -0.251703
C34   C     C_R   0.954179 0.568489 0.330867 -0.214632
C35   C     C_R   0.185273 0.467420 0.584879 -0.251703
C36   C     C_R   0.768265 0.498354 0.499522 -0.072299
C37   C     C_R   0.231735 0.501646 0.500478 -0.072299
C38   C     C_R   0.814348 0.463230 0.583645 -0.253562
C39   C     C_R   0.185652 0.536770 0.416355 -0.253563
C40   C     C_R   0.906789 0.464096 0.584589 0.113659
C41   C     C_R   0.093211 0.535904 0.415411 0.113659
C42   C     C_R   0.953481 0.499446 0.499836 0.060711
C43   C     C_R   0.046519 0.500554 0.500164 0.060711
C44   C     C_R   0.907218 0.533557 0.414716 0.108432
C45   C     C_R   0.348613 0.233508 0.217929 0.238109
C46   C     C_R   0.092782 0.466443 0.585284 0.108432
C47   C     C_R   0.953272 0.430275 0.668772 -0.212004
C48   C     C_R   0.046728 0.569725 0.331228 -0.212004
C49   C     C_3   0.304552 0.719055 0.104391 -0.912722
C50   C     C_3   0.695452 0.280952 0.895609 -0.912723
C51   C     C_3   0.267555 0.312989 0.210883 -0.902661
C52   C     C_3   0.732445 0.687009 0.789117 -0.902662
C53   C     C_R   0.651388 0.766491 0.782070 0.238109
C54   C     C_R   0.373175 0.184414 0.308518 -0.092802
C55   C     C_R   0.626825 0.815586 0.691481 -0.092802
C56   C     C_R   0.450788 0.113356 0.316784 0.086265
Cu1   Cu    Cu3+1 0.500010 0.499980 0.597420 0.936406
Cu2   Cu    Cu3+1 0.499990 0.500020 0.402580 0.936406
H1    H     H_    0.778953 0.559692 0.350098 0.152653
H2    H     H_    0.673434 0.306285 0.090809 0.138569
H3    H     H_    0.778335 0.434034 0.648073 0.141200
H4    H     H_    0.221665 0.565965 0.351926 0.141200
H5    H     H_    0.918046 0.403075 0.734267 0.143920
H6    H     H_    0.081954 0.596925 0.265733 0.143919
H7    H     H_    0.080665 0.405108 0.734876 0.143192
H8    H     H_    0.919335 0.594892 0.265124 0.143192
H9    H     H_    0.382925 0.245585 0.064418 0.131191
H10   H     H_    0.617076 0.754416 0.935582 0.131191
H11   H     H_    0.332541 0.202504 0.372633 0.116401
H12   H     H_    0.221047 0.440309 0.649902 0.152653
H13   H     H_    0.667459 0.797494 0.627367 0.116401
H14   H     H_    0.561605 0.033358 0.237433 0.137348
H15   H     H_    0.438396 0.966643 0.762567 0.137348
H16   H     H_    0.516920 0.116899 0.078076 0.150775
H17   H     H_    0.483081 0.883102 0.921924 0.150776
H18   H     H_    0.337745 0.789562 0.150949 0.232150
H19   H     H_    0.260765 0.767765 0.052277 0.237350
H20   H     H_    0.262105 0.659612 0.150644 0.224753
H21   H     H_    0.662262 0.210442 0.849052 0.232151
H22   H     H_    0.737897 0.340398 0.849355 0.224753
H23   H     H_    0.464904 0.878717 0.350617 0.160128
H24   H     H_    0.739242 0.232247 0.947723 0.237350
H25   H     H_    0.255899 0.343374 0.134691 0.229051
H26   H     H_    0.208405 0.261249 0.236120 0.235116
H27   H     H_    0.276310 0.395972 0.257647 0.245571
H28   H     H_    0.744101 0.656626 0.865309 0.229052
H29   H     H_    0.723689 0.604027 0.742353 0.245571
H30   H     H_    0.791595 0.738749 0.763879 0.235116
H31   H     H_    0.535097 0.121283 0.649383 0.160129
H32   H     H_    0.608116 0.377985 0.748903 0.139987
H33   H     H_    0.391884 0.622016 0.251097 0.139987
H34   H     H_    0.391347 0.622600 0.753697 0.128065
H35   H     H_    0.608653 0.377400 0.246303 0.128065
H36   H     H_    0.326568 0.693718 0.909191 0.138569
N1    N     N_R   0.499960 0.499900 0.743810 -0.186845
N2    N     N_R   0.500040 0.500100 0.256190 -0.186845
O1    O     O_R   0.500000 0.319630 0.582270 -0.590954
O2    O     O_R   0.500000 0.680370 0.417730 -0.590954
O3    O     O_R   0.499990 0.319660 0.417730 -0.574611
O4    O     O_R   0.500010 0.680340 0.582270 -0.574611
O5    O     O_R   0.370260 0.499960 0.582280 -0.591280
O6    O     O_R   0.629740 0.500040 0.417720 -0.591281
O7    O     O_R   0.370250 0.499990 0.417740 -0.596489
O8    O     O_R   0.629750 0.500010 0.582260 -0.596489

loop_
_geom_bond_atom_site_label_1
_geom_bond_atom_site_label_2
_ccdc_geom_bond_type
C40   C47   A    
C38   C40   A    
C22   C29   A    
Cu2   O2    S    
C50   H21   S    
C1    O3    A    
C6    H17   S    
C39   C41   A    
C20   H34   S    
C7    C45   A    
C35   C37   A    
C17   O8    A    
C24   C26   A    
C2    C55   A    
C47   H5    S    
C29   H36   S    
C11   C14   A    
C48   H6    S    
C45   C51   S    
C33   C36   A    
C49   H20   S    
C5    H16   S    
Cu1   O8    S    
Cu2   N2    S    
C35   H12   S    
C22   C25   A    
C30   H2    S    
Cu2   O6    S    
C17   C36   S    
C12   O2    A    
C16   C37   S    
C38   H3    S    
C40   C42   A    
C33   H1    S    
C23   C46   A    
C18   N1    A    
C41   C43   A    
C51   H27   S    
C42   C44   A    
C31   C49   S    
C34   H8    S    
C53   C55   A    
C54   C56   A    
C23   C47   A    
C18   C27   A    
C18   H32   S    
C52   H30   S    
C34   C44   A    
C10   H31   S    
C4    C6    A    
C10   C14   A    
C1    O1    A    
C5    C7    A    
C6    C8    A    
C25   C26   A    
Cu1   O4    S    
C2    C4    A    
C17   O6    A    
C28   C31   A    
C3    C56   A    
C16   O7    A    
Cu1   O1    S    
C49   H18   S    
C19   C28   A    
C9    C11   A    
C32   C50   S    
C4    H15   S    
C20   N1    A    
C20   C22   A    
C45   C54   A    
C8    H10   S    
C13   C15   A    
C1    C13   S    
C42   C43   A    
C51   H25   S    
C52   C53   S    
C50   H24   S    
C39   H4    S    
C27   C32   A    
C33   C44   A    
C52   H29   S    
Cu2   O3    S    
C3    C5    A    
C10   C13   A    
C50   H22   S    
C8    C53   A    
C11   C12   S    
C21   N2    A    
C25   C27   A    
Cu1   O5    S    
C26   C28   A    
C15   C56   S    
C23   H7    S    
C52   H28   S    
C3    H14   S    
C9    C15   A    
C37   C39   A    
C30   C32   A    
Cu1   Cu2   S    
C54   H11   S    
C21   H35   S    
C36   C38   A    
C41   C48   A    
C49   H19   S    
C2    C14   S    
C43   C46   A    
C24   C30   A    
C12   O4    A    
C19   H33   S    
C7    H9    S    
C16   O5    A    
C34   C48   A    
C29   C31   A    
Cu1   N1    S    
C21   C24   A    
Cu2   O7    S    
C35   C46   A    
C51   H26   S    
C55   H13   S    
C19   N2    A    
C9    H23   S    
