data_mof_unit_36329.cif
_audit_creation_date              2012-12-11T15:41:05-0500
_audit_creation_method            fapswitch 2.2
_symmetry_space_group_name_H-M    P1
_symmetry_Int_Tables_number       1
_space_group_crystal_system       triclinic
_cell_length_a                    19.019567
_cell_length_b                    11.00371
_cell_length_c                    18.77453
_cell_angle_alpha                 90.131432
_cell_angle_beta                  90.290663
_cell_angle_gamma                 90.023977
_cell_volume                      3929.18126115

loop_
_atom_site_label
_atom_site_type_symbol
_atom_type_description
_atom_site_fract_x
_atom_site_fract_y
_atom_site_fract_z
_atom_type_partial_charge
C1    C     C_R   0.724250 0.962695 0.856310 0.568428
C2    C     C_R   0.272630 0.955359 0.146470 0.546501
C3    C     C_R   0.224268 0.462646 0.856295 0.568457
C4    C     C_R   0.772625 0.455340 0.146474 0.546210
C5    C     C_R   0.693209 0.453391 0.040427 0.000612
C6    C     C_R   0.297747 0.473237 0.964898 -0.020045
C7    C     C_R   0.193361 0.953749 0.040341 0.000701
C8    C     C_R   0.797723 0.973332 0.964917 -0.020081
C9    C     C_R   0.684004 0.423715 0.969134 0.027679
C10   C     C_R   0.305744 0.463261 0.037741 0.042945
C11   C     C_R   0.184147 0.924051 0.969053 0.027843
C12   C     C_R   0.805728 0.963326 0.037758 0.043071
C13   C     C_R   0.774502 0.271750 0.979082 -0.147534
C14   C     C_R   0.182374 0.417179 0.048919 -0.161052
C15   C     C_R   0.274409 0.771708 0.979103 -0.147541
C16   C     C_R   0.682356 0.917245 0.048941 -0.160951
C17   C     C_R   0.783349 0.300472 0.051022 -0.142274
C18   C     C_R   0.175080 0.425174 0.975340 -0.139316
C19   C     C_R   0.283251 0.800438 0.051041 -0.142331
C20   C     C_R   0.675053 0.925284 0.975364 -0.139197
C21   C     C_3   0.678973 0.585081 0.027411 -0.227060
C22   C     C_3   0.369511 0.427465 0.949575 -0.260892
C23   C     C_3   0.179432 0.085493 0.027261 -0.227082
C24   C     C_3   0.869478 0.927518 0.949581 -0.260947
C25   C     C_3   0.670150 0.553336 0.949126 -0.030777
C26   C     C_3   0.379101 0.415900 0.029708 -0.028617
C27   C     C_3   0.170570 0.053709 0.948989 -0.030850
C28   C     C_3   0.879078 0.915941 0.029711 -0.028535
C29   C     C_R   0.727190 0.337410 0.936373 0.026734
C30   C     C_R   0.249496 0.424488 0.080074 0.006966
C31   C     C_R   0.227204 0.837505 0.936356 0.026811
C32   C     C_R   0.749484 0.924532 0.080089 0.007206
C33   C     C_R   0.506440 0.164464 0.421665 0.017348
C34   C     C_R   0.514734 0.171252 0.569354 0.025546
C35   C     C_R   0.009560 0.668401 0.420392 0.019117
C36   C     C_R   0.016347 0.671450 0.568373 0.024340
C37   C     C_R   0.533208 0.267479 0.455816 0.022419
C38   C     C_R   0.536352 0.270097 0.528452 0.049060
C39   C     C_R   0.028968 0.774957 0.456367 0.023463
C40   C     C_R   0.031709 0.775406 0.529055 0.045743
C41   C     C_R   0.498787 0.061500 0.535423 -0.171291
C42   C     C_R   0.496036 0.057468 0.461388 -0.165692
C43   C     C_R   0.008826 0.560617 0.532497 -0.171976
C44   C     C_R   0.008261 0.558557 0.458244 -0.170349
C45   C     C_R   0.529955 0.178034 0.850707 0.549599
C46   C     C_R   0.470009 0.177256 0.149220 0.548636
C47   C     C_R   0.029955 0.678033 0.850708 0.549587
C48   C     C_R   0.970007 0.677257 0.149218 0.548604
C49   C     C_3   0.512086 0.399102 0.452971 -0.267419
C50   C     C_3   0.513871 0.399612 0.533250 -0.266497
C51   C     C_3   0.998922 0.901530 0.455562 -0.268031
C52   C     C_3   0.001068 0.899474 0.535774 -0.272908
C53   C     C_R   0.750808 0.411431 0.422064 0.016411
C54   C     C_R   0.251825 0.398936 0.581469 0.019316
C55   C     C_R   0.261950 0.936275 0.429167 0.019094
C56   C     C_R   0.748728 0.908094 0.578534 0.018360
C57   C     C_R   0.791438 0.323852 0.457202 0.020961
C58   C     C_R   0.208174 0.317046 0.544742 0.031963
C59   C     C_R   0.319715 0.898578 0.469443 0.039535
C60   C     C_R   0.704393 0.827601 0.541769 0.023586
C61   C     C_R   0.789417 0.314711 0.530244 0.040196
C62   C     C_R   0.211267 0.308465 0.471745 0.044109
C63   C     C_R   0.316425 0.890328 0.542333 0.021248
C64   C     C_R   0.706857 0.820069 0.468818 0.038935
C65   C     C_R   0.699977 0.468787 0.536121 -0.156368
C66   C     C_R   0.310777 0.442364 0.469796 -0.167078
C67   C     C_R   0.199646 0.975029 0.539476 -0.149594
C68   C     C_R   0.804390 0.958947 0.466121 -0.162774
C69   C     C_R   0.701491 0.478211 0.461859 -0.155275
C70   C     C_R   0.308752 0.449497 0.544412 -0.169720
C71   C     C_R   0.203173 0.982345 0.465074 -0.152020
C72   C     C_R   0.802692 0.965915 0.540561 -0.162652
C73   C     C_3   0.869421 0.304312 0.456731 -0.268049
C74   C     C_3   0.129846 0.302163 0.543592 -0.268868
C75   C     C_3   0.361572 0.784798 0.461956 -0.275035
C76   C     C_3   0.625773 0.816093 0.541283 -0.268226
C77   C     C_3   0.866938 0.297625 0.536811 -0.271215
C78   C     C_3   0.133718 0.295891 0.463334 -0.273215
C79   C     C_3   0.358903 0.775709 0.542041 -0.271447
C80   C     C_3   0.628969 0.810716 0.461025 -0.276427
C81   C     C_R   0.746696 0.390484 0.571021 0.019870
C82   C     C_R   0.258001 0.378838 0.432447 0.018699
C83   C     C_R   0.254102 0.918589 0.578079 0.018286
C84   C     C_R   0.753605 0.890357 0.429400 0.021443
C85   C     C_R   0.724147 0.313321 0.859866 0.573734
C86   C     C_R   0.261718 0.364731 0.147729 0.541281
C87   C     C_R   0.224151 0.813338 0.859866 0.573866
C88   C     C_R   0.761715 0.864739 0.147733 0.540551
C89   C     C_R   0.727919 0.954647 0.647733 0.559857
C90   C     C_R   0.273489 0.958789 0.354046 0.545565
C91   C     C_R   0.228584 0.452755 0.648467 0.557548
C92   C     C_R   0.772111 0.455472 0.352515 0.549049
C93   C     C_R   0.531277 0.176613 0.643765 0.550637
C94   C     C_R   0.471155 0.176034 0.354318 0.550758
C95   C     C_R   0.031885 0.676615 0.643261 0.549896
C96   C     C_R   0.971871 0.676549 0.353911 0.548938
C97   C     C_R   0.739040 0.360051 0.645543 0.564687
C98   C     C_R   0.262347 0.355926 0.356248 0.544277
C99   C     C_R   0.239861 0.863092 0.646768 0.566939
C100  C     C_R   0.761087 0.859950 0.354668 0.543923
C101  C     C_2   0.498017 0.171636 0.921113 -0.101843
C102  C     C_2   0.501575 0.166128 0.078662 -0.124192
C103  C     C_2   0.998012 0.671629 0.921112 -0.102003
C104  C     C_2   0.001574 0.666134 0.078662 -0.124107
C105  C     C_2   0.485093 0.070684 0.036610 -0.166645
C106  C     C_2   0.499410 0.069492 0.959744 -0.154056
C107  C     C_2   0.985108 0.570680 0.036612 -0.166579
C108  C     C_2   0.999429 0.569490 0.959749 -0.154143
C109  C     C_R   0.746604 0.398799 0.080969 0.014878
C110  C     C_R   0.234251 0.444625 0.932063 0.035831
C111  C     C_R   0.246616 0.898912 0.080941 0.014781
C112  C     C_R   0.734223 0.944737 0.932085 0.035835
Cr1   Cr    Cr6+3 0.769260 0.163750 0.750730 1.020402
Cr2   Cr    Cr6+3 0.230740 0.163750 0.249270 1.025453
Cr3   Cr    Cr6+3 0.269260 0.663750 0.750730 1.017614
Cr4   Cr    Cr6+3 0.730740 0.663750 0.249270 1.024325
Cr5   Cr    Cr6+3 0.612640 0.009910 0.748780 1.021256
Cr6   Cr    Cr6+3 0.387360 0.009910 0.251220 1.024624
Cr7   Cr    Cr6+3 0.112640 0.509910 0.748780 1.021189
Cr8   Cr    Cr6+3 0.887360 0.509910 0.251220 1.022297
Cr9   Cr    Cr6+3 0.614190 0.322400 0.747710 1.031512
Cr10  Cr    Cr6+3 0.385810 0.322400 0.252290 1.045150
Cr11  Cr    Cr6+3 0.114190 0.822400 0.747710 1.030873
Cr12  Cr    Cr6+3 0.885810 0.822400 0.252290 1.044836
H1    H     H_    0.458480 0.991689 0.058249 0.173528
H2    H     H_    0.510788 0.982783 0.934749 0.151841
H3    H     H_    0.958507 0.491673 0.058253 0.173538
H4    H     H_    0.010835 0.482788 0.934759 0.151748
H5    H     H_    0.944416 0.906700 0.435337 0.170296
H6    H     H_    0.037838 0.966770 0.559098 0.133730
H7    H     H_    0.458538 0.415515 0.432274 0.165817
H8    H     H_    0.554620 0.459892 0.556138 0.141102
H9    H     H_    0.553224 0.457057 0.428698 0.129403
H10   H     H_    0.461174 0.409508 0.557754 0.137282
H11   H     H_    0.035576 0.968811 0.432033 0.123334
H12   H     H_    0.948182 0.898076 0.560599 0.139108
H13   H     H_    0.664954 0.526066 0.566426 0.118165
H14   H     H_    0.351174 0.490868 0.441397 0.116305
H15   H     H_    0.152308 0.003636 0.565975 0.123065
H16   H     H_    0.843494 0.009947 0.437289 0.115337
H17   H     H_    0.668918 0.545606 0.436414 0.128907
H18   H     H_    0.347700 0.503202 0.572233 0.115975
H19   H     H_    0.159355 0.018982 0.435473 0.119571
H20   H     H_    0.839685 0.023983 0.567849 0.123763
H21   H     H_    0.898523 0.384762 0.438157 0.165779
H22   H     H_    0.102047 0.383766 0.562401 0.168249
H23   H     H_    0.415344 0.800384 0.441377 0.134371
H24   H     H_    0.598973 0.898736 0.560715 0.171475
H25   H     H_    0.884478 0.217214 0.431001 0.128707
H26   H     H_    0.112651 0.215627 0.568399 0.127435
H27   H     H_    0.331750 0.711677 0.434184 0.138020
H28   H     H_    0.607609 0.729810 0.565739 0.125243
H29   H     H_    0.882359 0.207876 0.558077 0.133937
H30   H     H_    0.117191 0.207004 0.441229 0.133893
H31   H     H_    0.327833 0.696838 0.559895 0.165347
H32   H     H_    0.611049 0.722587 0.438767 0.130400
H33   H     H_    0.892748 0.375817 0.563787 0.137005
H34   H     H_    0.110247 0.375687 0.436162 0.139476
H35   H     H_    0.411042 0.787197 0.568215 0.129949
H36   H     H_    0.606011 0.891767 0.434507 0.142551
H37   H     H_    0.529445 0.244144 0.057451 0.131574
H38   H     H_    0.482735 0.256872 0.945629 0.116912
H39   H     H_    0.029433 0.744159 0.057447 0.131615
H40   H     H_    0.982704 0.756857 0.945620 0.116943
H41   H     H_    0.808958 0.205289 0.955416 0.154696
H42   H     H_    0.136805 0.392437 0.080121 0.147578
H43   H     H_    0.308791 0.705119 0.955464 0.154737
H44   H     H_    0.636791 0.892485 0.080144 0.147567
H45   H     H_    0.823982 0.253785 0.080896 0.171643
H46   H     H_    0.123568 0.411117 0.952323 0.144120
H47   H     H_    0.323795 0.753611 0.080955 0.171586
H48   H     H_    0.623541 0.911235 0.952345 0.144189
H49   H     H_    0.225854 0.143724 0.039053 0.168850
H50   H     H_    0.902938 0.998196 0.924582 0.166582
H51   H     H_    0.725271 0.643633 0.039204 0.169217
H52   H     H_    0.402959 0.498161 0.924579 0.166680
H53   H     H_    0.629271 0.615452 0.052730 0.158601
H54   H     H_    0.368486 0.338805 0.921174 0.150300
H55   H     H_    0.129801 0.116247 0.052542 0.158447
H56   H     H_    0.868430 0.838855 0.921179 0.150181
H57   H     H_    0.615565 0.567128 0.929293 0.151944
H58   H     H_    0.384428 0.320155 0.047459 0.150228
H59   H     H_    0.116029 0.067809 0.929135 0.151855
H60   H     H_    0.884400 0.820191 0.047458 0.150311
H61   H     H_    0.486383 0.980936 0.565884 0.121379
H62   H     H_    0.478467 0.974645 0.436061 0.135594
H63   H     H_    0.001014 0.477375 0.561732 0.114017
H64   H     H_    0.999600 0.473495 0.430958 0.118731
O1    O     O_R   0.784290 0.290360 0.830540 -0.498509
O2    O     O_R   0.215710 0.290360 0.169460 -0.526837
O3    O     O_R   0.284290 0.790360 0.830540 -0.497922
O4    O     O_R   0.715710 0.790360 0.169460 -0.527307
O5    O     O_R   0.554690 0.080440 0.673480 -0.507592
O6    O     O_R   0.445310 0.080440 0.326520 -0.510560
O7    O     O_R   0.054690 0.580440 0.673480 -0.506432
O8    O     O_R   0.945310 0.580440 0.326520 -0.511152
O9    O     O_R   0.543980 0.282110 0.666770 -0.518111
O10   O     O_R   0.456020 0.282110 0.333230 -0.523060
O11   O     O_R   0.043980 0.782110 0.666770 -0.517791
O12   O     O_R   0.956020 0.782110 0.333230 -0.522943
O13   O     O_R   0.679070 0.374030 0.674430 -0.495458
O14   O     O_R   0.320930 0.374030 0.325570 -0.506183
O15   O     O_R   0.179070 0.874030 0.674430 -0.496529
O16   O     O_R   0.820930 0.874030 0.325570 -0.506653
O17   O     O_3   0.665360 0.165350 0.749070 -0.283754
O18   O     O_3   0.334640 0.165350 0.250930 -0.257616
O19   O     O_3   0.165360 0.665350 0.749070 -0.282294
O20   O     O_3   0.834640 0.665350 0.250930 -0.255282
O21   O     O_R   0.762610 0.041070 0.825230 -0.522182
O22   O     O_R   0.237390 0.041070 0.174770 -0.496809
O23   O     O_R   0.262610 0.541070 0.825230 -0.521759
O24   O     O_R   0.737390 0.541070 0.174770 -0.497146
O25   O     O_R   0.667390 0.924160 0.829970 -0.503853
O26   O     O_R   0.332610 0.924160 0.170030 -0.516409
O27   O     O_R   0.167390 0.424160 0.829970 -0.504094
O28   O     O_R   0.832610 0.424160 0.170030 -0.516277
O29   O     O_R   0.553980 0.081420 0.821780 -0.500835
O30   O     O_R   0.446020 0.081420 0.178220 -0.499597
O31   O     O_R   0.053980 0.581420 0.821780 -0.500826
O32   O     O_R   0.946020 0.581420 0.178220 -0.499391
O33   O     O_R   0.543210 0.283170 0.826740 -0.521689
O34   O     O_R   0.456790 0.283170 0.173260 -0.483864
O35   O     O_R   0.043210 0.783170 0.826740 -0.521570
O36   O     O_R   0.956790 0.783170 0.173260 -0.483910
O37   O     O_R   0.678350 0.375000 0.822720 -0.471582
O38   O     O_R   0.321650 0.375000 0.177280 -0.478899
O39   O     O_R   0.178350 0.875000 0.822720 -0.471943
O40   O     O_R   0.821650 0.875000 0.177280 -0.479343
O41   O     O_R   0.785060 0.289300 0.670580 -0.512123
O42   O     O_R   0.214940 0.289300 0.329420 -0.517167
O43   O     O_R   0.285060 0.789300 0.670580 -0.517756
O44   O     O_R   0.714940 0.789300 0.329420 -0.517607
O45   O     O_R   0.763330 0.040090 0.676940 -0.505036
O46   O     O_R   0.236670 0.040090 0.323060 -0.505108
O47   O     O_R   0.263330 0.540090 0.676940 -0.507893
O48   O     O_R   0.736670 0.540090 0.323060 -0.506117
O49   O     O_R   0.668160 0.923110 0.670000 -0.515250
O50   O     O_R   0.331840 0.923110 0.330000 -0.516173
O51   O     O_R   0.168160 0.423110 0.670000 -0.515294
O52   O     O_R   0.831840 0.423110 0.330000 -0.521491
I1    I     I_    0.751329 0.632067 0.884313 -0.389775
I2    I     I_    0.455249 0.541190 0.071473 -0.458479
I3    I     I_    0.251887 0.131885 0.884147 -0.389529
I4    I     I_    0.955242 0.041204 0.071474 -0.458191

loop_
_geom_bond_atom_site_label_1
_geom_bond_atom_site_label_2
_ccdc_geom_bond_type
C58   C62   A    
C39   C51   S    
C4    C109  S    
C67   C83   A    
Cr2   O2    S    
Cr3   O19   S    
C6    C110  A    
C41   C42   A    
C14   C18   A    
C93   O9    A    
C34   C93   S    
Cr9   O17   S    
C22   H54   S    
C53   C69   A    
C33   C94   S    
C104  H39   S    
Cr3   O47   S    
C51   H5    S    
C9    C25   S    
Cr2   O46   S    
C63   C79   S    
C35   C96   S    
C45   O33   A    
Cr7   O27   S    
C49   H7    S    
C103  H40   S    
Cr8   O8    S    
C89   O45   A    
Cr3   O43   S    
C12   C28   S    
C46   O30   A    
C33   C42   A    
C46   C102  S    
C13   C29   A    
C101  H38   S    
Cr6   O18   S    
C19   H47   S    
C55   C90   S    
Cr5   O17   S    
C8    C112  A    
C1    C112  S    
C79   H35   S    
C17   H45   S    
C80   H36   S    
C67   C71   A    
Cr11  O39   S    
C76   H28   S    
C3    C110  S    
C85   O1    A    
C48   C104  S    
C91   O47   A    
C65   C69   A    
Cr9   O37   S    
Cr8   O32   S    
C90   O46   A    
C102  C105  D    
C72   H20   S    
C96   O8    A    
C57   C73   S    
C49   C50   S    
Cr10  O18   S    
C64   C84   A    
C49   H9    S    
C77   H33   S    
C77   H29   S    
C15   C19   A    
C51   H11   S    
C78   H34   S    
C97   O41   A    
Cr8   O28   S    
Cr12  O36   S    
C75   H27   S    
C56   C72   A    
C66   H14   S    
Cr6   O30   S    
C107  C108  S    
Cr5   O29   S    
C103  C108  D    
C23   C27   S    
C30   C86   S    
C67   H15   S    
C23   H55   S    
C7    C23   S    
Cr2   O22   S    
C68   C72   A    
C8    C24   S    
Cr1   O45   S    
Cr6   O50   S    
C21   H53   S    
C62   C82   A    
C11   C31   A    
C73   H25   S    
C98   O42   A    
Cr12  O20   S    
Cr7   O31   S    
C25   I1    S    
C64   C80   S    
C47   C103  S    
C15   H43   S    
C34   C41   A    
C65   H13   S    
C14   C30   A    
Cr1   O41   S    
C100  O16   A    
C7    C111  A    
C34   C38   A    
Cr12  O40   S    
C25   H57   S    
C7    C11   A    
C3    O27   A    
C18   H46   S    
C3    O23   A    
C62   C78   S    
C2    C111  S    
C2    O22   A    
C86   O2    A    
C90   O50   A    
C1    O21   A    
C51   C52   S    
Cr8   O20   S    
C89   O49   A    
C36   C40   A    
C31   C87   S    
Cr10  O38   S    
C50   H10   S    
C61   C77   S    
C39   C40   A    
C53   C57   A    
C107  H3    S    
C78   H30   S    
C48   O36   A    
C21   H51   S    
C40   C52   S    
C47   O31   A    
C92   O48   A    
Cr7   O51   S    
Cr10  O10   S    
Cr2   O18   S    
C76   H24   S    
C73   H21   S    
C94   O10   A    
C68   C84   A    
C55   C71   A    
C35   C39   A    
C43   C44   A    
C24   H56   S    
C37   C38   A    
C86   O38   A    
C66   C82   A    
C37   C49   S    
C10   C30   A    
C65   C81   A    
C54   C70   A    
C11   C27   S    
C8    C12   A    
C63   C83   A    
Cr4   O48   S    
C53   C92   S    
C54   C58   A    
C10   C26   S    
C85   O37   A    
C41   H61   S    
Cr6   O26   S    
C16   C20   A    
C13   H41   S    
C108  H4    S    
Cr12  O12   S    
C15   C31   A    
C35   C44   A    
Cr9   O9    S    
Cr4   O20   S    
C50   H8    S    
Cr8   O52   S    
C23   H49   S    
C26   H58   S    
C95   O11   A    
C56   C89   S    
C20   H48   S    
C44   H64   S    
Cr4   O44   S    
C2    O26   A    
C87   O39   A    
C45   C101  S    
Cr10  O34   S    
C52   H12   S    
C82   C98   S    
C68   H16   S    
C32   C88   S    
Cr7   O19   S    
Cr11  O19   S    
Cr5   O5    S    
C59   C75   S    
C80   H32   S    
Cr1   O1    S    
C55   C59   A    
C58   C74   S    
C24   C28   S    
C87   O3    A    
C48   O32   A    
Cr11  O11   S    
C101  C106  D    
C96   O12   A    
C21   C25   S    
C52   H6    S    
C92   O52   A    
C95   O7    A    
C99   O15   A    
C24   H50   S    
C94   O6    A    
C29   C85   S    
C74   H22   S    
C93   O5    A    
C76   C80   S    
C97   O13   A    
C36   C43   A    
C17   C109  A    
C43   H63   S    
Cr2   O42   S    
C70   H18   S    
C99   O43   A    
C26   I2    S    
C57   C61   A    
C38   C50   S    
C19   C111  A    
C88   O4    A    
C16   C32   A    
C79   H31   S    
C28   I4    S    
C105  C106  S    
C106  H2    S    
C59   C63   A    
C46   O34   A    
Cr3   O23   S    
C33   C37   A    
C60   C64   A    
C75   H23   S    
C105  H1    S    
C28   H60   S    
Cr3   O3    S    
C54   C91   S    
Cr4   O24   S    
C61   C81   A    
C1    O25   A    
C9    C29   A    
Cr9   O13   S    
C36   C95   S    
C42   H62   S    
C88   O40   A    
C71   H19   S    
Cr11  O35   S    
C16   H44   S    
C102  H37   S    
C98   O14   A    
C4    O24   A    
C69   H17   S    
C74   C78   S    
C81   C97   S    
C60   C76   S    
C27   I3    S    
Cr7   O7    S    
Cr4   O4    S    
Cr6   O6    S    
C27   H59   S    
C22   H52   S    
Cr12  O16   S    
C84   C100  S    
C6    C10   A    
Cr5   O49   S    
C13   C17   A    
C56   C60   A    
Cr10  O14   S    
Cr5   O25   S    
C5    C21   S    
C66   C70   A    
C47   O35   A    
C73   C77   S    
C18   C110  A    
C14   H42   S    
C22   C26   S    
C20   C112  A    
C91   O51   A    
C4    O28   A    
Cr9   O33   S    
C74   H26   S    
C100  O44   A    
C83   C99   S    
C5    C9    A    
C5    C109  A    
Cr11  O15   S    
C75   C79   S    
C104  C107  D    
C12   C32   A    
C45   O29   A    
Cr1   O17   S    
Cr1   O21   S    
C6    C22   S    
